MODEL 1
REMARK VINA RESULT:    -6.473      0.000      0.000
REMARK INTER + INTRA:         -24.688
REMARK INTER:                 -18.583
REMARK INTRA:                  -6.106
REMARK UNBOUND:                -6.106
REMARK SMILES CCCCCC(=O)N[C@H](CC(=O)O)C(=O)N[C@H]1C(=O)N[C@H](CCCN=C(N)N)C(=O)N[C@@H]2CC[C@H](O)N(C2=O)[C@@H](CC(C)C)C(=O)N(C)[C@@H](Cc2ccccc2)C(=O)N[C@H](C(C)C)C(=O)O[C@@H]1C
REMARK SMILES IDX 30 1 31 2 29 3 32 5 35 6 37 7 34 8 38 9 33 10 39 11 36 12
REMARK SMILES IDX 40 14 41 15 42 16 43 17 44 18 45 19 46 20 47 21 48 22 49 23
REMARK SMILES IDX 50 24 51 25 52 26 56 27 53 28 55 29 54 30 57 31 58 32 59 33
REMARK SMILES IDX 60 35 61 36 62 37 63 38 64 39 65 40 66 41 67 42 68 43 21 45
REMARK SMILES IDX 20 46 18 47 19 48 17 50 16 52 14 53 15 54 9 56 8 57 6 58
REMARK SMILES IDX 7 59 5 61 4 62 3 63 2 64 1 65 10 66 11 67 12 68 13 69 22 71
REMARK SMILES IDX 23 72 24 73 25 74 26 75 27 76 28 77
REMARK H PARENT 31 4 36 13 59 34 20 49 16 55 8 60 13 70 27 78 27 79 28 80
REMARK H PARENT 28 81
REMARK Flexibility Score:  259.900
ROOT
ATOM      1  O   UNL     1      -4.721   9.739   2.262  1.00  0.00    -0.273 OA
ATOM      2  N   UNL     1      -4.526  10.811   4.273  1.00  0.00    -0.343 N 
ATOM      3  C   UNL     1      -4.064  10.446   3.027  1.00  0.00     0.243 C 
ATOM      4  H   UNL     1      -3.965  11.406   4.869  1.00  0.00     0.164 HD
ENDROOT
BRANCH   2   5
ATOM      5  C   UNL     1      -5.779  10.268   4.788  1.00  0.00     0.171 C 
ATOM      6  C   UNL     1      -8.152  11.514   5.892  1.00  0.00     0.214 C 
ATOM      7  N   UNL     1      -7.079  11.123   6.776  1.00  0.00    -0.303 N 
ATOM      8  C   UNL     1      -8.262  10.638   4.655  1.00  0.00     0.057 C 
ATOM      9  C   UNL     1      -5.897  10.570   6.310  1.00  0.00     0.247 C 
ATOM     10  C   UNL     1      -6.955  10.658   3.894  1.00  0.00     0.040 C 
ATOM     11  O   UNL     1      -4.949  10.318   7.064  1.00  0.00    -0.272 OA
BRANCH   6  12
ATOM     12  O   UNL     1      -7.940  12.858   5.526  1.00  0.00    -0.373 OA
ATOM     13  H   UNL     1      -7.560  13.312   6.308  1.00  0.00     0.213 HD
ENDBRANCH   6  12
BRANCH   7  14
ATOM     14  C   UNL     1      -7.226  11.472   8.205  1.00  0.00     0.177 C 
BRANCH  14  15
ATOM     15  C   UNL     1      -6.731  12.880   8.591  1.00  0.00     0.038 C 
BRANCH  15  16
ATOM     16  C   UNL     1      -6.450  13.207  10.074  1.00  0.00    -0.015 C 
ATOM     17  C   UNL     1      -5.857  14.607  10.261  1.00  0.00     0.007 C 
ATOM     18  C   UNL     1      -5.462  12.186  10.652  1.00  0.00     0.007 C 
ENDBRANCH  15  16
ENDBRANCH  14  15
BRANCH  14  19
ATOM     19  C   UNL     1      -8.479  10.753   8.814  1.00  0.00     0.245 C 
ATOM     20  O   UNL     1      -8.481   9.511   8.781  1.00  0.00    -0.272 OA
BRANCH  19  21
ATOM     21  N   UNL     1      -9.603  11.416   9.272  1.00  0.00    -0.332 N 
ATOM     22  C   UNL     1     -10.449  12.288   8.476  1.00  0.00     0.147 C 
BRANCH  21  23
ATOM     23  C   UNL     1      -9.982  11.240  10.701  1.00  0.00     0.178 C 
BRANCH  23  24
ATOM     24  C   UNL     1     -10.026  12.545  11.523  1.00  0.00     0.070 C 
BRANCH  24  25
ATOM     25  C   UNL     1      -8.928  12.755  12.539  1.00  0.00    -0.045 A 
ATOM     26  C   UNL     1      -8.554  14.046  12.935  1.00  0.00     0.004 A 
ATOM     27  C   UNL     1      -8.262  11.655  13.099  1.00  0.00     0.004 A 
ATOM     28  C   UNL     1      -7.527  14.232  13.862  1.00  0.00     0.000 A 
ATOM     29  C   UNL     1      -7.236  11.843  14.027  1.00  0.00     0.000 A 
ATOM     30  C   UNL     1      -6.867  13.132  14.405  1.00  0.00     0.000 A 
ENDBRANCH  24  25
ENDBRANCH  23  24
BRANCH  23  31
ATOM     31  C   UNL     1     -11.203  10.309  10.891  1.00  0.00     0.243 C 
ATOM     32  O   UNL     1     -11.338   9.229  10.322  1.00  0.00    -0.273 OA
ATOM     33  N   UNL     1     -12.228  10.883  11.624  1.00  0.00    -0.341 N 
ATOM     34  H   UNL     1     -12.057  11.787  12.070  1.00  0.00     0.164 HD
BRANCH  33  35
ATOM     35  C   UNL     1     -13.524  10.232  11.830  1.00  0.00     0.194 C 
BRANCH  35  36
ATOM     36  C   UNL     1     -14.695  10.885  11.042  1.00  0.00     0.017 C 
ATOM     37  C   UNL     1     -14.690  10.447   9.567  1.00  0.00     0.010 C 
ATOM     38  C   UNL     1     -14.658  12.418  11.066  1.00  0.00     0.010 C 
ENDBRANCH  35  36
BRANCH  35  39
ATOM     39  C   UNL     1     -13.869  10.048  13.334  1.00  0.00     0.329 C 
ATOM     40  O   UNL     1     -14.484   9.089  13.785  1.00  0.00    -0.250 OA
BRANCH  39  41
ATOM     41  O   UNL     1     -13.332  11.034  14.115  1.00  0.00    -0.458 OA
BRANCH  41  42
ATOM     42  C   UNL     1     -14.132  11.467  15.241  1.00  0.00     0.205 CG0
ATOM     43  C   UNL     1     -15.167  12.457  14.709  1.00  0.00     0.056 C 
ATOM     44  G   UNL     1     -13.199  12.098  16.294  1.00  0.00     0.000 G0
ENDBRANCH  41  42
ENDBRANCH  39  41
ENDBRANCH  35  39
ENDBRANCH  33  35
ENDBRANCH  23  31
ENDBRANCH  21  23
ENDBRANCH  19  21
ENDBRANCH  14  19
ENDBRANCH   7  14
ENDBRANCH   2   5
BRANCH   3  45
ATOM     45  C   UNL     1      -2.684  11.000   2.650  1.00  0.00     0.171 C 
BRANCH  45  46
ATOM     46  N   UNL     1      -2.713  11.182   1.205  1.00  0.00    -0.342 N 
ATOM     47  C   UNL     1      -2.046  12.205   0.578  1.00  0.00     0.247 C 
ATOM     48  O   UNL     1      -1.318  12.995   1.179  1.00  0.00    -0.273 OA
ATOM     49  H   UNL     1      -3.259  10.515   0.663  1.00  0.00     0.164 HD
BRANCH  47  50
ATOM     50  C   UNL     1      -2.295  12.313  -0.933  1.00  0.00     0.212 CG0
ATOM     51  G   UNL     1      -2.099  13.788  -1.334  1.00  0.00     0.000 G0
BRANCH  50  52
ATOM     52  N   UNL     1      -1.325  11.413  -1.552  1.00  0.00    -0.339 N 
ATOM     53  C   UNL     1      -0.846  11.581  -2.829  1.00  0.00     0.243 C 
ATOM     54  O   UNL     1      -1.240  12.476  -3.571  1.00  0.00    -0.273 OA
ATOM     55  H   UNL     1      -1.044  10.587  -1.027  1.00  0.00     0.164 HD
BRANCH  53  56
ATOM     56  C   UNL     1       0.101  10.458  -3.296  1.00  0.00     0.182 C 
BRANCH  56  57
ATOM     57  N   UNL     1       1.131  10.184  -2.289  1.00  0.00    -0.344 N 
ATOM     58  C   UNL     1       1.276   8.952  -1.701  1.00  0.00     0.220 C 
ATOM     59  O   UNL     1       0.513   8.017  -1.921  1.00  0.00    -0.275 OA
ATOM     60  H   UNL     1       1.844  10.897  -2.154  1.00  0.00     0.164 HD
BRANCH  58  61
ATOM     61  C   UNL     1       2.442   8.881  -0.732  1.00  0.00     0.100 C 
BRANCH  61  62
ATOM     62  C   UNL     1       2.055   8.395   0.665  1.00  0.00     0.010 C 
BRANCH  62  63
ATOM     63  C   UNL     1       2.425   6.933   0.945  1.00  0.00     0.000 C 
BRANCH  63  64
ATOM     64  C   UNL     1       1.946   6.413   2.299  1.00  0.00    -0.003 C 
ATOM     65  C   UNL     1       1.228   7.499   3.088  1.00  0.00     0.004 C 
ENDBRANCH  63  64
ENDBRANCH  62  63
ENDBRANCH  61  62
ENDBRANCH  58  61
ENDBRANCH  56  57
BRANCH  56  66
ATOM     66  C   UNL     1       0.703  10.766  -4.666  1.00  0.00     0.157 C 
BRANCH  66  67
ATOM     67  C   UNL     1       1.219   9.520  -5.327  1.00  0.00     0.305 C 
ATOM     68  O   UNL     1       2.218   9.420  -6.023  1.00  0.00    -0.252 OA
BRANCH  67  69
ATOM     69  O   UNL     1       0.471   8.439  -5.034  1.00  0.00    -0.481 OA
ATOM     70  H   UNL     1      -0.428   8.793  -4.872  1.00  0.00     0.296 HD
ENDBRANCH  67  69
ENDBRANCH  66  67
ENDBRANCH  56  66
ENDBRANCH  53  56
ENDBRANCH  50  52
ENDBRANCH  47  50
ENDBRANCH  45  46
BRANCH  45  71
ATOM     71  C   UNL     1      -1.582  10.021   3.074  1.00  0.00     0.037 C 
BRANCH  71  72
ATOM     72  C   UNL     1      -0.569  10.670   4.020  1.00  0.00     0.026 C 
BRANCH  72  73
ATOM     73  C   UNL     1      -0.974  10.494   5.482  1.00  0.00     0.146 C 
BRANCH  73  74
ATOM     74  N   UNL     1      -1.942  11.537   5.806  1.00  0.00    -0.254 NA
ATOM     75  C   UNL     1      -2.067  11.877   7.036  1.00  0.00     0.185 C 
ATOM     76  N   UNL     1      -2.948  12.835   7.365  1.00  0.00    -0.370 N 
ATOM     77  N   UNL     1      -1.418  11.402   8.114  1.00  0.00    -0.370 N 
ATOM     78  H   UNL     1      -3.485  13.242   6.612  1.00  0.00     0.159 HD
ATOM     79  H   UNL     1      -3.203  13.051   8.313  1.00  0.00     0.159 HD
ATOM     80  H   UNL     1      -0.721  10.680   8.017  1.00  0.00     0.159 HD
ATOM     81  H   UNL     1      -1.517  11.829   9.020  1.00  0.00     0.159 HD
ENDBRANCH  73  74
ENDBRANCH  72  73
ENDBRANCH  71  72
ENDBRANCH  45  71
ENDBRANCH   3  45
TORSDOF 20
ENDMDL
MODEL 2
REMARK VINA RESULT:    -6.352      2.045      3.852
REMARK INTER + INTRA:         -24.341
REMARK INTER:                 -17.635
REMARK INTRA:                  -6.706
REMARK UNBOUND:                -6.106
REMARK SMILES CCCCCC(=O)N[C@H](CC(=O)O)C(=O)N[C@H]1C(=O)N[C@H](CCCN=C(N)N)C(=O)N[C@@H]2CC[C@H](O)N(C2=O)[C@@H](CC(C)C)C(=O)N(C)[C@@H](Cc2ccccc2)C(=O)N[C@H](C(C)C)C(=O)O[C@@H]1C
REMARK SMILES IDX 30 1 31 2 29 3 32 5 35 6 37 7 34 8 38 9 33 10 39 11 36 12
REMARK SMILES IDX 40 14 41 15 42 16 43 17 44 18 45 19 46 20 47 21 48 22 49 23
REMARK SMILES IDX 50 24 51 25 52 26 56 27 53 28 55 29 54 30 57 31 58 32 59 33
REMARK SMILES IDX 60 35 61 36 62 37 63 38 64 39 65 40 66 41 67 42 68 43 21 45
REMARK SMILES IDX 20 46 18 47 19 48 17 50 16 52 14 53 15 54 9 56 8 57 6 58
REMARK SMILES IDX 7 59 5 61 4 62 3 63 2 64 1 65 10 66 11 67 12 68 13 69 22 71
REMARK SMILES IDX 23 72 24 73 25 74 26 75 27 76 28 77
REMARK H PARENT 31 4 36 13 59 34 20 49 16 55 8 60 13 70 27 78 27 79 28 80
REMARK H PARENT 28 81
REMARK Flexibility Score:  259.900
ROOT
ATOM      1  O   UNL     1      -4.253   9.762   2.707  1.00  0.00    -0.273 OA
ATOM      2  N   UNL     1      -4.229  10.765   4.762  1.00  0.00    -0.343 N 
ATOM      3  C   UNL     1      -3.629  10.341   3.596  1.00  0.00     0.243 C 
ATOM      4  H   UNL     1      -3.686  11.251   5.465  1.00  0.00     0.164 HD
ENDROOT
BRANCH   2   5
ATOM      5  C   UNL     1      -5.621  10.433   5.044  1.00  0.00     0.171 C 
ATOM      6  C   UNL     1      -7.867  12.013   5.973  1.00  0.00     0.214 C 
ATOM      7  N   UNL     1      -7.027  11.338   6.935  1.00  0.00    -0.303 N 
ATOM      8  C   UNL     1      -7.949  11.293   4.636  1.00  0.00     0.057 C 
ATOM      9  C   UNL     1      -5.909  10.610   6.562  1.00  0.00     0.247 C 
ATOM     10  C   UNL     1      -6.560  11.127   4.058  1.00  0.00     0.040 C 
ATOM     11  O   UNL     1      -5.145  10.107   7.397  1.00  0.00    -0.272 OA
BRANCH   6  12
ATOM     12  O   UNL     1      -7.363  13.317   5.801  1.00  0.00    -0.373 OA
ATOM     13  H   UNL     1      -7.028  13.613   6.674  1.00  0.00     0.213 HD
ENDBRANCH   6  12
BRANCH   7  14
ATOM     14  C   UNL     1      -7.320  11.576   8.364  1.00  0.00     0.177 C 
BRANCH  14  15
ATOM     15  C   UNL     1      -6.874  12.947   8.907  1.00  0.00     0.038 C 
BRANCH  15  16
ATOM     16  C   UNL     1      -6.472  13.085  10.392  1.00  0.00    -0.015 C 
ATOM     17  C   UNL     1      -5.697  14.376  10.671  1.00  0.00     0.007 C 
ATOM     18  C   UNL     1      -5.593  11.897  10.803  1.00  0.00     0.007 C 
ENDBRANCH  15  16
ENDBRANCH  14  15
BRANCH  14  19
ATOM     19  C   UNL     1      -8.623  10.814   8.786  1.00  0.00     0.245 C 
ATOM     20  O   UNL     1      -8.646   9.589   8.582  1.00  0.00    -0.272 OA
BRANCH  19  21
ATOM     21  N   UNL     1      -9.764  11.440   9.256  1.00  0.00    -0.332 N 
ATOM     22  C   UNL     1     -10.649  12.282   8.470  1.00  0.00     0.147 C 
BRANCH  21  23
ATOM     23  C   UNL     1     -10.121  11.251  10.690  1.00  0.00     0.178 C 
BRANCH  23  24
ATOM     24  C   UNL     1     -10.203  12.554  11.511  1.00  0.00     0.070 C 
BRANCH  24  25
ATOM     25  C   UNL     1      -9.145  12.770  12.568  1.00  0.00    -0.045 A 
ATOM     26  C   UNL     1      -8.780  14.063  12.964  1.00  0.00     0.004 A 
ATOM     27  C   UNL     1      -8.508  11.672  13.166  1.00  0.00     0.004 A 
ATOM     28  C   UNL     1      -7.788  14.254  13.929  1.00  0.00     0.000 A 
ATOM     29  C   UNL     1      -7.519  11.865  14.131  1.00  0.00     0.000 A 
ATOM     30  C   UNL     1      -7.158  13.157  14.509  1.00  0.00     0.000 A 
ENDBRANCH  24  25
ENDBRANCH  23  24
BRANCH  23  31
ATOM     31  C   UNL     1     -11.304  10.276  10.894  1.00  0.00     0.243 C 
ATOM     32  O   UNL     1     -11.410   9.194  10.322  1.00  0.00    -0.273 OA
ATOM     33  N   UNL     1     -12.338  10.810  11.645  1.00  0.00    -0.341 N 
ATOM     34  H   UNL     1     -12.193  11.718  12.093  1.00  0.00     0.164 HD
BRANCH  33  35
ATOM     35  C   UNL     1     -13.607  10.112  11.867  1.00  0.00     0.194 C 
BRANCH  35  36
ATOM     36  C   UNL     1     -14.811  10.724  11.097  1.00  0.00     0.017 C 
ATOM     37  C   UNL     1     -14.691  10.476   9.584  1.00  0.00     0.010 C 
ATOM     38  C   UNL     1     -14.956  12.236  11.305  1.00  0.00     0.010 C 
ENDBRANCH  35  36
BRANCH  35  39
ATOM     39  C   UNL     1     -13.923   9.914  13.376  1.00  0.00     0.329 C 
ATOM     40  O   UNL     1     -14.492   8.929  13.834  1.00  0.00    -0.250 OA
BRANCH  39  41
ATOM     41  O   UNL     1     -13.419  10.922  14.150  1.00  0.00    -0.458 OA
BRANCH  41  42
ATOM     42  C   UNL     1     -14.358  11.588  15.027  1.00  0.00     0.205 CG0
ATOM     43  C   UNL     1     -13.937  13.054  15.113  1.00  0.00     0.056 C 
ATOM     44  G   UNL     1     -14.334  10.886  16.399  1.00  0.00     0.000 G0
ENDBRANCH  41  42
ENDBRANCH  39  41
ENDBRANCH  35  39
ENDBRANCH  33  35
ENDBRANCH  23  31
ENDBRANCH  21  23
ENDBRANCH  19  21
ENDBRANCH  14  19
ENDBRANCH   7  14
ENDBRANCH   2   5
BRANCH   3  45
ATOM     45  C   UNL     1      -2.133  10.661   3.473  1.00  0.00     0.171 C 
BRANCH  45  46
ATOM     46  N   UNL     1      -1.817  10.527   2.057  1.00  0.00    -0.342 N 
ATOM     47  C   UNL     1      -1.198  11.523   1.343  1.00  0.00     0.247 C 
ATOM     48  O   UNL     1      -0.801  12.568   1.860  1.00  0.00    -0.273 OA
ATOM     49  H   UNL     1      -2.078   9.654   1.602  1.00  0.00     0.164 HD
BRANCH  47  50
ATOM     50  C   UNL     1      -1.059  11.254  -0.162  1.00  0.00     0.212 CG0
ATOM     51  G   UNL     1      -1.831   9.957  -0.478  1.00  0.00     0.000 G0
BRANCH  50  52
ATOM     52  N   UNL     1      -1.616  12.432  -0.822  1.00  0.00    -0.339 N 
ATOM     53  C   UNL     1      -1.558  12.636  -2.179  1.00  0.00     0.243 C 
ATOM     54  O   UNL     1      -0.983  11.864  -2.940  1.00  0.00    -0.273 OA
ATOM     55  H   UNL     1      -2.008  13.163  -0.232  1.00  0.00     0.164 HD
BRANCH  53  56
ATOM     56  C   UNL     1      -2.135  13.992  -2.634  1.00  0.00     0.182 C 
BRANCH  56  57
ATOM     57  N   UNL     1      -3.602  13.964  -2.641  1.00  0.00    -0.344 N 
ATOM     58  C   UNL     1      -4.352  14.447  -1.597  1.00  0.00     0.220 C 
ATOM     59  O   UNL     1      -3.852  14.866  -0.559  1.00  0.00    -0.275 OA
ATOM     60  H   UNL     1      -4.053  13.720  -3.519  1.00  0.00     0.164 HD
BRANCH  58  61
ATOM     61  C   UNL     1      -5.847  14.370  -1.845  1.00  0.00     0.100 C 
BRANCH  61  62
ATOM     62  C   UNL     1      -6.584  13.435  -0.886  1.00  0.00     0.010 C 
BRANCH  62  63
ATOM     63  C   UNL     1      -7.591  14.143   0.029  1.00  0.00     0.000 C 
BRANCH  63  64
ATOM     64  C   UNL     1      -7.827  13.438   1.364  1.00  0.00    -0.003 C 
ATOM     65  C   UNL     1      -8.110  14.437   2.477  1.00  0.00     0.004 C 
ENDBRANCH  63  64
ENDBRANCH  62  63
ENDBRANCH  61  62
ENDBRANCH  58  61
ENDBRANCH  56  57
BRANCH  56  66
ATOM     66  C   UNL     1      -1.560  14.421  -3.983  1.00  0.00     0.157 C 
BRANCH  66  67
ATOM     67  C   UNL     1      -2.607  14.379  -5.059  1.00  0.00     0.305 C 
ATOM     68  O   UNL     1      -2.870  13.435  -5.789  1.00  0.00    -0.252 OA
BRANCH  67  69
ATOM     69  O   UNL     1      -3.315  15.522  -5.129  1.00  0.00    -0.481 OA
ATOM     70  H   UNL     1      -2.649  16.235  -5.031  1.00  0.00     0.296 HD
ENDBRANCH  67  69
ENDBRANCH  66  67
ENDBRANCH  56  66
ENDBRANCH  53  56
ENDBRANCH  50  52
ENDBRANCH  47  50
ENDBRANCH  45  46
BRANCH  45  71
ATOM     71  C   UNL     1      -1.308   9.695   4.330  1.00  0.00     0.037 C 
BRANCH  71  72
ATOM     72  C   UNL     1      -0.103  10.384   4.976  1.00  0.00     0.026 C 
BRANCH  72  73
ATOM     73  C   UNL     1      -0.517  11.647   5.728  1.00  0.00     0.146 C 
BRANCH  73  74
ATOM     74  N   UNL     1      -1.402  11.249   6.819  1.00  0.00    -0.254 NA
ATOM     75  C   UNL     1      -2.176  12.141   7.318  1.00  0.00     0.185 C 
ATOM     76  N   UNL     1      -3.002  11.805   8.321  1.00  0.00    -0.370 N 
ATOM     77  N   UNL     1      -2.303  13.436   6.979  1.00  0.00    -0.370 N 
ATOM     78  H   UNL     1      -2.965  10.848   8.644  1.00  0.00     0.159 HD
ATOM     79  H   UNL     1      -3.527  12.475   8.855  1.00  0.00     0.159 HD
ATOM     80  H   UNL     1      -1.746  13.829   6.235  1.00  0.00     0.159 HD
ATOM     81  H   UNL     1      -3.030  14.014   7.366  1.00  0.00     0.159 HD
ENDBRANCH  73  74
ENDBRANCH  72  73
ENDBRANCH  71  72
ENDBRANCH  45  71
ENDBRANCH   3  45
TORSDOF 20
ENDMDL
MODEL 3
REMARK VINA RESULT:    -6.275      6.602      8.705
REMARK INTER + INTRA:         -24.118
REMARK INTER:                 -18.339
REMARK INTRA:                  -5.780
REMARK UNBOUND:                -6.106
REMARK SMILES CCCCCC(=O)N[C@H](CC(=O)O)C(=O)N[C@H]1C(=O)N[C@H](CCCN=C(N)N)C(=O)N[C@@H]2CC[C@H](O)N(C2=O)[C@@H](CC(C)C)C(=O)N(C)[C@@H](Cc2ccccc2)C(=O)N[C@H](C(C)C)C(=O)O[C@@H]1C
REMARK SMILES IDX 30 1 31 2 29 3 32 5 35 6 37 7 34 8 38 9 33 10 39 11 36 12
REMARK SMILES IDX 40 14 41 15 42 16 43 17 44 18 45 19 46 20 47 21 48 22 49 23
REMARK SMILES IDX 50 24 51 25 52 26 56 27 53 28 55 29 54 30 57 31 58 32 59 33
REMARK SMILES IDX 60 35 61 36 62 37 63 38 64 39 65 40 66 41 67 42 68 43 21 45
REMARK SMILES IDX 20 46 18 47 19 48 17 50 16 52 14 53 15 54 9 56 8 57 6 58
REMARK SMILES IDX 7 59 5 61 4 62 3 63 2 64 1 65 10 66 11 67 12 68 13 69 22 71
REMARK SMILES IDX 23 72 24 73 25 74 26 75 27 76 28 77
REMARK H PARENT 31 4 36 13 59 34 20 49 16 55 8 60 13 70 27 78 27 79 28 80
REMARK H PARENT 28 81
REMARK Flexibility Score:  259.900
ROOT
ATOM      1  O   UNL     1      -0.486   8.599   2.808  1.00  0.00    -0.273 OA
ATOM      2  N   UNL     1       0.387   8.441   4.916  1.00  0.00    -0.343 N 
ATOM      3  C   UNL     1       0.491   8.444   3.542  1.00  0.00     0.243 C 
ATOM      4  H   UNL     1       1.214   8.326   5.488  1.00  0.00     0.164 HD
ENDROOT
BRANCH   2   5
ATOM      5  C   UNL     1      -0.919   8.504   5.563  1.00  0.00     0.171 C 
ATOM      6  C   UNL     1      -1.819   9.655   8.067  1.00  0.00     0.214 C 
ATOM      7  N   UNL     1      -1.384   8.278   8.033  1.00  0.00    -0.303 N 
ATOM      8  C   UNL     1      -2.427  10.126   6.755  1.00  0.00     0.057 C 
ATOM      9  C   UNL     1      -0.895   7.681   6.883  1.00  0.00     0.247 C 
ATOM     10  C   UNL     1      -1.428   9.943   5.633  1.00  0.00     0.040 C 
ATOM     11  O   UNL     1      -0.444   6.529   6.882  1.00  0.00    -0.272 OA
BRANCH   6  12
ATOM     12  O   UNL     1      -0.707  10.449   8.408  1.00  0.00    -0.373 OA
ATOM     13  H   UNL     1       0.073  10.061   7.957  1.00  0.00     0.213 HD
ENDBRANCH   6  12
BRANCH   7  14
ATOM     14  C   UNL     1      -1.341   7.557   9.323  1.00  0.00     0.177 C 
BRANCH  14  15
ATOM     15  C   UNL     1      -0.431   8.187  10.396  1.00  0.00     0.038 C 
BRANCH  15  16
ATOM     16  C   UNL     1       1.016   7.674  10.563  1.00  0.00    -0.015 C 
ATOM     17  C   UNL     1       1.626   8.071  11.911  1.00  0.00     0.007 C 
ATOM     18  C   UNL     1       1.901   8.246   9.448  1.00  0.00     0.007 C 
ENDBRANCH  15  16
ENDBRANCH  14  15
BRANCH  14  19
ATOM     19  C   UNL     1      -2.713   6.852   9.598  1.00  0.00     0.245 C 
ATOM     20  O   UNL     1      -3.585   7.527  10.170  1.00  0.00    -0.272 OA
BRANCH  19  21
ATOM     21  N   UNL     1      -2.957   5.514   9.344  1.00  0.00    -0.332 N 
ATOM     22  C   UNL     1      -3.206   4.936   8.036  1.00  0.00     0.147 C 
BRANCH  21  23
ATOM     23  C   UNL     1      -2.980   4.578  10.503  1.00  0.00     0.178 C 
BRANCH  23  24
ATOM     24  C   UNL     1      -2.167   5.048  11.727  1.00  0.00     0.070 C 
BRANCH  24  25
ATOM     25  C   UNL     1      -0.697   4.702  11.751  1.00  0.00    -0.045 A 
ATOM     26  C   UNL     1      -0.068   4.162  10.621  1.00  0.00     0.004 A 
ATOM     27  C   UNL     1       0.062   4.915  12.912  1.00  0.00     0.004 A 
ATOM     28  C   UNL     1       1.288   3.829  10.657  1.00  0.00     0.000 A 
ATOM     29  C   UNL     1       1.417   4.583  12.945  1.00  0.00     0.000 A 
ATOM     30  C   UNL     1       2.028   4.038  11.818  1.00  0.00     0.000 A 
ENDBRANCH  24  25
ENDBRANCH  23  24
BRANCH  23  31
ATOM     31  C   UNL     1      -4.398   4.051  10.826  1.00  0.00     0.243 C 
ATOM     32  O   UNL     1      -5.435   4.618  10.489  1.00  0.00    -0.273 OA
ATOM     33  N   UNL     1      -4.403   2.972  11.693  1.00  0.00    -0.341 N 
ATOM     34  H   UNL     1      -3.507   2.546  11.942  1.00  0.00     0.164 HD
BRANCH  33  35
ATOM     35  C   UNL     1      -5.634   2.384  12.229  1.00  0.00     0.194 C 
BRANCH  35  36
ATOM     36  C   UNL     1      -6.073   2.971  13.600  1.00  0.00     0.017 C 
ATOM     37  C   UNL     1      -7.295   3.894  13.448  1.00  0.00     0.010 C 
ATOM     38  C   UNL     1      -4.970   3.780  14.293  1.00  0.00     0.010 C 
ENDBRANCH  35  36
BRANCH  35  39
ATOM     39  C   UNL     1      -5.594   0.830  12.249  1.00  0.00     0.329 C 
ATOM     40  O   UNL     1      -4.849   0.172  12.965  1.00  0.00    -0.250 OA
BRANCH  39  41
ATOM     41  O   UNL     1      -6.547   0.275  11.440  1.00  0.00    -0.458 OA
BRANCH  41  42
ATOM     42  C   UNL     1      -6.603  -1.171  11.414  1.00  0.00     0.205 CG0
ATOM     43  C   UNL     1      -5.992  -1.626  10.091  1.00  0.00     0.056 C 
ATOM     44  G   UNL     1      -8.074  -1.608  11.566  1.00  0.00     0.000 G0
ENDBRANCH  41  42
ENDBRANCH  39  41
ENDBRANCH  35  39
ENDBRANCH  33  35
ENDBRANCH  23  31
ENDBRANCH  21  23
ENDBRANCH  19  21
ENDBRANCH  14  19
ENDBRANCH   7  14
ENDBRANCH   2   5
BRANCH   3  45
ATOM     45  C   UNL     1       1.911   8.263   2.990  1.00  0.00     0.171 C 
BRANCH  45  46
ATOM     46  N   UNL     1       2.200   9.478   2.239  1.00  0.00    -0.342 N 
ATOM     47  C   UNL     1       3.457  10.025   2.181  1.00  0.00     0.247 C 
ATOM     48  O   UNL     1       4.442   9.493   2.694  1.00  0.00    -0.273 OA
ATOM     49  H   UNL     1       1.423   9.920   1.752  1.00  0.00     0.164 HD
BRANCH  47  50
ATOM     50  C   UNL     1       3.546  11.371   1.448  1.00  0.00     0.212 CG0
ATOM     51  G   UNL     1       4.988  11.525   0.925  1.00  0.00     0.000 G0
BRANCH  50  52
ATOM     52  N   UNL     1       2.550  11.302   0.382  1.00  0.00    -0.339 N 
ATOM     53  C   UNL     1       1.613  12.281   0.158  1.00  0.00     0.243 C 
ATOM     54  O   UNL     1       1.507  13.272   0.875  1.00  0.00    -0.273 OA
ATOM     55  H   UNL     1       2.515  10.452  -0.177  1.00  0.00     0.164 HD
BRANCH  53  56
ATOM     56  C   UNL     1       0.613  11.947  -0.967  1.00  0.00     0.182 C 
BRANCH  56  57
ATOM     57  N   UNL     1       0.925  10.652  -1.581  1.00  0.00    -0.344 N 
ATOM     58  C   UNL     1      -0.045   9.837  -2.113  1.00  0.00     0.220 C 
ATOM     59  O   UNL     1      -1.241  10.100  -2.047  1.00  0.00    -0.275 OA
ATOM     60  H   UNL     1       1.906  10.445  -1.747  1.00  0.00     0.164 HD
BRANCH  58  61
ATOM     61  C   UNL     1       0.511   8.576  -2.747  1.00  0.00     0.100 C 
BRANCH  61  62
ATOM     62  C   UNL     1       0.612   8.645  -4.271  1.00  0.00     0.010 C 
BRANCH  62  63
ATOM     63  C   UNL     1       2.049   8.705  -4.803  1.00  0.00     0.000 C 
BRANCH  63  64
ATOM     64  C   UNL     1       2.673   7.338  -5.079  1.00  0.00    -0.003 C 
ATOM     65  C   UNL     1       4.150   7.462  -5.424  1.00  0.00     0.004 C 
ENDBRANCH  63  64
ENDBRANCH  62  63
ENDBRANCH  61  62
ENDBRANCH  58  61
ENDBRANCH  56  57
BRANCH  56  66
ATOM     66  C   UNL     1       0.535  13.070  -2.000  1.00  0.00     0.157 C 
BRANCH  66  67
ATOM     67  C   UNL     1       1.879  13.338  -2.615  1.00  0.00     0.305 C 
ATOM     68  O   UNL     1       2.578  14.326  -2.447  1.00  0.00    -0.252 OA
BRANCH  67  69
ATOM     69  O   UNL     1       2.305  12.314  -3.378  1.00  0.00    -0.481 OA
ATOM     70  H   UNL     1       3.280  12.311  -3.272  1.00  0.00     0.296 HD
ENDBRANCH  67  69
ENDBRANCH  66  67
ENDBRANCH  56  66
ENDBRANCH  53  56
ENDBRANCH  50  52
ENDBRANCH  47  50
ENDBRANCH  45  46
BRANCH  45  71
ATOM     71  C   UNL     1       1.982   7.017   2.099  1.00  0.00     0.037 C 
BRANCH  71  72
ATOM     72  C   UNL     1       3.198   6.146   2.423  1.00  0.00     0.026 C 
BRANCH  72  73
ATOM     73  C   UNL     1       2.781   4.755   2.895  1.00  0.00     0.146 C 
BRANCH  73  74
ATOM     74  N   UNL     1       1.751   4.919   3.916  1.00  0.00    -0.254 NA
ATOM     75  C   UNL     1       0.576   4.478   3.658  1.00  0.00     0.185 C 
ATOM     76  N   UNL     1      -0.393   4.614   4.578  1.00  0.00    -0.370 N 
ATOM     77  N   UNL     1       0.128   3.865   2.548  1.00  0.00    -0.370 N 
ATOM     78  H   UNL     1      -0.141   5.072   5.442  1.00  0.00     0.159 HD
ATOM     79  H   UNL     1      -1.362   4.427   4.394  1.00  0.00     0.159 HD
ATOM     80  H   UNL     1       0.748   3.692   1.772  1.00  0.00     0.159 HD
ATOM     81  H   UNL     1      -0.791   3.458   2.504  1.00  0.00     0.159 HD
ENDBRANCH  73  74
ENDBRANCH  72  73
ENDBRANCH  71  72
ENDBRANCH  45  71
ENDBRANCH   3  45
TORSDOF 20
ENDMDL
MODEL 4
REMARK VINA RESULT:    -6.037      4.025      6.942
REMARK INTER + INTRA:         -23.437
REMARK INTER:                 -17.680
REMARK INTRA:                  -5.757
REMARK UNBOUND:                -6.106
REMARK SMILES CCCCCC(=O)N[C@H](CC(=O)O)C(=O)N[C@H]1C(=O)N[C@H](CCCN=C(N)N)C(=O)N[C@@H]2CC[C@H](O)N(C2=O)[C@@H](CC(C)C)C(=O)N(C)[C@@H](Cc2ccccc2)C(=O)N[C@H](C(C)C)C(=O)O[C@@H]1C
REMARK SMILES IDX 30 1 31 2 29 3 32 5 35 6 37 7 34 8 38 9 33 10 39 11 36 12
REMARK SMILES IDX 40 14 41 15 42 16 43 17 44 18 45 19 46 20 47 21 48 22 49 23
REMARK SMILES IDX 50 24 51 25 52 26 56 27 53 28 55 29 54 30 57 31 58 32 59 33
REMARK SMILES IDX 60 35 61 36 62 37 63 38 64 39 65 40 66 41 67 42 68 43 21 45
REMARK SMILES IDX 20 46 18 47 19 48 17 50 16 52 14 53 15 54 9 56 8 57 6 58
REMARK SMILES IDX 7 59 5 61 4 62 3 63 2 64 1 65 10 66 11 67 12 68 13 69 22 71
REMARK SMILES IDX 23 72 24 73 25 74 26 75 27 76 28 77
REMARK H PARENT 31 4 36 13 59 34 20 49 16 55 8 60 13 70 27 78 27 79 28 80
REMARK H PARENT 28 81
REMARK Flexibility Score:  259.900
ROOT
ATOM      1  O   UNL     1       2.796  10.434   5.454  1.00  0.00    -0.273 OA
ATOM      2  N   UNL     1       0.592   9.952   5.078  1.00  0.00    -0.343 N 
ATOM      3  C   UNL     1       1.824  10.438   4.698  1.00  0.00     0.243 C 
ATOM      4  H   UNL     1      -0.181   9.958   4.424  1.00  0.00     0.164 HD
ENDROOT
BRANCH   2   5
ATOM      5  C   UNL     1       0.357   9.516   6.450  1.00  0.00     0.171 C 
ATOM      6  C   UNL     1      -2.046   8.770   7.890  1.00  0.00     0.214 C 
ATOM      7  N   UNL     1      -1.604  10.145   7.910  1.00  0.00    -0.303 N 
ATOM      8  C   UNL     1      -0.906   7.773   7.751  1.00  0.00     0.057 C 
ATOM      9  C   UNL     1      -0.494  10.578   7.203  1.00  0.00     0.247 C 
ATOM     10  C   UNL     1      -0.121   8.065   6.490  1.00  0.00     0.040 C 
ATOM     11  O   UNL     1      -0.173  11.773   7.154  1.00  0.00    -0.272 OA
BRANCH   6  12
ATOM     12  O   UNL     1      -2.958   8.626   6.826  1.00  0.00    -0.373 OA
ATOM     13  H   UNL     1      -2.706   9.281   6.141  1.00  0.00     0.213 HD
ENDBRANCH   6  12
BRANCH   7  14
ATOM     14  C   UNL     1      -2.474  11.118   8.603  1.00  0.00     0.177 C 
BRANCH  14  15
ATOM     15  C   UNL     1      -1.751  12.060   9.586  1.00  0.00     0.038 C 
BRANCH  15  16
ATOM     16  C   UNL     1      -1.734  11.719  11.093  1.00  0.00    -0.015 C 
ATOM     17  C   UNL     1      -2.096  10.256  11.366  1.00  0.00     0.007 C 
ATOM     18  C   UNL     1      -2.738  12.609  11.837  1.00  0.00     0.007 C 
ENDBRANCH  15  16
ENDBRANCH  14  15
BRANCH  14  19
ATOM     19  C   UNL     1      -3.682  11.517   7.688  1.00  0.00     0.245 C 
ATOM     20  O   UNL     1      -3.484  11.499   6.461  1.00  0.00    -0.272 OA
BRANCH  19  21
ATOM     21  N   UNL     1      -4.891  11.987   8.168  1.00  0.00    -0.332 N 
ATOM     22  C   UNL     1      -5.096  13.258   8.840  1.00  0.00     0.147 C 
BRANCH  21  23
ATOM     23  C   UNL     1      -6.091  11.120   7.997  1.00  0.00     0.178 C 
BRANCH  23  24
ATOM     24  C   UNL     1      -6.151  10.358   6.658  1.00  0.00     0.070 C 
BRANCH  24  25
ATOM     25  C   UNL     1      -7.294  10.690   5.728  1.00  0.00    -0.045 A 
ATOM     26  C   UNL     1      -8.565  10.135   5.924  1.00  0.00     0.004 A 
ATOM     27  C   UNL     1      -7.095  11.561   4.646  1.00  0.00     0.004 A 
ATOM     28  C   UNL     1      -9.612  10.434   5.050  1.00  0.00     0.000 A 
ATOM     29  C   UNL     1      -8.143  11.860   3.773  1.00  0.00     0.000 A 
ATOM     30  C   UNL     1      -9.400  11.294   3.975  1.00  0.00     0.000 A 
ENDBRANCH  24  25
ENDBRANCH  23  24
BRANCH  23  31
ATOM     31  C   UNL     1      -6.400  10.265   9.249  1.00  0.00     0.243 C 
ATOM     32  O   UNL     1      -5.545   9.686   9.914  1.00  0.00    -0.273 OA
ATOM     33  N   UNL     1      -7.753  10.052   9.453  1.00  0.00    -0.341 N 
ATOM     34  H   UNL     1      -8.418  10.558   8.863  1.00  0.00     0.164 HD
BRANCH  33  35
ATOM     35  C   UNL     1      -8.274   9.176  10.506  1.00  0.00     0.194 C 
BRANCH  35  36
ATOM     36  C   UNL     1      -8.837   7.823   9.985  1.00  0.00     0.017 C 
ATOM     37  C   UNL     1      -7.812   6.688  10.154  1.00  0.00     0.010 C 
ATOM     38  C   UNL     1      -9.237   7.864   8.505  1.00  0.00     0.010 C 
ENDBRANCH  35  36
BRANCH  35  39
ATOM     39  C   UNL     1      -9.279   9.901  11.444  1.00  0.00     0.329 C 
ATOM     40  O   UNL     1      -9.025  10.930  12.057  1.00  0.00    -0.250 OA
BRANCH  39  41
ATOM     41  O   UNL     1     -10.512   9.309  11.441  1.00  0.00    -0.458 OA
BRANCH  41  42
ATOM     42  C   UNL     1     -11.630  10.155  11.803  1.00  0.00     0.205 CG0
ATOM     43  C   UNL     1     -12.055  10.910  10.546  1.00  0.00     0.056 C 
ATOM     44  G   UNL     1     -11.183  11.101  12.936  1.00  0.00     0.000 G0
ENDBRANCH  41  42
ENDBRANCH  39  41
ENDBRANCH  35  39
ENDBRANCH  33  35
ENDBRANCH  23  31
ENDBRANCH  21  23
ENDBRANCH  19  21
ENDBRANCH  14  19
ENDBRANCH   7  14
ENDBRANCH   2   5
BRANCH   3  45
ATOM     45  C   UNL     1       1.907  10.965   3.259  1.00  0.00     0.171 C 
BRANCH  45  46
ATOM     46  N   UNL     1       3.328  11.020   2.940  1.00  0.00    -0.342 N 
ATOM     47  C   UNL     1       3.804  10.842   1.665  1.00  0.00     0.247 C 
ATOM     48  O   UNL     1       3.065  10.698   0.690  1.00  0.00    -0.273 OA
ATOM     49  H   UNL     1       3.971  11.193   3.710  1.00  0.00     0.164 HD
BRANCH  47  50
ATOM     50  C   UNL     1       5.333  10.808   1.542  1.00  0.00     0.212 CG0
ATOM     51  G   UNL     1       5.865  12.200   1.935  1.00  0.00     0.000 G0
BRANCH  50  52
ATOM     52  N   UNL     1       5.774   9.746   2.443  1.00  0.00    -0.339 N 
ATOM     53  C   UNL     1       7.095   9.468   2.694  1.00  0.00     0.243 C 
ATOM     54  O   UNL     1       8.014  10.059   2.134  1.00  0.00    -0.273 OA
ATOM     55  H   UNL     1       5.060   9.147   2.852  1.00  0.00     0.164 HD
BRANCH  53  56
ATOM     56  C   UNL     1       7.316   8.247   3.610  1.00  0.00     0.182 C 
BRANCH  56  57
ATOM     57  N   UNL     1       6.226   7.277   3.467  1.00  0.00    -0.344 N 
ATOM     58  C   UNL     1       6.455   5.933   3.298  1.00  0.00     0.220 C 
ATOM     59  O   UNL     1       7.581   5.461   3.184  1.00  0.00    -0.275 OA
ATOM     60  H   UNL     1       5.285   7.610   3.657  1.00  0.00     0.164 HD
BRANCH  58  61
ATOM     61  C   UNL     1       5.182   5.110   3.231  1.00  0.00     0.100 C 
BRANCH  61  62
ATOM     62  C   UNL     1       4.015   5.834   2.560  1.00  0.00     0.010 C 
BRANCH  62  63
ATOM     63  C   UNL     1       2.946   4.899   1.981  1.00  0.00     0.000 C 
BRANCH  63  64
ATOM     64  C   UNL     1       1.530   5.181   2.479  1.00  0.00    -0.003 C 
ATOM     65  C   UNL     1       1.375   4.817   3.949  1.00  0.00     0.004 C 
ENDBRANCH  63  64
ENDBRANCH  62  63
ENDBRANCH  61  62
ENDBRANCH  58  61
ENDBRANCH  56  57
BRANCH  56  66
ATOM     66  C   UNL     1       7.524   8.669   5.064  1.00  0.00     0.157 C 
BRANCH  66  67
ATOM     67  C   UNL     1       6.234   8.632   5.831  1.00  0.00     0.305 C 
ATOM     68  O   UNL     1       5.899   7.801   6.661  1.00  0.00    -0.252 OA
BRANCH  67  69
ATOM     69  O   UNL     1       5.441   9.684   5.551  1.00  0.00    -0.481 OA
ATOM     70  H   UNL     1       4.820   9.354   4.867  1.00  0.00     0.296 HD
ENDBRANCH  67  69
ENDBRANCH  66  67
ENDBRANCH  56  66
ENDBRANCH  53  56
ENDBRANCH  50  52
ENDBRANCH  47  50
ENDBRANCH  45  46
BRANCH  45  71
ATOM     71  C   UNL     1       1.252  12.347   3.158  1.00  0.00     0.037 C 
BRANCH  71  72
ATOM     72  C   UNL     1       0.180  12.398   2.067  1.00  0.00     0.026 C 
BRANCH  72  73
ATOM     73  C   UNL     1      -0.624  11.101   2.010  1.00  0.00     0.146 C 
BRANCH  73  74
ATOM     74  N   UNL     1      -1.976  11.392   2.475  1.00  0.00    -0.254 NA
ATOM     75  C   UNL     1      -2.566  10.508   3.193  1.00  0.00     0.185 C 
ATOM     76  N   UNL     1      -3.810  10.748   3.637  1.00  0.00    -0.370 N 
ATOM     77  N   UNL     1      -2.112   9.309   3.599  1.00  0.00    -0.370 N 
ATOM     78  H   UNL     1      -4.230  11.627   3.371  1.00  0.00     0.159 HD
ATOM     79  H   UNL     1      -4.384  10.051   4.078  1.00  0.00     0.159 HD
ATOM     80  H   UNL     1      -1.188   8.996   3.343  1.00  0.00     0.159 HD
ATOM     81  H   UNL     1      -2.623   8.747   4.259  1.00  0.00     0.159 HD
ENDBRANCH  73  74
ENDBRANCH  72  73
ENDBRANCH  71  72
ENDBRANCH  45  71
ENDBRANCH   3  45
TORSDOF 20
ENDMDL
MODEL 5
REMARK VINA RESULT:    -6.036      1.848      2.502
REMARK INTER + INTRA:         -23.432
REMARK INTER:                 -17.361
REMARK INTRA:                  -6.072
REMARK UNBOUND:                -6.106
REMARK SMILES CCCCCC(=O)N[C@H](CC(=O)O)C(=O)N[C@H]1C(=O)N[C@H](CCCN=C(N)N)C(=O)N[C@@H]2CC[C@H](O)N(C2=O)[C@@H](CC(C)C)C(=O)N(C)[C@@H](Cc2ccccc2)C(=O)N[C@H](C(C)C)C(=O)O[C@@H]1C
REMARK SMILES IDX 30 1 31 2 29 3 32 5 35 6 37 7 34 8 38 9 33 10 39 11 36 12
REMARK SMILES IDX 40 14 41 15 42 16 43 17 44 18 45 19 46 20 47 21 48 22 49 23
REMARK SMILES IDX 50 24 51 25 52 26 56 27 53 28 55 29 54 30 57 31 58 32 59 33
REMARK SMILES IDX 60 35 61 36 62 37 63 38 64 39 65 40 66 41 67 42 68 43 21 45
REMARK SMILES IDX 20 46 18 47 19 48 17 50 16 52 14 53 15 54 9 56 8 57 6 58
REMARK SMILES IDX 7 59 5 61 4 62 3 63 2 64 1 65 10 66 11 67 12 68 13 69 22 71
REMARK SMILES IDX 23 72 24 73 25 74 26 75 27 76 28 77
REMARK H PARENT 31 4 36 13 59 34 20 49 16 55 8 60 13 70 27 78 27 79 28 80
REMARK H PARENT 28 81
REMARK Flexibility Score:  259.900
ROOT
ATOM      1  O   UNL     1      -3.843   9.787   2.922  1.00  0.00    -0.273 OA
ATOM      2  N   UNL     1      -3.962  10.808   4.965  1.00  0.00    -0.343 N 
ATOM      3  C   UNL     1      -3.300  10.442   3.813  1.00  0.00     0.243 C 
ATOM      4  H   UNL     1      -3.488  11.360   5.670  1.00  0.00     0.164 HD
ENDROOT
BRANCH   2   5
ATOM      5  C   UNL     1      -5.313  10.327   5.231  1.00  0.00     0.171 C 
ATOM      6  C   UNL     1      -7.766  11.675   5.985  1.00  0.00     0.214 C 
ATOM      7  N   UNL     1      -6.885  11.174   7.015  1.00  0.00    -0.303 N 
ATOM      8  C   UNL     1      -7.712  10.864   4.700  1.00  0.00     0.057 C 
ATOM      9  C   UNL     1      -5.674  10.566   6.725  1.00  0.00     0.247 C 
ATOM     10  C   UNL     1      -6.293  10.833   4.174  1.00  0.00     0.040 C 
ATOM     11  O   UNL     1      -4.886  10.218   7.613  1.00  0.00    -0.272 OA
BRANCH   6  12
ATOM     12  O   UNL     1      -7.419  13.017   5.736  1.00  0.00    -0.373 OA
ATOM     13  H   UNL     1      -6.441  13.052   5.665  1.00  0.00     0.213 HD
ENDBRANCH   6  12
BRANCH   7  14
ATOM     14  C   UNL     1      -7.256  11.467   8.415  1.00  0.00     0.177 C 
BRANCH  14  15
ATOM     15  C   UNL     1      -6.918  12.891   8.899  1.00  0.00     0.038 C 
BRANCH  15  16
ATOM     16  C   UNL     1      -5.769  13.099   9.910  1.00  0.00    -0.015 C 
ATOM     17  C   UNL     1      -4.431  13.384   9.222  1.00  0.00     0.007 C 
ATOM     18  C   UNL     1      -5.606  11.842  10.775  1.00  0.00     0.007 C 
ENDBRANCH  15  16
ENDBRANCH  14  15
BRANCH  14  19
ATOM     19  C   UNL     1      -8.529  10.649   8.823  1.00  0.00     0.245 C 
ATOM     20  O   UNL     1      -8.494   9.423   8.624  1.00  0.00    -0.272 OA
BRANCH  19  21
ATOM     21  N   UNL     1      -9.703  11.224   9.277  1.00  0.00    -0.332 N 
ATOM     22  C   UNL     1     -10.617  12.018   8.475  1.00  0.00     0.147 C 
BRANCH  21  23
ATOM     23  C   UNL     1     -10.066  11.029  10.708  1.00  0.00     0.178 C 
BRANCH  23  24
ATOM     24  C   UNL     1     -10.117  12.325  11.543  1.00  0.00     0.070 C 
BRANCH  24  25
ATOM     25  C   UNL     1      -8.971  12.576  12.495  1.00  0.00    -0.045 A 
ATOM     26  C   UNL     1      -8.357  13.833  12.564  1.00  0.00     0.004 A 
ATOM     27  C   UNL     1      -8.502  11.545  13.325  1.00  0.00     0.004 A 
ATOM     28  C   UNL     1      -7.287  14.051  13.435  1.00  0.00     0.000 A 
ATOM     29  C   UNL     1      -7.434  11.766  14.195  1.00  0.00     0.000 A 
ATOM     30  C   UNL     1      -6.825  13.018  14.248  1.00  0.00     0.000 A 
ENDBRANCH  24  25
ENDBRANCH  23  24
BRANCH  23  31
ATOM     31  C   UNL     1     -11.274  10.082  10.901  1.00  0.00     0.243 C 
ATOM     32  O   UNL     1     -11.405   9.009  10.317  1.00  0.00    -0.273 OA
ATOM     33  N   UNL     1     -12.295  10.634  11.656  1.00  0.00    -0.341 N 
ATOM     34  H   UNL     1     -12.128  11.533  12.113  1.00  0.00     0.164 HD
BRANCH  33  35
ATOM     35  C   UNL     1     -13.581   9.965  11.870  1.00  0.00     0.194 C 
BRANCH  35  36
ATOM     36  C   UNL     1     -14.734  10.507  10.977  1.00  0.00     0.017 C 
ATOM     37  C   UNL     1     -14.649  12.035  10.820  1.00  0.00     0.010 C 
ATOM     38  C   UNL     1     -16.128  10.178  11.526  1.00  0.00     0.010 C 
ENDBRANCH  35  36
BRANCH  35  39
ATOM     39  C   UNL     1     -13.985   9.911  13.370  1.00  0.00     0.329 C 
ATOM     40  O   UNL     1     -14.487   8.933  13.910  1.00  0.00    -0.250 OA
BRANCH  39  41
ATOM     41  O   UNL     1     -13.637  11.050  14.043  1.00  0.00    -0.458 OA
BRANCH  41  42
ATOM     42  C   UNL     1     -14.698  11.713  14.771  1.00  0.00     0.205 CG0
ATOM     43  C   UNL     1     -14.359  11.616  16.257  1.00  0.00     0.056 C 
ATOM     44  G   UNL     1     -16.035  11.028  14.425  1.00  0.00     0.000 G0
ENDBRANCH  41  42
ENDBRANCH  39  41
ENDBRANCH  35  39
ENDBRANCH  33  35
ENDBRANCH  23  31
ENDBRANCH  21  23
ENDBRANCH  19  21
ENDBRANCH  14  19
ENDBRANCH   7  14
ENDBRANCH   2   5
BRANCH   3  45
ATOM     45  C   UNL     1      -1.848  10.925   3.707  1.00  0.00     0.171 C 
BRANCH  45  46
ATOM     46  N   UNL     1      -1.490  10.794   2.301  1.00  0.00    -0.342 N 
ATOM     47  C   UNL     1      -1.120  11.869   1.532  1.00  0.00     0.247 C 
ATOM     48  O   UNL     1      -0.992  13.005   1.989  1.00  0.00    -0.273 OA
ATOM     49  H   UNL     1      -1.528   9.860   1.896  1.00  0.00     0.164 HD
BRANCH  47  50
ATOM     50  C   UNL     1      -0.901  11.559   0.044  1.00  0.00     0.212 CG0
ATOM     51  G   UNL     1      -1.137  12.862  -0.744  1.00  0.00     0.000 G0
BRANCH  50  52
ATOM     52  N   UNL     1       0.471  11.066  -0.053  1.00  0.00    -0.339 N 
ATOM     53  C   UNL     1       0.865  10.099  -0.946  1.00  0.00     0.243 C 
ATOM     54  O   UNL     1       0.078   9.534  -1.700  1.00  0.00    -0.273 OA
ATOM     55  H   UNL     1       1.148  11.416   0.622  1.00  0.00     0.164 HD
BRANCH  53  56
ATOM     56  C   UNL     1       2.342   9.679  -0.804  1.00  0.00     0.182 C 
BRANCH  56  57
ATOM     57  N   UNL     1       2.599   9.096   0.516  1.00  0.00    -0.344 N 
ATOM     58  C   UNL     1       2.081   7.882   0.898  1.00  0.00     0.220 C 
ATOM     59  O   UNL     1       1.312   7.238   0.193  1.00  0.00    -0.275 OA
ATOM     60  H   UNL     1       3.309   9.545   1.088  1.00  0.00     0.164 HD
BRANCH  58  61
ATOM     61  C   UNL     1       2.525   7.447   2.282  1.00  0.00     0.100 C 
BRANCH  61  62
ATOM     62  C   UNL     1       1.717   6.280   2.850  1.00  0.00     0.010 C 
BRANCH  62  63
ATOM     63  C   UNL     1       2.526   4.992   3.044  1.00  0.00     0.000 C 
BRANCH  63  64
ATOM     64  C   UNL     1       2.802   4.225   1.752  1.00  0.00    -0.003 C 
ATOM     65  C   UNL     1       2.002   2.932   1.691  1.00  0.00     0.004 C 
ENDBRANCH  63  64
ENDBRANCH  62  63
ENDBRANCH  61  62
ENDBRANCH  58  61
ENDBRANCH  56  57
BRANCH  56  66
ATOM     66  C   UNL     1       3.286  10.839  -1.116  1.00  0.00     0.157 C 
BRANCH  66  67
ATOM     67  C   UNL     1       3.956  11.344   0.130  1.00  0.00     0.305 C 
ATOM     68  O   UNL     1       5.123  11.182   0.451  1.00  0.00    -0.252 OA
BRANCH  67  69
ATOM     69  O   UNL     1       3.128  12.082   0.893  1.00  0.00    -0.481 OA
ATOM     70  H   UNL     1       2.261  11.628   0.832  1.00  0.00     0.296 HD
ENDBRANCH  67  69
ENDBRANCH  66  67
ENDBRANCH  56  66
ENDBRANCH  53  56
ENDBRANCH  50  52
ENDBRANCH  47  50
ENDBRANCH  45  46
BRANCH  45  71
ATOM     71  C   UNL     1      -0.937  10.079   4.604  1.00  0.00     0.037 C 
BRANCH  71  72
ATOM     72  C   UNL     1      -1.076   8.582   4.316  1.00  0.00     0.026 C 
BRANCH  72  73
ATOM     73  C   UNL     1      -1.031   7.758   5.600  1.00  0.00     0.146 C 
BRANCH  73  74
ATOM     74  N   UNL     1      -2.104   8.228   6.471  1.00  0.00    -0.254 NA
ATOM     75  C   UNL     1      -2.262   7.639   7.599  1.00  0.00     0.185 C 
ATOM     76  N   UNL     1      -3.240   8.051   8.422  1.00  0.00    -0.370 N 
ATOM     77  N   UNL     1      -1.565   6.616   8.122  1.00  0.00    -0.370 N 
ATOM     78  H   UNL     1      -3.818   8.814   8.101  1.00  0.00     0.159 HD
ATOM     79  H   UNL     1      -3.515   7.550   9.248  1.00  0.00     0.159 HD
ATOM     80  H   UNL     1      -0.796   6.206   7.615  1.00  0.00     0.159 HD
ATOM     81  H   UNL     1      -1.708   6.310   9.071  1.00  0.00     0.159 HD
ENDBRANCH  73  74
ENDBRANCH  72  73
ENDBRANCH  71  72
ENDBRANCH  45  71
ENDBRANCH   3  45
TORSDOF 20
ENDMDL
MODEL 6
REMARK VINA RESULT:    -5.962      8.050     15.857
REMARK INTER + INTRA:         -23.222
REMARK INTER:                 -17.007
REMARK INTRA:                  -6.215
REMARK UNBOUND:                -6.106
REMARK SMILES CCCCCC(=O)N[C@H](CC(=O)O)C(=O)N[C@H]1C(=O)N[C@H](CCCN=C(N)N)C(=O)N[C@@H]2CC[C@H](O)N(C2=O)[C@@H](CC(C)C)C(=O)N(C)[C@@H](Cc2ccccc2)C(=O)N[C@H](C(C)C)C(=O)O[C@@H]1C
REMARK SMILES IDX 30 1 31 2 29 3 32 5 35 6 37 7 34 8 38 9 33 10 39 11 36 12
REMARK SMILES IDX 40 14 41 15 42 16 43 17 44 18 45 19 46 20 47 21 48 22 49 23
REMARK SMILES IDX 50 24 51 25 52 26 56 27 53 28 55 29 54 30 57 31 58 32 59 33
REMARK SMILES IDX 60 35 61 36 62 37 63 38 64 39 65 40 66 41 67 42 68 43 21 45
REMARK SMILES IDX 20 46 18 47 19 48 17 50 16 52 14 53 15 54 9 56 8 57 6 58
REMARK SMILES IDX 7 59 5 61 4 62 3 63 2 64 1 65 10 66 11 67 12 68 13 69 22 71
REMARK SMILES IDX 23 72 24 73 25 74 26 75 27 76 28 77
REMARK H PARENT 31 4 36 13 59 34 20 49 16 55 8 60 13 70 27 78 27 79 28 80
REMARK H PARENT 28 81
REMARK Flexibility Score:  259.900
ROOT
ATOM      1  O   UNL     1      -1.020   3.865   8.756  1.00  0.00    -0.273 OA
ATOM      2  N   UNL     1      -1.386   6.117   8.914  1.00  0.00    -0.343 N 
ATOM      3  C   UNL     1      -1.325   4.844   9.438  1.00  0.00     0.243 C 
ATOM      4  H   UNL     1      -1.626   6.901   9.508  1.00  0.00     0.164 HD
ENDROOT
BRANCH   2   5
ATOM      5  C   UNL     1      -1.204   6.341   7.484  1.00  0.00     0.171 C 
ATOM      6  C   UNL     1       0.019   4.755   5.388  1.00  0.00     0.214 C 
ATOM      7  N   UNL     1       0.820   5.715   6.112  1.00  0.00    -0.303 N 
ATOM      8  C   UNL     1      -1.445   5.151   5.281  1.00  0.00     0.057 C 
ATOM      9  C   UNL     1       0.311   6.467   7.158  1.00  0.00     0.247 C 
ATOM     10  C   UNL     1      -2.025   5.345   6.665  1.00  0.00     0.040 C 
ATOM     11  O   UNL     1       1.025   7.224   7.829  1.00  0.00    -0.272 OA
BRANCH   6  12
ATOM     12  O   UNL     1       0.147   3.511   6.037  1.00  0.00    -0.373 OA
ATOM     13  H   UNL     1       1.106   3.356   6.175  1.00  0.00     0.213 HD
ENDBRANCH   6  12
BRANCH   7  14
ATOM     14  C   UNL     1       2.262   5.763   5.791  1.00  0.00     0.177 C 
BRANCH  14  15
ATOM     15  C   UNL     1       2.869   4.435   5.296  1.00  0.00     0.038 C 
BRANCH  15  16
ATOM     16  C   UNL     1       4.381   4.176   5.475  1.00  0.00    -0.015 C 
ATOM     17  C   UNL     1       5.242   5.189   4.713  1.00  0.00     0.007 C 
ATOM     18  C   UNL     1       4.731   2.771   4.967  1.00  0.00     0.007 C 
ENDBRANCH  15  16
ENDBRANCH  14  15
BRANCH  14  19
ATOM     19  C   UNL     1       2.657   7.189   5.273  1.00  0.00     0.245 C 
ATOM     20  O   UNL     1       3.310   7.905   6.050  1.00  0.00    -0.272 OA
BRANCH  19  21
ATOM     21  N   UNL     1       2.227   7.718   4.069  1.00  0.00    -0.332 N 
ATOM     22  C   UNL     1       0.910   8.274   3.815  1.00  0.00     0.147 C 
BRANCH  21  23
ATOM     23  C   UNL     1       3.182   7.714   2.926  1.00  0.00     0.178 C 
BRANCH  23  24
ATOM     24  C   UNL     1       2.656   7.031   1.647  1.00  0.00     0.070 C 
BRANCH  24  25
ATOM     25  C   UNL     1       2.526   5.526   1.674  1.00  0.00    -0.045 A 
ATOM     26  C   UNL     1       3.646   4.706   1.489  1.00  0.00     0.004 A 
ATOM     27  C   UNL     1       1.274   4.927   1.881  1.00  0.00     0.004 A 
ATOM     28  C   UNL     1       3.515   3.315   1.498  1.00  0.00     0.000 A 
ATOM     29  C   UNL     1       1.145   3.538   1.891  1.00  0.00     0.000 A 
ATOM     30  C   UNL     1       2.265   2.733   1.696  1.00  0.00     0.000 A 
ENDBRANCH  24  25
ENDBRANCH  23  24
BRANCH  23  31
ATOM     31  C   UNL     1       3.859   9.087   2.701  1.00  0.00     0.243 C 
ATOM     32  O   UNL     1       4.521   9.675   3.553  1.00  0.00    -0.273 OA
ATOM     33  N   UNL     1       3.501   9.690   1.507  1.00  0.00    -0.341 N 
ATOM     34  H   UNL     1       2.944   9.152   0.839  1.00  0.00     0.164 HD
BRANCH  33  35
ATOM     35  C   UNL     1       3.927  11.043   1.137  1.00  0.00     0.194 C 
BRANCH  35  36
ATOM     36  C   UNL     1       2.809  12.117   1.262  1.00  0.00     0.017 C 
ATOM     37  C   UNL     1       3.062  13.051   2.458  1.00  0.00     0.010 C 
ATOM     38  C   UNL     1       1.410  11.514   1.438  1.00  0.00     0.010 C 
ENDBRANCH  35  36
BRANCH  35  39
ATOM     39  C   UNL     1       4.626  11.091  -0.251  1.00  0.00     0.329 C 
ATOM     40  O   UNL     1       4.071  10.817  -1.308  1.00  0.00    -0.250 OA
BRANCH  39  41
ATOM     41  O   UNL     1       5.908  11.559  -0.171  1.00  0.00    -0.458 OA
BRANCH  41  42
ATOM     42  C   UNL     1       6.810  11.141  -1.223  1.00  0.00     0.205 CG0
ATOM     43  C   UNL     1       8.149  10.809  -0.569  1.00  0.00     0.056 C 
ATOM     44  G   UNL     1       6.923  12.280  -2.255  1.00  0.00     0.000 G0
ENDBRANCH  41  42
ENDBRANCH  39  41
ENDBRANCH  35  39
ENDBRANCH  33  35
ENDBRANCH  23  31
ENDBRANCH  21  23
ENDBRANCH  19  21
ENDBRANCH  14  19
ENDBRANCH   7  14
ENDBRANCH   2   5
BRANCH   3  45
ATOM     45  C   UNL     1      -1.642   4.735  10.936  1.00  0.00     0.171 C 
BRANCH  45  46
ATOM     46  N   UNL     1      -2.036   3.349  11.154  1.00  0.00    -0.342 N 
ATOM     47  C   UNL     1      -1.844   2.709  12.353  1.00  0.00     0.247 C 
ATOM     48  O   UNL     1      -1.394   3.277  13.349  1.00  0.00    -0.273 OA
ATOM     49  H   UNL     1      -2.465   2.858  10.372  1.00  0.00     0.164 HD
BRANCH  47  50
ATOM     50  C   UNL     1      -2.206   1.217  12.359  1.00  0.00     0.212 CG0
ATOM     51  G   UNL     1      -3.718   1.105  12.639  1.00  0.00     0.000 G0
BRANCH  50  52
ATOM     52  N   UNL     1      -1.825   0.719  11.040  1.00  0.00    -0.339 N 
ATOM     53  C   UNL     1      -2.728   0.233  10.126  1.00  0.00     0.243 C 
ATOM     54  O   UNL     1      -3.928   0.132  10.370  1.00  0.00    -0.273 OA
ATOM     55  H   UNL     1      -0.832   0.673  10.821  1.00  0.00     0.164 HD
BRANCH  53  56
ATOM     56  C   UNL     1      -2.083  -0.317   8.838  1.00  0.00     0.182 C 
BRANCH  56  57
ATOM     57  N   UNL     1      -2.702  -1.585   8.440  1.00  0.00    -0.344 N 
ATOM     58  C   UNL     1      -2.815  -1.968   7.125  1.00  0.00     0.220 C 
ATOM     59  O   UNL     1      -2.476  -1.247   6.193  1.00  0.00    -0.275 OA
ATOM     60  H   UNL     1      -2.902  -2.252   9.180  1.00  0.00     0.164 HD
BRANCH  58  61
ATOM     61  C   UNL     1      -3.434  -3.342   6.950  1.00  0.00     0.100 C 
BRANCH  61  62
ATOM     62  C   UNL     1      -4.682  -3.348   6.068  1.00  0.00     0.010 C 
BRANCH  62  63
ATOM     63  C   UNL     1      -6.002  -3.286   6.847  1.00  0.00     0.000 C 
BRANCH  63  64
ATOM     64  C   UNL     1      -6.817  -4.578   6.805  1.00  0.00    -0.003 C 
ATOM     65  C   UNL     1      -6.621  -5.315   5.488  1.00  0.00     0.004 C 
ENDBRANCH  63  64
ENDBRANCH  62  63
ENDBRANCH  61  62
ENDBRANCH  58  61
ENDBRANCH  56  57
BRANCH  56  66
ATOM     66  C   UNL     1      -0.566  -0.434   8.978  1.00  0.00     0.157 C 
BRANCH  66  67
ATOM     67  C   UNL     1       0.140   0.539   8.078  1.00  0.00     0.305 C 
ATOM     68  O   UNL     1       1.334   0.797   8.071  1.00  0.00    -0.252 OA
BRANCH  67  69
ATOM     69  O   UNL     1      -0.693   1.108   7.186  1.00  0.00    -0.481 OA
ATOM     70  H   UNL     1      -0.560   2.073   7.299  1.00  0.00     0.296 HD
ENDBRANCH  67  69
ENDBRANCH  66  67
ENDBRANCH  56  66
ENDBRANCH  53  56
ENDBRANCH  50  52
ENDBRANCH  47  50
ENDBRANCH  45  46
BRANCH  45  71
ATOM     71  C   UNL     1      -2.762   5.708  11.317  1.00  0.00     0.037 C 
BRANCH  71  72
ATOM     72  C   UNL     1      -4.104   5.316  10.692  1.00  0.00     0.026 C 
BRANCH  72  73
ATOM     73  C   UNL     1      -5.076   4.782  11.742  1.00  0.00     0.146 C 
BRANCH  73  74
ATOM     74  N   UNL     1      -5.290   3.363  11.472  1.00  0.00    -0.254 NA
ATOM     75  C   UNL     1      -5.788   2.644  12.409  1.00  0.00     0.185 C 
ATOM     76  N   UNL     1      -5.998   1.335  12.190  1.00  0.00    -0.370 N 
ATOM     77  N   UNL     1      -6.156   3.008  13.649  1.00  0.00    -0.370 N 
ATOM     78  H   UNL     1      -5.740   0.976  11.282  1.00  0.00     0.159 HD
ATOM     79  H   UNL     1      -6.245   0.686  12.915  1.00  0.00     0.159 HD
ATOM     80  H   UNL     1      -6.059   3.965  13.953  1.00  0.00     0.159 HD
ATOM     81  H   UNL     1      -6.645   2.377  14.262  1.00  0.00     0.159 HD
ENDBRANCH  73  74
ENDBRANCH  72  73
ENDBRANCH  71  72
ENDBRANCH  45  71
ENDBRANCH   3  45
TORSDOF 20
ENDMDL
MODEL 7
REMARK VINA RESULT:    -5.951      6.838     15.665
REMARK INTER + INTRA:         -23.189
REMARK INTER:                 -17.064
REMARK INTRA:                  -6.125
REMARK UNBOUND:                -6.106
REMARK SMILES CCCCCC(=O)N[C@H](CC(=O)O)C(=O)N[C@H]1C(=O)N[C@H](CCCN=C(N)N)C(=O)N[C@@H]2CC[C@H](O)N(C2=O)[C@@H](CC(C)C)C(=O)N(C)[C@@H](Cc2ccccc2)C(=O)N[C@H](C(C)C)C(=O)O[C@@H]1C
REMARK SMILES IDX 30 1 31 2 29 3 32 5 35 6 37 7 34 8 38 9 33 10 39 11 36 12
REMARK SMILES IDX 40 14 41 15 42 16 43 17 44 18 45 19 46 20 47 21 48 22 49 23
REMARK SMILES IDX 50 24 51 25 52 26 56 27 53 28 55 29 54 30 57 31 58 32 59 33
REMARK SMILES IDX 60 35 61 36 62 37 63 38 64 39 65 40 66 41 67 42 68 43 21 45
REMARK SMILES IDX 20 46 18 47 19 48 17 50 16 52 14 53 15 54 9 56 8 57 6 58
REMARK SMILES IDX 7 59 5 61 4 62 3 63 2 64 1 65 10 66 11 67 12 68 13 69 22 71
REMARK SMILES IDX 23 72 24 73 25 74 26 75 27 76 28 77
REMARK H PARENT 31 4 36 13 59 34 20 49 16 55 8 60 13 70 27 78 27 79 28 80
REMARK H PARENT 28 81
REMARK Flexibility Score:  259.900
ROOT
ATOM      1  O   UNL     1       0.128   6.485   8.317  1.00  0.00    -0.273 OA
ATOM      2  N   UNL     1      -1.324   5.864   6.663  1.00  0.00    -0.343 N 
ATOM      3  C   UNL     1      -1.003   6.140   7.975  1.00  0.00     0.243 C 
ATOM      4  H   UNL     1      -2.269   5.598   6.416  1.00  0.00     0.164 HD
ENDROOT
BRANCH   2   5
ATOM      5  C   UNL     1      -0.292   5.855   5.632  1.00  0.00     0.171 C 
ATOM      6  C   UNL     1       2.447   6.806   5.587  1.00  0.00     0.214 C 
ATOM      7  N   UNL     1       1.382   7.687   5.169  1.00  0.00    -0.303 N 
ATOM      8  C   UNL     1       2.150   5.337   5.326  1.00  0.00     0.057 C 
ATOM      9  C   UNL     1       0.049   7.315   5.214  1.00  0.00     0.247 C 
ATOM     10  C   UNL     1       0.868   4.942   6.026  1.00  0.00     0.040 C 
ATOM     11  O   UNL     1      -0.863   8.105   4.936  1.00  0.00    -0.272 OA
BRANCH   6  12
ATOM     12  O   UNL     1       2.674   7.025   6.960  1.00  0.00    -0.373 OA
ATOM     13  H   UNL     1       1.886   7.493   7.310  1.00  0.00     0.213 HD
ENDBRANCH   6  12
BRANCH   7  14
ATOM     14  C   UNL     1       1.758   9.075   4.823  1.00  0.00     0.177 C 
BRANCH  14  15
ATOM     15  C   UNL     1       2.173   9.959   6.015  1.00  0.00     0.038 C 
BRANCH  15  16
ATOM     16  C   UNL     1       1.107  10.809   6.741  1.00  0.00    -0.015 C 
ATOM     17  C   UNL     1       0.336  10.005   7.792  1.00  0.00     0.007 C 
ATOM     18  C   UNL     1       0.100  11.358   5.722  1.00  0.00     0.007 C 
ENDBRANCH  15  16
ENDBRANCH  14  15
BRANCH  14  19
ATOM     19  C   UNL     1       2.394   9.125   3.392  1.00  0.00     0.245 C 
ATOM     20  O   UNL     1       3.629   9.246   3.333  1.00  0.00    -0.272 OA
BRANCH  19  21
ATOM     21  N   UNL     1       1.658   9.154   2.221  1.00  0.00    -0.332 N 
ATOM     22  C   UNL     1       0.374   9.811   2.049  1.00  0.00     0.147 C 
BRANCH  21  23
ATOM     23  C   UNL     1       2.211   8.449   1.032  1.00  0.00     0.178 C 
BRANCH  23  24
ATOM     24  C   UNL     1       1.539   7.097   0.713  1.00  0.00     0.070 C 
BRANCH  24  25
ATOM     25  C   UNL     1       2.160   5.860   1.319  1.00  0.00    -0.045 A 
ATOM     26  C   UNL     1       3.513   5.839   1.680  1.00  0.00     0.004 A 
ATOM     27  C   UNL     1       1.385   4.708   1.523  1.00  0.00     0.004 A 
ATOM     28  C   UNL     1       4.083   4.686   2.223  1.00  0.00     0.000 A 
ATOM     29  C   UNL     1       1.956   3.556   2.067  1.00  0.00     0.000 A 
ATOM     30  C   UNL     1       3.305   3.545   2.414  1.00  0.00     0.000 A 
ENDBRANCH  24  25
ENDBRANCH  23  24
BRANCH  23  31
ATOM     31  C   UNL     1       2.410   9.382  -0.186  1.00  0.00     0.243 C 
ATOM     32  O   UNL     1       3.095  10.401  -0.166  1.00  0.00    -0.273 OA
ATOM     33  N   UNL     1       1.594   9.069  -1.260  1.00  0.00    -0.341 N 
ATOM     34  H   UNL     1       1.041   8.210  -1.216  1.00  0.00     0.164 HD
BRANCH  33  35
ATOM     35  C   UNL     1       1.526   9.886  -2.475  1.00  0.00     0.194 C 
BRANCH  35  36
ATOM     36  C   UNL     1       0.430  10.989  -2.438  1.00  0.00     0.017 C 
ATOM     37  C   UNL     1      -0.907  10.432  -1.919  1.00  0.00     0.010 C 
ATOM     38  C   UNL     1       0.163  11.621  -3.810  1.00  0.00     0.010 C 
ENDBRANCH  35  36
BRANCH  35  39
ATOM     39  C   UNL     1       1.442   9.028  -3.769  1.00  0.00     0.329 C 
ATOM     40  O   UNL     1       0.579   8.183  -3.976  1.00  0.00    -0.250 OA
BRANCH  39  41
ATOM     41  O   UNL     1       2.388   9.382  -4.690  1.00  0.00    -0.458 OA
BRANCH  41  42
ATOM     42  C   UNL     1       2.585   8.464  -5.792  1.00  0.00     0.205 CG0
ATOM     43  C   UNL     1       3.771   7.571  -5.432  1.00  0.00     0.056 C 
ATOM     44  G   UNL     1       2.831   9.282  -7.075  1.00  0.00     0.000 G0
ENDBRANCH  41  42
ENDBRANCH  39  41
ENDBRANCH  35  39
ENDBRANCH  33  35
ENDBRANCH  23  31
ENDBRANCH  21  23
ENDBRANCH  19  21
ENDBRANCH  14  19
ENDBRANCH   7  14
ENDBRANCH   2   5
BRANCH   3  45
ATOM     45  C   UNL     1      -2.159   6.008   8.975  1.00  0.00     0.171 C 
BRANCH  45  46
ATOM     46  N   UNL     1      -1.691   5.082   9.998  1.00  0.00    -0.342 N 
ATOM     47  C   UNL     1      -1.478   5.467  11.298  1.00  0.00     0.247 C 
ATOM     48  O   UNL     1      -1.735   6.598  11.711  1.00  0.00    -0.273 OA
ATOM     49  H   UNL     1      -1.520   4.120   9.712  1.00  0.00     0.164 HD
BRANCH  47  50
ATOM     50  C   UNL     1      -0.867   4.388  12.203  1.00  0.00     0.212 CG0
ATOM     51  G   UNL     1      -0.998   4.872  13.661  1.00  0.00     0.000 G0
BRANCH  50  52
ATOM     52  N   UNL     1      -1.628   3.172  11.929  1.00  0.00    -0.339 N 
ATOM     53  C   UNL     1      -2.094   2.334  12.912  1.00  0.00     0.243 C 
ATOM     54  O   UNL     1      -1.859   2.517  14.104  1.00  0.00    -0.273 OA
ATOM     55  H   UNL     1      -1.760   2.907  10.955  1.00  0.00     0.164 HD
BRANCH  53  56
ATOM     56  C   UNL     1      -2.795   1.068  12.378  1.00  0.00     0.182 C 
BRANCH  56  57
ATOM     57  N   UNL     1      -1.974   0.401  11.363  1.00  0.00    -0.344 N 
ATOM     58  C   UNL     1      -0.834  -0.298  11.681  1.00  0.00     0.220 C 
ATOM     59  O   UNL     1      -0.385  -0.351  12.820  1.00  0.00    -0.275 OA
ATOM     60  H   UNL     1      -2.363   0.334  10.427  1.00  0.00     0.164 HD
BRANCH  58  61
ATOM     61  C   UNL     1      -0.178  -0.955  10.481  1.00  0.00     0.100 C 
BRANCH  61  62
ATOM     62  C   UNL     1      -0.035  -0.029   9.273  1.00  0.00     0.010 C 
BRANCH  62  63
ATOM     63  C   UNL     1       0.746   1.260   9.558  1.00  0.00     0.000 C 
BRANCH  63  64
ATOM     64  C   UNL     1       0.321   2.452   8.703  1.00  0.00    -0.003 C 
ATOM     65  C   UNL     1      -1.033   2.214   8.052  1.00  0.00     0.004 C 
ENDBRANCH  63  64
ENDBRANCH  62  63
ENDBRANCH  61  62
ENDBRANCH  58  61
ENDBRANCH  56  57
BRANCH  56  66
ATOM     66  C   UNL     1      -4.201   1.379  11.869  1.00  0.00     0.157 C 
BRANCH  66  67
ATOM     67  C   UNL     1      -5.185   1.454  13.001  1.00  0.00     0.305 C 
ATOM     68  O   UNL     1      -6.360   1.782  12.930  1.00  0.00    -0.252 OA
BRANCH  67  69
ATOM     69  O   UNL     1      -4.649   1.059  14.172  1.00  0.00    -0.481 OA
ATOM     70  H   UNL     1      -4.899   0.115  14.255  1.00  0.00     0.296 HD
ENDBRANCH  67  69
ENDBRANCH  66  67
ENDBRANCH  56  66
ENDBRANCH  53  56
ENDBRANCH  50  52
ENDBRANCH  47  50
ENDBRANCH  45  46
BRANCH  45  71
ATOM     71  C   UNL     1      -3.417   5.486   8.272  1.00  0.00     0.037 C 
BRANCH  71  72
ATOM     72  C   UNL     1      -4.188   4.487   9.139  1.00  0.00     0.026 C 
BRANCH  72  73
ATOM     73  C   UNL     1      -5.149   5.196  10.091  1.00  0.00     0.146 C 
BRANCH  73  74
ATOM     74  N   UNL     1      -6.068   4.195  10.625  1.00  0.00    -0.254 NA
ATOM     75  C   UNL     1      -7.243   4.581  10.963  1.00  0.00     0.185 C 
ATOM     76  N   UNL     1      -8.111   3.683  11.456  1.00  0.00    -0.370 N 
ATOM     77  N   UNL     1      -7.779   5.812  10.899  1.00  0.00    -0.370 N 
ATOM     78  H   UNL     1      -7.785   2.732  11.545  1.00  0.00     0.159 HD
ATOM     79  H   UNL     1      -8.990   3.935  11.874  1.00  0.00     0.159 HD
ATOM     80  H   UNL     1      -7.242   6.589  10.544  1.00  0.00     0.159 HD
ATOM     81  H   UNL     1      -8.755   5.974  11.086  1.00  0.00     0.159 HD
ENDBRANCH  73  74
ENDBRANCH  72  73
ENDBRANCH  71  72
ENDBRANCH  45  71
ENDBRANCH   3  45
TORSDOF 20
ENDMDL
MODEL 8
REMARK VINA RESULT:    -5.894      3.604      6.749
REMARK INTER + INTRA:         -23.026
REMARK INTER:                 -17.165
REMARK INTRA:                  -5.861
REMARK UNBOUND:                -6.106
REMARK SMILES CCCCCC(=O)N[C@H](CC(=O)O)C(=O)N[C@H]1C(=O)N[C@H](CCCN=C(N)N)C(=O)N[C@@H]2CC[C@H](O)N(C2=O)[C@@H](CC(C)C)C(=O)N(C)[C@@H](Cc2ccccc2)C(=O)N[C@H](C(C)C)C(=O)O[C@@H]1C
REMARK SMILES IDX 30 1 31 2 29 3 32 5 35 6 37 7 34 8 38 9 33 10 39 11 36 12
REMARK SMILES IDX 40 14 41 15 42 16 43 17 44 18 45 19 46 20 47 21 48 22 49 23
REMARK SMILES IDX 50 24 51 25 52 26 56 27 53 28 55 29 54 30 57 31 58 32 59 33
REMARK SMILES IDX 60 35 61 36 62 37 63 38 64 39 65 40 66 41 67 42 68 43 21 45
REMARK SMILES IDX 20 46 18 47 19 48 17 50 16 52 14 53 15 54 9 56 8 57 6 58
REMARK SMILES IDX 7 59 5 61 4 62 3 63 2 64 1 65 10 66 11 67 12 68 13 69 22 71
REMARK SMILES IDX 23 72 24 73 25 74 26 75 27 76 28 77
REMARK H PARENT 31 4 36 13 59 34 20 49 16 55 8 60 13 70 27 78 27 79 28 80
REMARK H PARENT 28 81
REMARK Flexibility Score:  259.900
ROOT
ATOM      1  O   UNL     1       2.030  10.698   4.882  1.00  0.00    -0.273 OA
ATOM      2  N   UNL     1       1.720   9.665   6.898  1.00  0.00    -0.343 N 
ATOM      3  C   UNL     1       2.268   9.754   5.636  1.00  0.00     0.243 C 
ATOM      4  H   UNL     1       1.950   8.881   7.497  1.00  0.00     0.164 HD
ENDROOT
BRANCH   2   5
ATOM      5  C   UNL     1       0.732  10.638   7.350  1.00  0.00     0.171 C 
ATOM      6  C   UNL     1      -1.240  10.594   9.474  1.00  0.00     0.214 C 
ATOM      7  N   UNL     1      -1.608  10.138   8.154  1.00  0.00    -0.303 N 
ATOM      8  C   UNL     1      -0.163  11.667   9.462  1.00  0.00     0.057 C 
ATOM      9  C   UNL     1      -0.702  10.085   7.107  1.00  0.00     0.247 C 
ATOM     10  C   UNL     1       1.067  11.151   8.750  1.00  0.00     0.040 C 
ATOM     11  O   UNL     1      -1.001   9.613   6.003  1.00  0.00    -0.272 OA
BRANCH   6  12
ATOM     12  O   UNL     1      -0.810   9.473  10.212  1.00  0.00    -0.373 OA
ATOM     13  H   UNL     1       0.159   9.397  10.080  1.00  0.00     0.213 HD
ENDBRANCH   6  12
BRANCH   7  14
ATOM     14  C   UNL     1      -2.969   9.584   7.991  1.00  0.00     0.177 C 
BRANCH  14  15
ATOM     15  C   UNL     1      -3.029   8.080   7.663  1.00  0.00     0.038 C 
BRANCH  15  16
ATOM     16  C   UNL     1      -2.405   7.061   8.642  1.00  0.00    -0.015 C 
ATOM     17  C   UNL     1      -1.077   6.496   8.129  1.00  0.00     0.007 C 
ATOM     18  C   UNL     1      -3.373   5.891   8.860  1.00  0.00     0.007 C 
ENDBRANCH  15  16
ENDBRANCH  14  15
BRANCH  14  19
ATOM     19  C   UNL     1      -3.983  10.355   8.905  1.00  0.00     0.245 C 
ATOM     20  O   UNL     1      -4.338   9.784   9.950  1.00  0.00    -0.272 OA
BRANCH  19  21
ATOM     21  N   UNL     1      -4.573  11.557   8.559  1.00  0.00    -0.332 N 
ATOM     22  C   UNL     1      -3.949  12.864   8.666  1.00  0.00     0.147 C 
BRANCH  21  23
ATOM     23  C   UNL     1      -5.969  11.524   8.043  1.00  0.00     0.178 C 
BRANCH  23  24
ATOM     24  C   UNL     1      -6.236  10.446   6.972  1.00  0.00     0.070 C 
BRANCH  24  25
ATOM     25  C   UNL     1      -6.589  10.927   5.584  1.00  0.00    -0.045 A 
ATOM     26  C   UNL     1      -7.611  11.865   5.388  1.00  0.00     0.004 A 
ATOM     27  C   UNL     1      -5.898  10.434   4.467  1.00  0.00     0.004 A 
ATOM     28  C   UNL     1      -7.942  12.292   4.101  1.00  0.00     0.000 A 
ATOM     29  C   UNL     1      -6.230  10.863   3.181  1.00  0.00     0.000 A 
ATOM     30  C   UNL     1      -7.254  11.789   2.999  1.00  0.00     0.000 A 
ENDBRANCH  24  25
ENDBRANCH  23  24
BRANCH  23  31
ATOM     31  C   UNL     1      -7.030  11.603   9.166  1.00  0.00     0.243 C 
ATOM     32  O   UNL     1      -6.815  12.066  10.283  1.00  0.00    -0.273 OA
ATOM     33  N   UNL     1      -8.204  10.933   8.867  1.00  0.00    -0.341 N 
ATOM     34  H   UNL     1      -8.324  10.563   7.920  1.00  0.00     0.164 HD
BRANCH  33  35
ATOM     35  C   UNL     1      -9.301  10.775   9.826  1.00  0.00     0.194 C 
BRANCH  35  36
ATOM     36  C   UNL     1      -9.706   9.297  10.089  1.00  0.00     0.017 C 
ATOM     37  C   UNL     1      -9.239   8.829  11.479  1.00  0.00     0.010 C 
ATOM     38  C   UNL     1      -9.129   8.319   9.058  1.00  0.00     0.010 C 
ENDBRANCH  35  36
BRANCH  35  39
ATOM     39  C   UNL     1     -10.531  11.660   9.479  1.00  0.00     0.329 C 
ATOM     40  O   UNL     1     -11.180  11.558   8.445  1.00  0.00    -0.250 OA
BRANCH  39  41
ATOM     41  O   UNL     1     -10.863  12.510  10.498  1.00  0.00    -0.458 OA
BRANCH  41  42
ATOM     42  C   UNL     1     -12.201  12.375  11.035  1.00  0.00     0.205 CG0
ATOM     43  C   UNL     1     -12.903  13.718  10.848  1.00  0.00     0.056 C 
ATOM     44  G   UNL     1     -12.096  11.965  12.518  1.00  0.00     0.000 G0
ENDBRANCH  41  42
ENDBRANCH  39  41
ENDBRANCH  35  39
ENDBRANCH  33  35
ENDBRANCH  23  31
ENDBRANCH  21  23
ENDBRANCH  19  21
ENDBRANCH  14  19
ENDBRANCH   7  14
ENDBRANCH   2   5
BRANCH   3  45
ATOM     45  C   UNL     1       3.209   8.608   5.245  1.00  0.00     0.171 C 
BRANCH  45  46
ATOM     46  N   UNL     1       3.807   9.004   3.977  1.00  0.00    -0.342 N 
ATOM     47  C   UNL     1       5.163   9.132   3.810  1.00  0.00     0.247 C 
ATOM     48  O   UNL     1       5.974   8.852   4.693  1.00  0.00    -0.273 OA
ATOM     49  H   UNL     1       3.173   9.191   3.202  1.00  0.00     0.164 HD
BRANCH  47  50
ATOM     50  C   UNL     1       5.601   9.678   2.444  1.00  0.00     0.212 CG0
ATOM     51  G   UNL     1       6.297   8.532   1.683  1.00  0.00     0.000 G0
BRANCH  50  52
ATOM     52  N   UNL     1       4.375  10.139   1.797  1.00  0.00    -0.339 N 
ATOM     53  C   UNL     1       4.363  10.871   0.635  1.00  0.00     0.243 C 
ATOM     54  O   UNL     1       5.391  11.241   0.075  1.00  0.00    -0.273 OA
ATOM     55  H   UNL     1       3.493   9.959   2.273  1.00  0.00     0.164 HD
BRANCH  53  56
ATOM     56  C   UNL     1       2.956  11.317   0.189  1.00  0.00     0.182 C 
BRANCH  56  57
ATOM     57  N   UNL     1       2.747  11.055  -1.239  1.00  0.00    -0.344 N 
ATOM     58  C   UNL     1       1.668  10.347  -1.707  1.00  0.00     0.220 C 
ATOM     59  O   UNL     1       0.846   9.822  -0.964  1.00  0.00    -0.275 OA
ATOM     60  H   UNL     1       3.346  11.555  -1.890  1.00  0.00     0.164 HD
BRANCH  58  61
ATOM     61  C   UNL     1       1.624  10.248  -3.221  1.00  0.00     0.100 C 
BRANCH  61  62
ATOM     62  C   UNL     1       0.587   9.254  -3.744  1.00  0.00     0.010 C 
BRANCH  62  63
ATOM     63  C   UNL     1       1.161   8.184  -4.681  1.00  0.00     0.000 C 
BRANCH  63  64
ATOM     64  C   UNL     1       2.390   8.635  -5.469  1.00  0.00    -0.003 C 
ATOM     65  C   UNL     1       3.491   7.584  -5.430  1.00  0.00     0.004 C 
ENDBRANCH  63  64
ENDBRANCH  62  63
ENDBRANCH  61  62
ENDBRANCH  58  61
ENDBRANCH  56  57
BRANCH  56  66
ATOM     66  C   UNL     1       2.690  12.778   0.552  1.00  0.00     0.157 C 
BRANCH  66  67
ATOM     67  C   UNL     1       2.945  13.684  -0.618  1.00  0.00     0.305 C 
ATOM     68  O   UNL     1       2.107  14.198  -1.342  1.00  0.00    -0.252 OA
BRANCH  67  69
ATOM     69  O   UNL     1       4.256  13.942  -0.789  1.00  0.00    -0.481 OA
ATOM     70  H   UNL     1       4.340  14.191  -1.734  1.00  0.00     0.296 HD
ENDBRANCH  67  69
ENDBRANCH  66  67
ENDBRANCH  56  66
ENDBRANCH  53  56
ENDBRANCH  50  52
ENDBRANCH  47  50
ENDBRANCH  45  46
BRANCH  45  71
ATOM     71  C   UNL     1       2.428   7.295   5.117  1.00  0.00     0.037 C 
BRANCH  71  72
ATOM     72  C   UNL     1       2.640   6.630   3.755  1.00  0.00     0.026 C 
BRANCH  72  73
ATOM     73  C   UNL     1       1.324   6.478   2.995  1.00  0.00     0.146 C 
BRANCH  73  74
ATOM     74  N   UNL     1       0.404   7.499   3.486  1.00  0.00    -0.254 NA
ATOM     75  C   UNL     1       0.296   8.583   2.811  1.00  0.00     0.185 C 
ATOM     76  N   UNL     1      -0.544   9.541   3.237  1.00  0.00    -0.370 N 
ATOM     77  N   UNL     1       0.924   8.938   1.677  1.00  0.00    -0.370 N 
ATOM     78  H   UNL     1      -1.052   9.357   4.090  1.00  0.00     0.159 HD
ATOM     79  H   UNL     1      -0.573  10.465   2.845  1.00  0.00     0.159 HD
ATOM     80  H   UNL     1       1.584   8.314   1.238  1.00  0.00     0.159 HD
ATOM     81  H   UNL     1       0.672   9.772   1.172  1.00  0.00     0.159 HD
ENDBRANCH  73  74
ENDBRANCH  72  73
ENDBRANCH  71  72
ENDBRANCH  45  71
ENDBRANCH   3  45
TORSDOF 20
ENDMDL
MODEL 9
REMARK VINA RESULT:    -5.835      9.346     13.898
REMARK INTER + INTRA:         -22.857
REMARK INTER:                 -17.577
REMARK INTRA:                  -5.280
REMARK UNBOUND:                -6.106
REMARK SMILES CCCCCC(=O)N[C@H](CC(=O)O)C(=O)N[C@H]1C(=O)N[C@H](CCCN=C(N)N)C(=O)N[C@@H]2CC[C@H](O)N(C2=O)[C@@H](CC(C)C)C(=O)N(C)[C@@H](Cc2ccccc2)C(=O)N[C@H](C(C)C)C(=O)O[C@@H]1C
REMARK SMILES IDX 30 1 31 2 29 3 32 5 35 6 37 7 34 8 38 9 33 10 39 11 36 12
REMARK SMILES IDX 40 14 41 15 42 16 43 17 44 18 45 19 46 20 47 21 48 22 49 23
REMARK SMILES IDX 50 24 51 25 52 26 56 27 53 28 55 29 54 30 57 31 58 32 59 33
REMARK SMILES IDX 60 35 61 36 62 37 63 38 64 39 65 40 66 41 67 42 68 43 21 45
REMARK SMILES IDX 20 46 18 47 19 48 17 50 16 52 14 53 15 54 9 56 8 57 6 58
REMARK SMILES IDX 7 59 5 61 4 62 3 63 2 64 1 65 10 66 11 67 12 68 13 69 22 71
REMARK SMILES IDX 23 72 24 73 25 74 26 75 27 76 28 77
REMARK H PARENT 31 4 36 13 59 34 20 49 16 55 8 60 13 70 27 78 27 79 28 80
REMARK H PARENT 28 81
REMARK Flexibility Score:  259.900
ROOT
ATOM      1  O   UNL     1      -2.418   9.686  11.375  1.00  0.00    -0.273 OA
ATOM      2  N   UNL     1      -1.657   7.852  10.240  1.00  0.00    -0.343 N 
ATOM      3  C   UNL     1      -2.270   9.084  10.311  1.00  0.00     0.243 C 
ATOM      4  H   UNL     1      -1.540   7.393   9.345  1.00  0.00     0.164 HD
ENDROOT
BRANCH   2   5
ATOM      5  C   UNL     1      -1.260   7.149  11.455  1.00  0.00     0.171 C 
ATOM      6  C   UNL     1       0.143   4.654  11.912  1.00  0.00     0.214 C 
ATOM      7  N   UNL     1      -1.298   4.653  11.826  1.00  0.00    -0.303 N 
ATOM      8  C   UNL     1       0.713   5.954  12.457  1.00  0.00     0.057 C 
ATOM      9  C   UNL     1      -2.027   5.800  11.559  1.00  0.00     0.247 C 
ATOM     10  C   UNL     1       0.261   7.113  11.595  1.00  0.00     0.040 C 
ATOM     11  O   UNL     1      -3.255   5.776  11.402  1.00  0.00    -0.272 OA
BRANCH   6  12
ATOM     12  O   UNL     1       0.651   4.396  10.623  1.00  0.00    -0.373 OA
ATOM     13  H   UNL     1       1.275   5.123  10.409  1.00  0.00     0.213 HD
ENDBRANCH   6  12
BRANCH   7  14
ATOM     14  C   UNL     1      -1.973   3.339  11.889  1.00  0.00     0.177 C 
BRANCH  14  15
ATOM     15  C   UNL     1      -3.362   3.345  12.557  1.00  0.00     0.038 C 
BRANCH  15  16
ATOM     16  C   UNL     1      -3.501   2.895  14.028  1.00  0.00    -0.015 C 
ATOM     17  C   UNL     1      -4.726   3.508  14.713  1.00  0.00     0.007 C 
ATOM     18  C   UNL     1      -2.253   3.307  14.817  1.00  0.00     0.007 C 
ENDBRANCH  15  16
ENDBRANCH  14  15
BRANCH  14  19
ATOM     19  C   UNL     1      -1.561   2.457  10.660  1.00  0.00     0.245 C 
ATOM     20  O   UNL     1      -1.770   2.936   9.533  1.00  0.00    -0.272 OA
BRANCH  19  21
ATOM     21  N   UNL     1      -1.094   1.159  10.764  1.00  0.00    -0.332 N 
ATOM     22  C   UNL     1       0.138   0.657  10.182  1.00  0.00     0.147 C 
BRANCH  21  23
ATOM     23  C   UNL     1      -1.921   0.181  11.525  1.00  0.00     0.178 C 
BRANCH  23  24
ATOM     24  C   UNL     1      -2.657  -0.857  10.653  1.00  0.00     0.070 C 
BRANCH  24  25
ATOM     25  C   UNL     1      -4.097  -1.152  11.004  1.00  0.00    -0.045 A 
ATOM     26  C   UNL     1      -4.647  -2.419  10.770  1.00  0.00     0.004 A 
ATOM     27  C   UNL     1      -4.907  -0.154  11.567  1.00  0.00     0.004 A 
ATOM     28  C   UNL     1      -5.984  -2.678  11.081  1.00  0.00     0.000 A 
ATOM     29  C   UNL     1      -6.242  -0.416  11.878  1.00  0.00     0.000 A 
ATOM     30  C   UNL     1      -6.780  -1.677  11.632  1.00  0.00     0.000 A 
ENDBRANCH  24  25
ENDBRANCH  23  24
BRANCH  23  31
ATOM     31  C   UNL     1      -1.185  -0.405  12.753  1.00  0.00     0.243 C 
ATOM     32  O   UNL     1      -1.307   0.027  13.897  1.00  0.00    -0.273 OA
ATOM     33  N   UNL     1      -0.226  -1.348  12.426  1.00  0.00    -0.341 N 
ATOM     34  H   UNL     1      -0.167  -1.664  11.455  1.00  0.00     0.164 HD
BRANCH  33  35
ATOM     35  C   UNL     1       0.674  -1.949  13.415  1.00  0.00     0.194 C 
BRANCH  35  36
ATOM     36  C   UNL     1       2.133  -2.141  12.912  1.00  0.00     0.017 C 
ATOM     37  C   UNL     1       2.789  -0.792  12.572  1.00  0.00     0.010 C 
ATOM     38  C   UNL     1       2.230  -3.027  11.664  1.00  0.00     0.010 C 
ENDBRANCH  35  36
BRANCH  35  39
ATOM     39  C   UNL     1       0.097  -3.253  14.033  1.00  0.00     0.329 C 
ATOM     40  O   UNL     1      -0.604  -4.051  13.421  1.00  0.00    -0.250 OA
BRANCH  39  41
ATOM     41  O   UNL     1       0.530  -3.457  15.314  1.00  0.00    -0.458 OA
BRANCH  41  42
ATOM     42  C   UNL     1       0.858  -4.821  15.670  1.00  0.00     0.205 CG0
ATOM     43  C   UNL     1       2.275  -5.093  15.170  1.00  0.00     0.056 C 
ATOM     44  G   UNL     1      -0.184  -5.761  15.030  1.00  0.00     0.000 G0
ENDBRANCH  41  42
ENDBRANCH  39  41
ENDBRANCH  35  39
ENDBRANCH  33  35
ENDBRANCH  23  31
ENDBRANCH  21  23
ENDBRANCH  19  21
ENDBRANCH  14  19
ENDBRANCH   7  14
ENDBRANCH   2   5
BRANCH   3  45
ATOM     45  C   UNL     1      -2.737   9.664   8.969  1.00  0.00     0.171 C 
BRANCH  45  46
ATOM     46  N   UNL     1      -3.770  10.637   9.298  1.00  0.00    -0.342 N 
ATOM     47  C   UNL     1      -4.034  11.727   8.507  1.00  0.00     0.247 C 
ATOM     48  O   UNL     1      -3.471  11.923   7.430  1.00  0.00    -0.273 OA
ATOM     49  H   UNL     1      -4.300  10.482  10.154  1.00  0.00     0.164 HD
BRANCH  47  50
ATOM     50  C   UNL     1      -5.069  12.707   9.076  1.00  0.00     0.212 CG0
ATOM     51  G   UNL     1      -4.887  14.054   8.349  1.00  0.00     0.000 G0
BRANCH  50  52
ATOM     52  N   UNL     1      -6.369  12.089   8.828  1.00  0.00    -0.339 N 
ATOM     53  C   UNL     1      -6.995  11.259   9.726  1.00  0.00     0.243 C 
ATOM     54  O   UNL     1      -6.480  10.928  10.791  1.00  0.00    -0.273 OA
ATOM     55  H   UNL     1      -6.796  12.236   7.916  1.00  0.00     0.164 HD
BRANCH  53  56
ATOM     56  C   UNL     1      -8.317  10.657   9.209  1.00  0.00     0.182 C 
BRANCH  56  57
ATOM     57  N   UNL     1      -8.549  11.022   7.808  1.00  0.00    -0.344 N 
ATOM     58  C   UNL     1      -9.017  10.124   6.880  1.00  0.00     0.220 C 
ATOM     59  O   UNL     1      -9.203   8.940   7.139  1.00  0.00    -0.275 OA
ATOM     60  H   UNL     1      -8.504  12.011   7.576  1.00  0.00     0.164 HD
BRANCH  58  61
ATOM     61  C   UNL     1      -9.238  10.734   5.509  1.00  0.00     0.100 C 
BRANCH  61  62
ATOM     62  C   UNL     1      -8.317  11.916   5.205  1.00  0.00     0.010 C 
BRANCH  62  63
ATOM     63  C   UNL     1      -7.432  11.721   3.967  1.00  0.00     0.000 C 
BRANCH  63  64
ATOM     64  C   UNL     1      -6.664  10.400   3.949  1.00  0.00    -0.003 C 
ATOM     65  C   UNL     1      -5.482  10.432   4.907  1.00  0.00     0.004 C 
ENDBRANCH  63  64
ENDBRANCH  62  63
ENDBRANCH  61  62
ENDBRANCH  58  61
ENDBRANCH  56  57
BRANCH  56  66
ATOM     66  C   UNL     1      -9.494  11.037  10.106  1.00  0.00     0.157 C 
BRANCH  66  67
ATOM     67  C   UNL     1     -10.088   9.825  10.765  1.00  0.00     0.305 C 
ATOM     68  O   UNL     1     -10.736   8.941  10.225  1.00  0.00    -0.252 OA
BRANCH  67  69
ATOM     69  O   UNL     1      -9.790   9.758  12.076  1.00  0.00    -0.481 OA
ATOM     70  H   UNL     1      -9.150   9.019  12.150  1.00  0.00     0.296 HD
ENDBRANCH  67  69
ENDBRANCH  66  67
ENDBRANCH  56  66
ENDBRANCH  53  56
ENDBRANCH  50  52
ENDBRANCH  47  50
ENDBRANCH  45  46
BRANCH  45  71
ATOM     71  C   UNL     1      -3.276   8.550   8.064  1.00  0.00     0.037 C 
BRANCH  71  72
ATOM     72  C   UNL     1      -2.281   8.167   6.967  1.00  0.00     0.026 C 
BRANCH  72  73
ATOM     73  C   UNL     1      -2.065   6.656   6.908  1.00  0.00     0.146 C 
BRANCH  73  74
ATOM     74  N   UNL     1      -2.818   6.054   8.005  1.00  0.00    -0.254 NA
ATOM     75  C   UNL     1      -3.508   5.004   7.753  1.00  0.00     0.185 C 
ATOM     76  N   UNL     1      -4.210   4.427   8.741  1.00  0.00    -0.370 N 
ATOM     77  N   UNL     1      -3.651   4.346   6.589  1.00  0.00    -0.370 N 
ATOM     78  H   UNL     1      -4.163   4.864   9.651  1.00  0.00     0.159 HD
ATOM     79  H   UNL     1      -4.881   3.695   8.590  1.00  0.00     0.159 HD
ATOM     80  H   UNL     1      -3.176   4.665   5.757  1.00  0.00     0.159 HD
ATOM     81  H   UNL     1      -4.129   3.462   6.537  1.00  0.00     0.159 HD
ENDBRANCH  73  74
ENDBRANCH  72  73
ENDBRANCH  71  72
ENDBRANCH  45  71
ENDBRANCH   3  45
TORSDOF 20
ENDMDL
MODEL 10
REMARK VINA RESULT:    -5.829      3.591      7.112
REMARK INTER + INTRA:         -22.839
REMARK INTER:                 -17.521
REMARK INTRA:                  -5.317
REMARK UNBOUND:                -6.106
REMARK SMILES CCCCCC(=O)N[C@H](CC(=O)O)C(=O)N[C@H]1C(=O)N[C@H](CCCN=C(N)N)C(=O)N[C@@H]2CC[C@H](O)N(C2=O)[C@@H](CC(C)C)C(=O)N(C)[C@@H](Cc2ccccc2)C(=O)N[C@H](C(C)C)C(=O)O[C@@H]1C
REMARK SMILES IDX 30 1 31 2 29 3 32 5 35 6 37 7 34 8 38 9 33 10 39 11 36 12
REMARK SMILES IDX 40 14 41 15 42 16 43 17 44 18 45 19 46 20 47 21 48 22 49 23
REMARK SMILES IDX 50 24 51 25 52 26 56 27 53 28 55 29 54 30 57 31 58 32 59 33
REMARK SMILES IDX 60 35 61 36 62 37 63 38 64 39 65 40 66 41 67 42 68 43 21 45
REMARK SMILES IDX 20 46 18 47 19 48 17 50 16 52 14 53 15 54 9 56 8 57 6 58
REMARK SMILES IDX 7 59 5 61 4 62 3 63 2 64 1 65 10 66 11 67 12 68 13 69 22 71
REMARK SMILES IDX 23 72 24 73 25 74 26 75 27 76 28 77
REMARK H PARENT 31 4 36 13 59 34 20 49 16 55 8 60 13 70 27 78 27 79 28 80
REMARK H PARENT 28 81
REMARK Flexibility Score:  259.900
ROOT
ATOM      1  O   UNL     1       1.384  11.171   4.261  1.00  0.00    -0.273 OA
ATOM      2  N   UNL     1       1.470   9.642   5.960  1.00  0.00    -0.343 N 
ATOM      3  C   UNL     1       1.668  10.040   4.655  1.00  0.00     0.243 C 
ATOM      4  H   UNL     1       1.729   8.708   6.252  1.00  0.00     0.164 HD
ENDROOT
BRANCH   2   5
ATOM      5  C   UNL     1       0.797  10.522   6.909  1.00  0.00     0.171 C 
ATOM      6  C   UNL     1      -0.163  10.123   9.616  1.00  0.00     0.214 C 
ATOM      7  N   UNL     1      -1.051   9.876   8.504  1.00  0.00    -0.303 N 
ATOM      8  C   UNL     1       0.875  11.198   9.330  1.00  0.00     0.057 C 
ATOM      9  C   UNL     1      -0.642   9.998   7.186  1.00  0.00     0.247 C 
ATOM     10  C   UNL     1       1.689  10.813   8.115  1.00  0.00     0.040 C 
ATOM     11  O   UNL     1      -1.382   9.701   6.239  1.00  0.00    -0.272 OA
BRANCH   6  12
ATOM     12  O   UNL     1       0.466   8.906   9.943  1.00  0.00    -0.373 OA
ATOM     13  H   UNL     1       0.622   8.427   9.101  1.00  0.00     0.213 HD
ENDBRANCH   6  12
BRANCH   7  14
ATOM     14  C   UNL     1      -2.391   9.339   8.822  1.00  0.00     0.177 C 
BRANCH  14  15
ATOM     15  C   UNL     1      -2.432   7.836   9.159  1.00  0.00     0.038 C 
BRANCH  15  16
ATOM     16  C   UNL     1      -1.811   6.818   8.177  1.00  0.00    -0.015 C 
ATOM     17  C   UNL     1      -2.868   6.115   7.319  1.00  0.00     0.007 C 
ATOM     18  C   UNL     1      -1.038   5.749   8.958  1.00  0.00     0.007 C 
ENDBRANCH  15  16
ENDBRANCH  14  15
BRANCH  14  19
ATOM     19  C   UNL     1      -3.273  10.445   9.498  1.00  0.00     0.245 C 
ATOM     20  O   UNL     1      -3.804  10.152  10.582  1.00  0.00    -0.272 OA
BRANCH  19  21
ATOM     21  N   UNL     1      -3.575  11.659   8.906  1.00  0.00    -0.332 N 
ATOM     22  C   UNL     1      -2.752  12.854   8.967  1.00  0.00     0.147 C 
BRANCH  21  23
ATOM     23  C   UNL     1      -4.853  11.766   8.150  1.00  0.00     0.178 C 
BRANCH  23  24
ATOM     24  C   UNL     1      -5.306  10.463   7.461  1.00  0.00     0.070 C 
BRANCH  24  25
ATOM     25  C   UNL     1      -5.613  10.537   5.983  1.00  0.00    -0.045 A 
ATOM     26  C   UNL     1      -4.606  10.339   5.030  1.00  0.00     0.004 A 
ATOM     27  C   UNL     1      -6.917  10.811   5.544  1.00  0.00     0.004 A 
ATOM     28  C   UNL     1      -4.895  10.425   3.666  1.00  0.00     0.000 A 
ATOM     29  C   UNL     1      -7.204  10.896   4.181  1.00  0.00     0.000 A 
ATOM     30  C   UNL     1      -6.192  10.706   3.243  1.00  0.00     0.000 A 
ENDBRANCH  24  25
ENDBRANCH  23  24
BRANCH  23  31
ATOM     31  C   UNL     1      -5.960  12.506   8.938  1.00  0.00     0.243 C 
ATOM     32  O   UNL     1      -6.611  13.446   8.489  1.00  0.00    -0.273 OA
ATOM     33  N   UNL     1      -6.032  12.136  10.270  1.00  0.00    -0.341 N 
ATOM     34  H   UNL     1      -5.461  11.348  10.587  1.00  0.00     0.164 HD
BRANCH  33  35
ATOM     35  C   UNL     1      -6.925  12.787  11.233  1.00  0.00     0.194 C 
BRANCH  35  36
ATOM     36  C   UNL     1      -6.196  13.707  12.253  1.00  0.00     0.017 C 
ATOM     37  C   UNL     1      -6.237  15.179  11.808  1.00  0.00     0.010 C 
ATOM     38  C   UNL     1      -4.724  13.331  12.461  1.00  0.00     0.010 C 
ENDBRANCH  35  36
BRANCH  35  39
ATOM     39  C   UNL     1      -7.881  11.783  11.936  1.00  0.00     0.329 C 
ATOM     40  O   UNL     1      -7.502  10.809  12.576  1.00  0.00    -0.250 OA
BRANCH  39  41
ATOM     41  O   UNL     1      -9.192  12.157  11.836  1.00  0.00    -0.458 OA
BRANCH  41  42
ATOM     42  C   UNL     1     -10.132  11.424  12.657  1.00  0.00     0.205 CG0
ATOM     43  C   UNL     1     -10.821  10.401  11.756  1.00  0.00     0.056 C 
ATOM     44  G   UNL     1     -11.126  12.425  13.280  1.00  0.00     0.000 G0
ENDBRANCH  41  42
ENDBRANCH  39  41
ENDBRANCH  35  39
ENDBRANCH  33  35
ENDBRANCH  23  31
ENDBRANCH  21  23
ENDBRANCH  19  21
ENDBRANCH  14  19
ENDBRANCH   7  14
ENDBRANCH   2   5
BRANCH   3  45
ATOM     45  C   UNL     1       2.287   8.981   3.733  1.00  0.00     0.171 C 
BRANCH  45  46
ATOM     46  N   UNL     1       2.990   9.724   2.695  1.00  0.00    -0.342 N 
ATOM     47  C   UNL     1       4.354   9.681   2.555  1.00  0.00     0.247 C 
ATOM     48  O   UNL     1       5.074   8.958   3.244  1.00  0.00    -0.273 OA
ATOM     49  H   UNL     1       2.425  10.292   2.066  1.00  0.00     0.164 HD
BRANCH  47  50
ATOM     50  C   UNL     1       4.928  10.625   1.488  1.00  0.00     0.212 CG0
ATOM     51  G   UNL     1       5.941   9.821   0.649  1.00  0.00     0.000 G0
BRANCH  50  52
ATOM     52  N   UNL     1       3.777  11.086   0.716  1.00  0.00    -0.339 N 
ATOM     53  C   UNL     1       3.871  11.567  -0.567  1.00  0.00     0.243 C 
ATOM     54  O   UNL     1       4.945  11.697  -1.148  1.00  0.00    -0.273 OA
ATOM     55  H   UNL     1       2.872  11.107   1.183  1.00  0.00     0.164 HD
BRANCH  53  56
ATOM     56  C   UNL     1       2.535  12.076  -1.146  1.00  0.00     0.182 C 
BRANCH  56  57
ATOM     57  N   UNL     1       1.810  10.996  -1.823  1.00  0.00    -0.344 N 
ATOM     58  C   UNL     1       1.082  10.055  -1.137  1.00  0.00     0.220 C 
ATOM     59  O   UNL     1       1.046  10.008   0.088  1.00  0.00    -0.275 OA
ATOM     60  H   UNL     1       1.730  11.058  -2.835  1.00  0.00     0.164 HD
BRANCH  58  61
ATOM     61  C   UNL     1       0.367   9.069  -2.043  1.00  0.00     0.100 C 
BRANCH  61  62
ATOM     62  C   UNL     1      -0.423   9.731  -3.172  1.00  0.00     0.010 C 
BRANCH  62  63
ATOM     63  C   UNL     1       0.139   9.459  -4.574  1.00  0.00     0.000 C 
BRANCH  63  64
ATOM     64  C   UNL     1       0.961   8.176  -4.681  1.00  0.00    -0.003 C 
ATOM     65  C   UNL     1       2.386   8.466  -5.130  1.00  0.00     0.004 C 
ENDBRANCH  63  64
ENDBRANCH  62  63
ENDBRANCH  61  62
ENDBRANCH  58  61
ENDBRANCH  56  57
BRANCH  56  66
ATOM     66  C   UNL     1       2.743  13.288  -2.053  1.00  0.00     0.157 C 
BRANCH  66  67
ATOM     67  C   UNL     1       1.708  13.338  -3.140  1.00  0.00     0.305 C 
ATOM     68  O   UNL     1       1.820  12.909  -4.278  1.00  0.00    -0.252 OA
BRANCH  67  69
ATOM     69  O   UNL     1       0.552  13.884  -2.720  1.00  0.00    -0.481 OA
ATOM     70  H   UNL     1      -0.138  13.233  -2.970  1.00  0.00     0.296 HD
ENDBRANCH  67  69
ENDBRANCH  66  67
ENDBRANCH  56  66
ENDBRANCH  53  56
ENDBRANCH  50  52
ENDBRANCH  47  50
ENDBRANCH  45  46
BRANCH  45  71
ATOM     71  C   UNL     1       1.194   8.082   3.143  1.00  0.00     0.037 C 
BRANCH  71  72
ATOM     72  C   UNL     1       0.709   7.032   4.145  1.00  0.00     0.026 C 
BRANCH  72  73
ATOM     73  C   UNL     1       1.318   5.661   3.859  1.00  0.00     0.146 C 
BRANCH  73  74
ATOM     74  N   UNL     1       0.406   4.943   2.973  1.00  0.00    -0.254 NA
ATOM     75  C   UNL     1       0.908   4.084   2.166  1.00  0.00     0.185 C 
ATOM     76  N   UNL     1       0.095   3.406   1.339  1.00  0.00    -0.370 N 
ATOM     77  N   UNL     1       2.195   3.729   2.002  1.00  0.00    -0.370 N 
ATOM     78  H   UNL     1      -0.891   3.618   1.392  1.00  0.00     0.159 HD
ATOM     79  H   UNL     1       0.426   2.830   0.586  1.00  0.00     0.159 HD
ATOM     80  H   UNL     1       2.920   4.154   2.560  1.00  0.00     0.159 HD
ATOM     81  H   UNL     1       2.459   2.955   1.414  1.00  0.00     0.159 HD
ENDBRANCH  73  74
ENDBRANCH  72  73
ENDBRANCH  71  72
ENDBRANCH  45  71
ENDBRANCH   3  45
TORSDOF 20
ENDMDL
MODEL 11
REMARK VINA RESULT:    -5.827      4.590     13.357
REMARK INTER + INTRA:         -22.832
REMARK INTER:                 -16.064
REMARK INTRA:                  -6.769
REMARK UNBOUND:                -6.106
REMARK SMILES CCCCCC(=O)N[C@H](CC(=O)O)C(=O)N[C@H]1C(=O)N[C@H](CCCN=C(N)N)C(=O)N[C@@H]2CC[C@H](O)N(C2=O)[C@@H](CC(C)C)C(=O)N(C)[C@@H](Cc2ccccc2)C(=O)N[C@H](C(C)C)C(=O)O[C@@H]1C
REMARK SMILES IDX 30 1 31 2 29 3 32 5 35 6 37 7 34 8 38 9 33 10 39 11 36 12
REMARK SMILES IDX 40 14 41 15 42 16 43 17 44 18 45 19 46 20 47 21 48 22 49 23
REMARK SMILES IDX 50 24 51 25 52 26 56 27 53 28 55 29 54 30 57 31 58 32 59 33
REMARK SMILES IDX 60 35 61 36 62 37 63 38 64 39 65 40 66 41 67 42 68 43 21 45
REMARK SMILES IDX 20 46 18 47 19 48 17 50 16 52 14 53 15 54 9 56 8 57 6 58
REMARK SMILES IDX 7 59 5 61 4 62 3 63 2 64 1 65 10 66 11 67 12 68 13 69 22 71
REMARK SMILES IDX 23 72 24 73 25 74 26 75 27 76 28 77
REMARK H PARENT 31 4 36 13 59 34 20 49 16 55 8 60 13 70 27 78 27 79 28 80
REMARK H PARENT 28 81
REMARK Flexibility Score:  259.900
ROOT
ATOM      1  O   UNL     1      -5.544  12.167   7.217  1.00  0.00    -0.273 OA
ATOM      2  N   UNL     1      -4.377  10.852   8.679  1.00  0.00    -0.343 N 
ATOM      3  C   UNL     1      -5.400  11.716   8.354  1.00  0.00     0.243 C 
ATOM      4  H   UNL     1      -4.298  10.489   9.621  1.00  0.00     0.164 HD
ENDROOT
BRANCH   2   5
ATOM      5  C   UNL     1      -3.341  10.527   7.704  1.00  0.00     0.171 C 
ATOM      6  C   UNL     1      -1.252   8.518   7.652  1.00  0.00     0.214 C 
ATOM      7  N   UNL     1      -0.971   9.820   8.211  1.00  0.00    -0.303 N 
ATOM      8  C   UNL     1      -2.301   8.548   6.552  1.00  0.00     0.057 C 
ATOM      9  C   UNL     1      -1.937  10.808   8.313  1.00  0.00     0.247 C 
ATOM     10  C   UNL     1      -3.583   9.153   7.083  1.00  0.00     0.040 C 
ATOM     11  O   UNL     1      -1.712  11.890   8.871  1.00  0.00    -0.272 OA
BRANCH   6  12
ATOM     12  O   UNL     1      -1.667   7.678   8.705  1.00  0.00    -0.373 OA
ATOM     13  H   UNL     1      -0.963   7.006   8.831  1.00  0.00     0.213 HD
ENDBRANCH   6  12
BRANCH   7  14
ATOM     14  C   UNL     1       0.364  10.017   8.814  1.00  0.00     0.177 C 
BRANCH  14  15
ATOM     15  C   UNL     1       0.757   8.985   9.889  1.00  0.00     0.038 C 
BRANCH  15  16
ATOM     16  C   UNL     1       2.077   8.196   9.740  1.00  0.00    -0.015 C 
ATOM     17  C   UNL     1       2.004   7.139   8.635  1.00  0.00     0.007 C 
ATOM     18  C   UNL     1       2.410   7.489  11.060  1.00  0.00     0.007 C 
ENDBRANCH  15  16
ENDBRANCH  14  15
BRANCH  14  19
ATOM     19  C   UNL     1       1.343  10.656   7.770  1.00  0.00     0.245 C 
ATOM     20  O   UNL     1       2.333  11.253   8.224  1.00  0.00    -0.272 OA
BRANCH  19  21
ATOM     21  N   UNL     1       1.105  10.686   6.407  1.00  0.00    -0.332 N 
ATOM     22  C   UNL     1       0.317  11.688   5.711  1.00  0.00     0.147 C 
BRANCH  21  23
ATOM     23  C   UNL     1       1.691   9.600   5.574  1.00  0.00     0.178 C 
BRANCH  23  24
ATOM     24  C   UNL     1       0.800   9.131   4.406  1.00  0.00     0.070 C 
BRANCH  24  25
ATOM     25  C   UNL     1       1.382   8.098   3.469  1.00  0.00    -0.045 A 
ATOM     26  C   UNL     1       1.801   8.453   2.180  1.00  0.00     0.004 A 
ATOM     27  C   UNL     1       1.506   6.761   3.878  1.00  0.00     0.004 A 
ATOM     28  C   UNL     1       2.322   7.489   1.314  1.00  0.00     0.000 A 
ATOM     29  C   UNL     1       2.028   5.800   3.011  1.00  0.00     0.000 A 
ATOM     30  C   UNL     1       2.433   6.164   1.729  1.00  0.00     0.000 A 
ENDBRANCH  24  25
ENDBRANCH  23  24
BRANCH  23  31
ATOM     31  C   UNL     1       3.171   9.856   5.203  1.00  0.00     0.243 C 
ATOM     32  O   UNL     1       3.555  10.805   4.524  1.00  0.00    -0.273 OA
ATOM     33  N   UNL     1       4.016   8.815   5.549  1.00  0.00    -0.341 N 
ATOM     34  H   UNL     1       3.637   8.048   6.110  1.00  0.00     0.164 HD
BRANCH  33  35
ATOM     35  C   UNL     1       5.436   8.786   5.190  1.00  0.00     0.194 C 
BRANCH  35  36
ATOM     36  C   UNL     1       5.711   8.361   3.720  1.00  0.00     0.017 C 
ATOM     37  C   UNL     1       5.684   6.831   3.565  1.00  0.00     0.010 C 
ATOM     38  C   UNL     1       7.065   8.852   3.193  1.00  0.00     0.010 C 
ENDBRANCH  35  36
BRANCH  35  39
ATOM     39  C   UNL     1       6.291   7.970   6.199  1.00  0.00     0.329 C 
ATOM     40  O   UNL     1       5.850   7.065   6.898  1.00  0.00    -0.250 OA
BRANCH  39  41
ATOM     41  O   UNL     1       7.614   8.315   6.159  1.00  0.00    -0.458 OA
BRANCH  41  42
ATOM     42  C   UNL     1       8.564   7.229   6.272  1.00  0.00     0.205 CG0
ATOM     43  C   UNL     1       9.323   7.424   7.583  1.00  0.00     0.056 C 
ATOM     44  G   UNL     1       9.494   7.258   5.043  1.00  0.00     0.000 G0
ENDBRANCH  41  42
ENDBRANCH  39  41
ENDBRANCH  35  39
ENDBRANCH  33  35
ENDBRANCH  23  31
ENDBRANCH  21  23
ENDBRANCH  19  21
ENDBRANCH  14  19
ENDBRANCH   7  14
ENDBRANCH   2   5
BRANCH   3  45
ATOM     45  C   UNL     1      -6.360  12.059   9.501  1.00  0.00     0.171 C 
BRANCH  45  46
ATOM     46  N   UNL     1      -7.670  12.216   8.884  1.00  0.00    -0.342 N 
ATOM     47  C   UNL     1      -8.738  11.419   9.211  1.00  0.00     0.247 C 
ATOM     48  O   UNL     1      -8.688  10.565  10.097  1.00  0.00    -0.273 OA
ATOM     49  H   UNL     1      -7.771  12.950   8.185  1.00  0.00     0.164 HD
BRANCH  47  50
ATOM     50  C   UNL     1     -10.002  11.648   8.370  1.00  0.00     0.212 CG0
ATOM     51  G   UNL     1     -10.518  13.068   8.679  1.00  0.00     0.000 G0
BRANCH  50  52
ATOM     52  N   UNL     1      -9.583  11.476   6.982  1.00  0.00    -0.339 N 
ATOM     53  C   UNL     1      -9.232  10.262   6.443  1.00  0.00     0.243 C 
ATOM     54  O   UNL     1      -9.192   9.230   7.107  1.00  0.00    -0.273 OA
ATOM     55  H   UNL     1      -9.488  12.313   6.409  1.00  0.00     0.164 HD
BRANCH  53  56
ATOM     56  C   UNL     1      -8.741  10.342   4.983  1.00  0.00     0.182 C 
BRANCH  56  57
ATOM     57  N   UNL     1      -7.320  10.701   4.924  1.00  0.00    -0.344 N 
ATOM     58  C   UNL     1      -6.468  10.179   3.982  1.00  0.00     0.220 C 
ATOM     59  O   UNL     1      -6.815   9.324   3.174  1.00  0.00    -0.275 OA
ATOM     60  H   UNL     1      -7.017  11.477   5.506  1.00  0.00     0.164 HD
BRANCH  58  61
ATOM     61  C   UNL     1      -5.059  10.735   4.072  1.00  0.00     0.100 C 
BRANCH  61  62
ATOM     62  C   UNL     1      -4.177  10.375   2.877  1.00  0.00     0.010 C 
BRANCH  62  63
ATOM     63  C   UNL     1      -2.694  10.189   3.224  1.00  0.00     0.000 C 
BRANCH  63  64
ATOM     64  C   UNL     1      -1.826  11.415   2.945  1.00  0.00    -0.003 C 
ATOM     65  C   UNL     1      -0.872  11.167   1.785  1.00  0.00     0.004 C 
ENDBRANCH  63  64
ENDBRANCH  62  63
ENDBRANCH  61  62
ENDBRANCH  58  61
ENDBRANCH  56  57
BRANCH  56  66
ATOM     66  C   UNL     1      -9.609  11.284   4.151  1.00  0.00     0.157 C 
BRANCH  66  67
ATOM     67  C   UNL     1      -8.865  12.540   3.799  1.00  0.00     0.305 C 
ATOM     68  O   UNL     1      -8.342  12.806   2.728  1.00  0.00    -0.252 OA
BRANCH  67  69
ATOM     69  O   UNL     1      -8.862  13.432   4.808  1.00  0.00    -0.481 OA
ATOM     70  H   UNL     1      -9.294  14.231   4.438  1.00  0.00     0.296 HD
ENDBRANCH  67  69
ENDBRANCH  66  67
ENDBRANCH  56  66
ENDBRANCH  53  56
ENDBRANCH  50  52
ENDBRANCH  47  50
ENDBRANCH  45  46
BRANCH  45  71
ATOM     71  C   UNL     1      -5.910  13.342  10.208  1.00  0.00     0.037 C 
BRANCH  71  72
ATOM     72  C   UNL     1      -5.717  13.134  11.712  1.00  0.00     0.026 C 
BRANCH  72  73
ATOM     73  C   UNL     1      -7.034  13.283  12.471  1.00  0.00     0.146 C 
BRANCH  73  74
ATOM     74  N   UNL     1      -6.939  12.489  13.692  1.00  0.00    -0.254 NA
ATOM     75  C   UNL     1      -7.800  11.556  13.869  1.00  0.00     0.185 C 
ATOM     76  N   UNL     1      -7.737  10.808  14.982  1.00  0.00    -0.370 N 
ATOM     77  N   UNL     1      -8.816  11.182  13.072  1.00  0.00    -0.370 N 
ATOM     78  H   UNL     1      -7.004  11.028  15.641  1.00  0.00     0.159 HD
ATOM     79  H   UNL     1      -8.456  10.162  15.256  1.00  0.00     0.159 HD
ATOM     80  H   UNL     1      -8.983  11.655  12.196  1.00  0.00     0.159 HD
ATOM     81  H   UNL     1      -9.359  10.356  13.260  1.00  0.00     0.159 HD
ENDBRANCH  73  74
ENDBRANCH  72  73
ENDBRANCH  71  72
ENDBRANCH  45  71
ENDBRANCH   3  45
TORSDOF 20
ENDMDL
MODEL 12
REMARK VINA RESULT:    -5.819      2.946      4.291
REMARK INTER + INTRA:         -22.811
REMARK INTER:                 -16.298
REMARK INTRA:                  -6.513
REMARK UNBOUND:                -6.106
REMARK SMILES CCCCCC(=O)N[C@H](CC(=O)O)C(=O)N[C@H]1C(=O)N[C@H](CCCN=C(N)N)C(=O)N[C@@H]2CC[C@H](O)N(C2=O)[C@@H](CC(C)C)C(=O)N(C)[C@@H](Cc2ccccc2)C(=O)N[C@H](C(C)C)C(=O)O[C@@H]1C
REMARK SMILES IDX 30 1 31 2 29 3 32 5 35 6 37 7 34 8 38 9 33 10 39 11 36 12
REMARK SMILES IDX 40 14 41 15 42 16 43 17 44 18 45 19 46 20 47 21 48 22 49 23
REMARK SMILES IDX 50 24 51 25 52 26 56 27 53 28 55 29 54 30 57 31 58 32 59 33
REMARK SMILES IDX 60 35 61 36 62 37 63 38 64 39 65 40 66 41 67 42 68 43 21 45
REMARK SMILES IDX 20 46 18 47 19 48 17 50 16 52 14 53 15 54 9 56 8 57 6 58
REMARK SMILES IDX 7 59 5 61 4 62 3 63 2 64 1 65 10 66 11 67 12 68 13 69 22 71
REMARK SMILES IDX 23 72 24 73 25 74 26 75 27 76 28 77
REMARK H PARENT 31 4 36 13 59 34 20 49 16 55 8 60 13 70 27 78 27 79 28 80
REMARK H PARENT 28 81
REMARK Flexibility Score:  259.900
ROOT
ATOM      1  O   UNL     1      -2.851   9.469   3.806  1.00  0.00    -0.273 OA
ATOM      2  N   UNL     1      -3.551  11.113   5.233  1.00  0.00    -0.343 N 
ATOM      3  C   UNL     1      -2.627  10.527   4.395  1.00  0.00     0.243 C 
ATOM      4  H   UNL     1      -3.338  11.991   5.690  1.00  0.00     0.164 HD
ENDROOT
BRANCH   2   5
ATOM      5  C   UNL     1      -4.802  10.433   5.550  1.00  0.00     0.171 C 
ATOM      6  C   UNL     1      -7.471  11.403   6.138  1.00  0.00     0.214 C 
ATOM      7  N   UNL     1      -6.539  11.187   7.220  1.00  0.00    -0.303 N 
ATOM      8  C   UNL     1      -7.245  10.473   4.956  1.00  0.00     0.057 C 
ATOM      9  C   UNL     1      -5.234  10.775   7.006  1.00  0.00     0.247 C 
ATOM     10  C   UNL     1      -5.832  10.633   4.440  1.00  0.00     0.040 C 
ATOM     11  O   UNL     1      -4.416  10.676   7.930  1.00  0.00    -0.272 OA
BRANCH   6  12
ATOM     12  O   UNL     1      -7.358  12.748   5.734  1.00  0.00    -0.373 OA
ATOM     13  H   UNL     1      -7.765  13.295   6.440  1.00  0.00     0.213 HD
ENDBRANCH   6  12
BRANCH   7  14
ATOM     14  C   UNL     1      -6.987  11.569   8.576  1.00  0.00     0.177 C 
BRANCH  14  15
ATOM     15  C   UNL     1      -6.748  13.043   8.956  1.00  0.00     0.038 C 
BRANCH  15  16
ATOM     16  C   UNL     1      -5.599  13.403   9.924  1.00  0.00    -0.015 C 
ATOM     17  C   UNL     1      -5.479  12.410  11.084  1.00  0.00     0.007 C 
ATOM     18  C   UNL     1      -5.833  14.801  10.510  1.00  0.00     0.007 C 
ENDBRANCH  15  16
ENDBRANCH  14  15
BRANCH  14  19
ATOM     19  C   UNL     1      -8.231  10.714   8.998  1.00  0.00     0.245 C 
ATOM     20  O   UNL     1      -8.110   9.479   8.930  1.00  0.00    -0.272 OA
BRANCH  19  21
ATOM     21  N   UNL     1      -9.463  11.253   9.325  1.00  0.00    -0.332 N 
ATOM     22  C   UNL     1     -10.355  11.935   8.405  1.00  0.00     0.147 C 
BRANCH  21  23
ATOM     23  C   UNL     1      -9.918  11.142  10.739  1.00  0.00     0.178 C 
BRANCH  23  24
ATOM     24  C   UNL     1      -9.951  12.476  11.513  1.00  0.00     0.070 C 
BRANCH  24  25
ATOM     25  C   UNL     1      -8.920  12.666  12.601  1.00  0.00    -0.045 A 
ATOM     26  C   UNL     1      -8.459  13.945  12.937  1.00  0.00     0.004 A 
ATOM     27  C   UNL     1      -8.406  11.557  13.289  1.00  0.00     0.004 A 
ATOM     28  C   UNL     1      -7.494  14.110  13.933  1.00  0.00     0.000 A 
ATOM     29  C   UNL     1      -7.442  11.724  14.285  1.00  0.00     0.000 A 
ATOM     30  C   UNL     1      -6.984  13.001  14.604  1.00  0.00     0.000 A 
ENDBRANCH  24  25
ENDBRANCH  23  24
BRANCH  23  31
ATOM     31  C   UNL     1     -11.182  10.264  10.898  1.00  0.00     0.243 C 
ATOM     32  O   UNL     1     -11.354   9.196  10.318  1.00  0.00    -0.273 OA
ATOM     33  N   UNL     1     -12.195  10.878  11.616  1.00  0.00    -0.341 N 
ATOM     34  H   UNL     1     -11.993  11.771  12.072  1.00  0.00     0.164 HD
BRANCH  33  35
ATOM     35  C   UNL     1     -13.523  10.284  11.792  1.00  0.00     0.194 C 
BRANCH  35  36
ATOM     36  C   UNL     1     -14.636  10.952  10.936  1.00  0.00     0.017 C 
ATOM     37  C   UNL     1     -14.598  12.485  11.068  1.00  0.00     0.010 C 
ATOM     38  C   UNL     1     -16.048  10.494  11.318  1.00  0.00     0.010 C 
ENDBRANCH  35  36
BRANCH  35  39
ATOM     39  C   UNL     1     -13.931  10.166  13.287  1.00  0.00     0.329 C 
ATOM     40  O   UNL     1     -13.841  11.081  14.097  1.00  0.00    -0.250 OA
BRANCH  39  41
ATOM     41  O   UNL     1     -14.486   8.951  13.580  1.00  0.00    -0.458 OA
BRANCH  41  42
ATOM     42  C   UNL     1     -15.225   8.866  14.822  1.00  0.00     0.205 CG0
ATOM     43  C   UNL     1     -16.710   8.934  14.473  1.00  0.00     0.056 C 
ATOM     44  G   UNL     1     -14.781  10.024  15.738  1.00  0.00     0.000 G0
ENDBRANCH  41  42
ENDBRANCH  39  41
ENDBRANCH  35  39
ENDBRANCH  33  35
ENDBRANCH  23  31
ENDBRANCH  21  23
ENDBRANCH  19  21
ENDBRANCH  14  19
ENDBRANCH   7  14
ENDBRANCH   2   5
BRANCH   3  45
ATOM     45  C   UNL     1      -1.308  11.294   4.232  1.00  0.00     0.171 C 
BRANCH  45  46
ATOM     46  N   UNL     1      -0.530  10.537   3.260  1.00  0.00    -0.342 N 
ATOM     47  C   UNL     1       0.211  11.144   2.278  1.00  0.00     0.247 C 
ATOM     48  O   UNL     1       0.332  12.366   2.190  1.00  0.00    -0.273 OA
ATOM     49  H   UNL     1      -0.556   9.522   3.332  1.00  0.00     0.164 HD
BRANCH  47  50
ATOM     50  C   UNL     1       0.863  10.186   1.271  1.00  0.00     0.212 CG0
ATOM     51  G   UNL     1       2.313  10.661   1.045  1.00  0.00     0.000 G0
BRANCH  50  52
ATOM     52  N   UNL     1       0.779   8.862   1.881  1.00  0.00    -0.339 N 
ATOM     53  C   UNL     1       1.878   8.090   2.167  1.00  0.00     0.243 C 
ATOM     54  O   UNL     1       3.022   8.434   1.881  1.00  0.00    -0.273 OA
ATOM     55  H   UNL     1      -0.149   8.473   2.041  1.00  0.00     0.164 HD
BRANCH  53  56
ATOM     56  C   UNL     1       1.537   6.695   2.729  1.00  0.00     0.182 C 
BRANCH  56  57
ATOM     57  N   UNL     1       2.305   6.415   3.946  1.00  0.00    -0.344 N 
ATOM     58  C   UNL     1       1.720   6.343   5.187  1.00  0.00     0.220 C 
ATOM     59  O   UNL     1       0.531   6.580   5.374  1.00  0.00    -0.275 OA
ATOM     60  H   UNL     1       3.269   6.114   3.823  1.00  0.00     0.164 HD
BRANCH  58  61
ATOM     61  C   UNL     1       2.695   5.984   6.292  1.00  0.00     0.100 C 
BRANCH  61  62
ATOM     62  C   UNL     1       2.286   6.509   7.669  1.00  0.00     0.010 C 
BRANCH  62  63
ATOM     63  C   UNL     1       2.232   5.432   8.760  1.00  0.00     0.000 C 
BRANCH  63  64
ATOM     64  C   UNL     1       1.956   4.024   8.238  1.00  0.00    -0.003 C 
ATOM     65  C   UNL     1       3.133   3.094   8.498  1.00  0.00     0.004 C 
ENDBRANCH  63  64
ENDBRANCH  62  63
ENDBRANCH  61  62
ENDBRANCH  58  61
ENDBRANCH  56  57
BRANCH  56  66
ATOM     66  C   UNL     1       1.714   5.606   1.672  1.00  0.00     0.157 C 
BRANCH  66  67
ATOM     67  C   UNL     1       1.233   4.276   2.176  1.00  0.00     0.305 C 
ATOM     68  O   UNL     1       1.877   3.460   2.818  1.00  0.00    -0.252 OA
BRANCH  67  69
ATOM     69  O   UNL     1      -0.064   4.058   1.887  1.00  0.00    -0.481 OA
ATOM     70  H   UNL     1      -0.114   4.106   0.909  1.00  0.00     0.296 HD
ENDBRANCH  67  69
ENDBRANCH  66  67
ENDBRANCH  56  66
ENDBRANCH  53  56
ENDBRANCH  50  52
ENDBRANCH  47  50
ENDBRANCH  45  46
BRANCH  45  71
ATOM     71  C   UNL     1      -0.583  11.402   5.578  1.00  0.00     0.037 C 
BRANCH  71  72
ATOM     72  C   UNL     1      -0.268  10.027   6.173  1.00  0.00     0.026 C 
BRANCH  72  73
ATOM     73  C   UNL     1       1.230   9.849   6.410  1.00  0.00     0.146 C 
BRANCH  73  74
ATOM     74  N   UNL     1       1.928  10.276   5.201  1.00  0.00    -0.254 NA
ATOM     75  C   UNL     1       3.188  10.052   5.125  1.00  0.00     0.185 C 
ATOM     76  N   UNL     1       3.857  10.431   4.024  1.00  0.00    -0.370 N 
ATOM     77  N   UNL     1       3.996   9.463   6.023  1.00  0.00    -0.370 N 
ATOM     78  H   UNL     1       3.323  10.891   3.300  1.00  0.00     0.159 HD
ATOM     79  H   UNL     1       4.859  10.421   3.955  1.00  0.00     0.159 HD
ATOM     80  H   UNL     1       3.630   9.122   6.899  1.00  0.00     0.159 HD
ATOM     81  H   UNL     1       4.953   9.237   5.804  1.00  0.00     0.159 HD
ENDBRANCH  73  74
ENDBRANCH  72  73
ENDBRANCH  71  72
ENDBRANCH  45  71
ENDBRANCH   3  45
TORSDOF 20
ENDMDL
MODEL 13
REMARK VINA RESULT:    -5.819      8.732     15.443
REMARK INTER + INTRA:         -22.810
REMARK INTER:                 -18.022
REMARK INTRA:                  -4.788
REMARK UNBOUND:                -6.106
REMARK SMILES CCCCCC(=O)N[C@H](CC(=O)O)C(=O)N[C@H]1C(=O)N[C@H](CCCN=C(N)N)C(=O)N[C@@H]2CC[C@H](O)N(C2=O)[C@@H](CC(C)C)C(=O)N(C)[C@@H](Cc2ccccc2)C(=O)N[C@H](C(C)C)C(=O)O[C@@H]1C
REMARK SMILES IDX 30 1 31 2 29 3 32 5 35 6 37 7 34 8 38 9 33 10 39 11 36 12
REMARK SMILES IDX 40 14 41 15 42 16 43 17 44 18 45 19 46 20 47 21 48 22 49 23
REMARK SMILES IDX 50 24 51 25 52 26 56 27 53 28 55 29 54 30 57 31 58 32 59 33
REMARK SMILES IDX 60 35 61 36 62 37 63 38 64 39 65 40 66 41 67 42 68 43 21 45
REMARK SMILES IDX 20 46 18 47 19 48 17 50 16 52 14 53 15 54 9 56 8 57 6 58
REMARK SMILES IDX 7 59 5 61 4 62 3 63 2 64 1 65 10 66 11 67 12 68 13 69 22 71
REMARK SMILES IDX 23 72 24 73 25 74 26 75 27 76 28 77
REMARK H PARENT 31 4 36 13 59 34 20 49 16 55 8 60 13 70 27 78 27 79 28 80
REMARK H PARENT 28 81
REMARK Flexibility Score:  259.900
ROOT
ATOM      1  O   UNL     1      -4.671   5.849  11.149  1.00  0.00    -0.273 OA
ATOM      2  N   UNL     1      -4.733   4.630   9.215  1.00  0.00    -0.343 N 
ATOM      3  C   UNL     1      -5.292   5.118  10.376  1.00  0.00     0.243 C 
ATOM      4  H   UNL     1      -5.278   4.043   8.596  1.00  0.00     0.164 HD
ENDROOT
BRANCH   2   5
ATOM      5  C   UNL     1      -3.326   4.867   8.910  1.00  0.00     0.171 C 
ATOM      6  C   UNL     1      -1.615   4.008   6.733  1.00  0.00     0.214 C 
ATOM      7  N   UNL     1      -1.701   3.203   7.929  1.00  0.00    -0.303 N 
ATOM      8  C   UNL     1      -1.827   5.492   6.990  1.00  0.00     0.057 C 
ATOM      9  C   UNL     1      -2.537   3.528   8.985  1.00  0.00     0.247 C 
ATOM     10  C   UNL     1      -3.173   5.711   7.646  1.00  0.00     0.040 C 
ATOM     11  O   UNL     1      -2.670   2.788   9.968  1.00  0.00    -0.272 OA
BRANCH   6  12
ATOM     12  O   UNL     1      -2.572   3.525   5.819  1.00  0.00    -0.373 OA
ATOM     13  H   UNL     1      -3.453   3.656   6.230  1.00  0.00     0.213 HD
ENDBRANCH   6  12
BRANCH   7  14
ATOM     14  C   UNL     1      -0.965   1.921   7.928  1.00  0.00     0.177 C 
BRANCH  14  15
ATOM     15  C   UNL     1      -1.361   0.938   6.810  1.00  0.00     0.038 C 
BRANCH  15  16
ATOM     16  C   UNL     1      -1.523  -0.563   7.138  1.00  0.00    -0.015 C 
ATOM     17  C   UNL     1      -0.237  -1.183   7.692  1.00  0.00     0.007 C 
ATOM     18  C   UNL     1      -1.919  -1.331   5.870  1.00  0.00     0.007 C 
ENDBRANCH  15  16
ENDBRANCH  14  15
BRANCH  14  19
ATOM     19  C   UNL     1       0.487   2.127   8.483  1.00  0.00     0.245 C 
ATOM     20  O   UNL     1       1.326   2.593   7.694  1.00  0.00    -0.272 OA
BRANCH  19  21
ATOM     21  N   UNL     1       0.897   1.721   9.740  1.00  0.00    -0.332 N 
ATOM     22  C   UNL     1       0.098   0.955  10.681  1.00  0.00     0.147 C 
BRANCH  21  23
ATOM     23  C   UNL     1       2.265   2.105  10.184  1.00  0.00     0.178 C 
BRANCH  23  24
ATOM     24  C   UNL     1       2.327   2.802  11.558  1.00  0.00     0.070 C 
BRANCH  24  25
ATOM     25  C   UNL     1       1.932   4.259  11.610  1.00  0.00    -0.045 A 
ATOM     26  C   UNL     1       2.087   5.085  10.489  1.00  0.00     0.004 A 
ATOM     27  C   UNL     1       1.405   4.808  12.789  1.00  0.00     0.004 A 
ATOM     28  C   UNL     1       1.735   6.435  10.550  1.00  0.00     0.000 A 
ATOM     29  C   UNL     1       1.052   6.157  12.848  1.00  0.00     0.000 A 
ATOM     30  C   UNL     1       1.220   6.971  11.729  1.00  0.00     0.000 A 
ENDBRANCH  24  25
ENDBRANCH  23  24
BRANCH  23  31
ATOM     31  C   UNL     1       3.305   0.978   9.977  1.00  0.00     0.243 C 
ATOM     32  O   UNL     1       3.310   0.216   9.014  1.00  0.00    -0.273 OA
ATOM     33  N   UNL     1       4.129   0.779  11.072  1.00  0.00    -0.341 N 
ATOM     34  H   UNL     1       4.075   1.443  11.847  1.00  0.00     0.164 HD
BRANCH  33  35
ATOM     35  C   UNL     1       5.108  -0.310  11.147  1.00  0.00     0.194 C 
BRANCH  35  36
ATOM     36  C   UNL     1       5.166  -1.017  12.530  1.00  0.00     0.017 C 
ATOM     37  C   UNL     1       4.237  -2.243  12.571  1.00  0.00     0.010 C 
ATOM     38  C   UNL     1       4.767  -0.102  13.694  1.00  0.00     0.010 C 
ENDBRANCH  35  36
BRANCH  35  39
ATOM     39  C   UNL     1       6.519   0.120  10.656  1.00  0.00     0.329 C 
ATOM     40  O   UNL     1       6.760   1.193  10.116  1.00  0.00    -0.250 OA
BRANCH  39  41
ATOM     41  O   UNL     1       7.481  -0.799  10.971  1.00  0.00    -0.458 OA
BRANCH  41  42
ATOM     42  C   UNL     1       8.773  -0.614  10.346  1.00  0.00     0.205 CG0
ATOM     43  C   UNL     1       9.035  -1.840   9.473  1.00  0.00     0.056 C 
ATOM     44  G   UNL     1       9.834  -0.441  11.451  1.00  0.00     0.000 G0
ENDBRANCH  41  42
ENDBRANCH  39  41
ENDBRANCH  35  39
ENDBRANCH  33  35
ENDBRANCH  23  31
ENDBRANCH  21  23
ENDBRANCH  19  21
ENDBRANCH  14  19
ENDBRANCH   7  14
ENDBRANCH   2   5
BRANCH   3  45
ATOM     45  C   UNL     1      -6.748   4.705  10.629  1.00  0.00     0.171 C 
BRANCH  45  46
ATOM     46  N   UNL     1      -7.557   5.586   9.798  1.00  0.00    -0.342 N 
ATOM     47  C   UNL     1      -8.186   6.699  10.299  1.00  0.00     0.247 C 
ATOM     48  O   UNL     1      -8.054   7.073  11.465  1.00  0.00    -0.273 OA
ATOM     49  H   UNL     1      -7.647   5.344   8.813  1.00  0.00     0.164 HD
BRANCH  47  50
ATOM     50  C   UNL     1      -9.095   7.435   9.304  1.00  0.00     0.212 CG0
ATOM     51  G   UNL     1     -10.550   7.030   9.613  1.00  0.00     0.000 G0
BRANCH  50  52
ATOM     52  N   UNL     1      -8.833   8.856   9.516  1.00  0.00    -0.339 N 
ATOM     53  C   UNL     1      -9.760   9.725  10.037  1.00  0.00     0.243 C 
ATOM     54  O   UNL     1     -10.905   9.382  10.318  1.00  0.00    -0.273 OA
ATOM     55  H   UNL     1      -7.939   9.224   9.199  1.00  0.00     0.164 HD
BRANCH  53  56
ATOM     56  C   UNL     1      -9.287  11.192  10.087  1.00  0.00     0.182 C 
BRANCH  56  57
ATOM     57  N   UNL     1      -8.144  11.407   9.193  1.00  0.00    -0.344 N 
ATOM     58  C   UNL     1      -8.284  11.938   7.934  1.00  0.00     0.220 C 
ATOM     59  O   UNL     1      -9.376  12.201   7.443  1.00  0.00    -0.275 OA
ATOM     60  H   UNL     1      -7.217  11.298   9.597  1.00  0.00     0.164 HD
BRANCH  58  61
ATOM     61  C   UNL     1      -6.964  12.126   7.210  1.00  0.00     0.100 C 
BRANCH  61  62
ATOM     62  C   UNL     1      -6.364  10.825   6.676  1.00  0.00     0.010 C 
BRANCH  62  63
ATOM     63  C   UNL     1      -6.279  10.756   5.146  1.00  0.00     0.000 C 
BRANCH  63  64
ATOM     64  C   UNL     1      -7.568  11.149   4.428  1.00  0.00    -0.003 C 
ATOM     65  C   UNL     1      -8.622  10.057   4.540  1.00  0.00     0.004 C 
ENDBRANCH  63  64
ENDBRANCH  62  63
ENDBRANCH  61  62
ENDBRANCH  58  61
ENDBRANCH  56  57
BRANCH  56  66
ATOM     66  C   UNL     1      -8.991  11.637  11.518  1.00  0.00     0.157 C 
BRANCH  66  67
ATOM     67  C   UNL     1      -7.781  10.937  12.066  1.00  0.00     0.305 C 
ATOM     68  O   UNL     1      -6.612  11.190  11.817  1.00  0.00    -0.252 OA
BRANCH  67  69
ATOM     69  O   UNL     1      -8.104   9.975  12.951  1.00  0.00    -0.481 OA
ATOM     70  H   UNL     1      -9.010  10.202  13.249  1.00  0.00     0.296 HD
ENDBRANCH  67  69
ENDBRANCH  66  67
ENDBRANCH  56  66
ENDBRANCH  53  56
ENDBRANCH  50  52
ENDBRANCH  47  50
ENDBRANCH  45  46
BRANCH  45  71
ATOM     71  C   UNL     1      -7.094   4.853  12.115  1.00  0.00     0.037 C 
BRANCH  71  72
ATOM     72  C   UNL     1      -7.341   3.500  12.786  1.00  0.00     0.026 C 
BRANCH  72  73
ATOM     73  C   UNL     1      -6.243   3.166  13.795  1.00  0.00     0.146 C 
BRANCH  73  74
ATOM     74  N   UNL     1      -5.493   2.026  13.278  1.00  0.00    -0.254 NA
ATOM     75  C   UNL     1      -4.298   2.233  12.864  1.00  0.00     0.185 C 
ATOM     76  N   UNL     1      -3.582   1.203  12.385  1.00  0.00    -0.370 N 
ATOM     77  N   UNL     1      -3.602   3.383  12.831  1.00  0.00    -0.370 N 
ATOM     78  H   UNL     1      -4.034   0.300  12.367  1.00  0.00     0.159 HD
ATOM     79  H   UNL     1      -2.701   1.313  11.913  1.00  0.00     0.159 HD
ATOM     80  H   UNL     1      -4.014   4.242  13.165  1.00  0.00     0.159 HD
ATOM     81  H   UNL     1      -2.625   3.403  12.591  1.00  0.00     0.159 HD
ENDBRANCH  73  74
ENDBRANCH  72  73
ENDBRANCH  71  72
ENDBRANCH  45  71
ENDBRANCH   3  45
TORSDOF 20
ENDMDL
MODEL 14
REMARK VINA RESULT:    -5.766      6.164      9.835
REMARK INTER + INTRA:         -22.658
REMARK INTER:                 -16.508
REMARK INTRA:                  -6.149
REMARK UNBOUND:                -6.106
REMARK SMILES CCCCCC(=O)N[C@H](CC(=O)O)C(=O)N[C@H]1C(=O)N[C@H](CCCN=C(N)N)C(=O)N[C@@H]2CC[C@H](O)N(C2=O)[C@@H](CC(C)C)C(=O)N(C)[C@@H](Cc2ccccc2)C(=O)N[C@H](C(C)C)C(=O)O[C@@H]1C
REMARK SMILES IDX 30 1 31 2 29 3 32 5 35 6 37 7 34 8 38 9 33 10 39 11 36 12
REMARK SMILES IDX 40 14 41 15 42 16 43 17 44 18 45 19 46 20 47 21 48 22 49 23
REMARK SMILES IDX 50 24 51 25 52 26 56 27 53 28 55 29 54 30 57 31 58 32 59 33
REMARK SMILES IDX 60 35 61 36 62 37 63 38 64 39 65 40 66 41 67 42 68 43 21 45
REMARK SMILES IDX 20 46 18 47 19 48 17 50 16 52 14 53 15 54 9 56 8 57 6 58
REMARK SMILES IDX 7 59 5 61 4 62 3 63 2 64 1 65 10 66 11 67 12 68 13 69 22 71
REMARK SMILES IDX 23 72 24 73 25 74 26 75 27 76 28 77
REMARK H PARENT 31 4 36 13 59 34 20 49 16 55 8 60 13 70 27 78 27 79 28 80
REMARK H PARENT 28 81
REMARK Flexibility Score:  259.900
ROOT
ATOM      1  O   UNL     1      -2.888   6.159   7.787  1.00  0.00    -0.273 OA
ATOM      2  N   UNL     1      -2.298   8.349   8.081  1.00  0.00    -0.343 N 
ATOM      3  C   UNL     1      -2.032   6.996   8.072  1.00  0.00     0.243 C 
ATOM      4  H   UNL     1      -1.565   9.010   8.306  1.00  0.00     0.164 HD
ENDROOT
BRANCH   2   5
ATOM      5  C   UNL     1      -3.655   8.839   7.866  1.00  0.00     0.171 C 
ATOM      6  C   UNL     1      -4.751  11.503   7.536  1.00  0.00     0.214 C 
ATOM      7  N   UNL     1      -4.671  10.927   8.858  1.00  0.00    -0.303 N 
ATOM      8  C   UNL     1      -4.934  10.467   6.438  1.00  0.00     0.057 C 
ATOM      9  C   UNL     1      -4.112   9.681   9.092  1.00  0.00     0.247 C 
ATOM     10  C   UNL     1      -3.798   9.468   6.481  1.00  0.00     0.040 C 
ATOM     11  O   UNL     1      -3.968   9.232  10.237  1.00  0.00    -0.272 OA
BRANCH   6  12
ATOM     12  O   UNL     1      -3.576  12.248   7.318  1.00  0.00    -0.373 OA
ATOM     13  H   UNL     1      -3.231  11.990   6.436  1.00  0.00     0.213 HD
ENDBRANCH   6  12
BRANCH   7  14
ATOM     14  C   UNL     1      -5.078  11.787   9.989  1.00  0.00     0.177 C 
BRANCH  14  15
ATOM     15  C   UNL     1      -3.945  12.614  10.626  1.00  0.00     0.038 C 
BRANCH  15  16
ATOM     16  C   UNL     1      -4.064  13.060  12.101  1.00  0.00    -0.015 C 
ATOM     17  C   UNL     1      -4.905  14.329  12.261  1.00  0.00     0.007 C 
ATOM     18  C   UNL     1      -2.668  13.333  12.674  1.00  0.00     0.007 C 
ENDBRANCH  15  16
ENDBRANCH  14  15
BRANCH  14  19
ATOM     19  C   UNL     1      -6.557  12.270   9.799  1.00  0.00     0.245 C 
ATOM     20  O   UNL     1      -6.719  13.448   9.440  1.00  0.00    -0.272 OA
BRANCH  19  21
ATOM     21  N   UNL     1      -7.665  11.504  10.114  1.00  0.00    -0.332 N 
ATOM     22  C   UNL     1      -7.686  10.399  11.056  1.00  0.00     0.147 C 
BRANCH  21  23
ATOM     23  C   UNL     1      -8.949  11.822   9.429  1.00  0.00     0.178 C 
BRANCH  23  24
ATOM     24  C   UNL     1      -9.372  10.806   8.349  1.00  0.00     0.070 C 
BRANCH  24  25
ATOM     25  C   UNL     1      -8.869  11.044   6.944  1.00  0.00    -0.045 A 
ATOM     26  C   UNL     1      -8.866  10.011   5.998  1.00  0.00     0.004 A 
ATOM     27  C   UNL     1      -8.390  12.309   6.569  1.00  0.00     0.004 A 
ATOM     28  C   UNL     1      -8.383  10.236   4.707  1.00  0.00     0.000 A 
ATOM     29  C   UNL     1      -7.909  12.531   5.278  1.00  0.00     0.000 A 
ATOM     30  C   UNL     1      -7.903  11.493   4.349  1.00  0.00     0.000 A 
ENDBRANCH  24  25
ENDBRANCH  23  24
BRANCH  23  31
ATOM     31  C   UNL     1     -10.071  12.235  10.411  1.00  0.00     0.243 C 
ATOM     32  O   UNL     1      -9.925  13.053  11.316  1.00  0.00    -0.273 OA
ATOM     33  N   UNL     1     -11.215  11.463  10.300  1.00  0.00    -0.341 N 
ATOM     34  H   UNL     1     -11.276  10.793   9.529  1.00  0.00     0.164 HD
BRANCH  33  35
ATOM     35  C   UNL     1     -12.360  11.596  11.205  1.00  0.00     0.194 C 
BRANCH  35  36
ATOM     36  C   UNL     1     -12.248  10.743  12.500  1.00  0.00     0.017 C 
ATOM     37  C   UNL     1     -13.361   9.684  12.570  1.00  0.00     0.010 C 
ATOM     38  C   UNL     1     -12.329  11.579  13.783  1.00  0.00     0.010 C 
ENDBRANCH  35  36
BRANCH  35  39
ATOM     39  C   UNL     1     -13.720  11.381  10.484  1.00  0.00     0.329 C 
ATOM     40  O   UNL     1     -13.848  10.773   9.429  1.00  0.00    -0.250 OA
BRANCH  39  41
ATOM     41  O   UNL     1     -14.773  11.873  11.205  1.00  0.00    -0.458 OA
BRANCH  41  42
ATOM     42  C   UNL     1     -15.391  13.079  10.695  1.00  0.00     0.205 CG0
ATOM     43  C   UNL     1     -14.672  14.264  11.336  1.00  0.00     0.056 C 
ATOM     44  G   UNL     1     -16.894  13.045  11.039  1.00  0.00     0.000 G0
ENDBRANCH  41  42
ENDBRANCH  39  41
ENDBRANCH  35  39
ENDBRANCH  33  35
ENDBRANCH  23  31
ENDBRANCH  21  23
ENDBRANCH  19  21
ENDBRANCH  14  19
ENDBRANCH   7  14
ENDBRANCH   2   5
BRANCH   3  45
ATOM     45  C   UNL     1      -0.589   6.609   8.420  1.00  0.00     0.171 C 
BRANCH  45  46
ATOM     46  N   UNL     1      -0.616   5.175   8.675  1.00  0.00    -0.342 N 
ATOM     47  C   UNL     1       0.523   4.412   8.715  1.00  0.00     0.247 C 
ATOM     48  O   UNL     1       1.653   4.892   8.612  1.00  0.00    -0.273 OA
ATOM     49  H   UNL     1      -1.528   4.745   8.822  1.00  0.00     0.164 HD
BRANCH  47  50
ATOM     50  C   UNL     1       0.290   2.902   8.870  1.00  0.00     0.212 CG0
ATOM     51  G   UNL     1       1.530   2.307   9.567  1.00  0.00     0.000 G0
BRANCH  50  52
ATOM     52  N   UNL     1      -0.931   2.776   9.661  1.00  0.00    -0.339 N 
ATOM     53  C   UNL     1      -0.936   2.508  11.008  1.00  0.00     0.243 C 
ATOM     54  O   UNL     1       0.094   2.299  11.645  1.00  0.00    -0.273 OA
ATOM     55  H   UNL     1      -1.821   2.829   9.168  1.00  0.00     0.164 HD
BRANCH  53  56
ATOM     56  C   UNL     1      -2.345   2.335  11.609  1.00  0.00     0.182 C 
BRANCH  56  57
ATOM     57  N   UNL     1      -3.056   3.616  11.662  1.00  0.00    -0.344 N 
ATOM     58  C   UNL     1      -3.847   4.062  10.631  1.00  0.00     0.220 C 
ATOM     59  O   UNL     1      -3.955   3.459   9.569  1.00  0.00    -0.275 OA
ATOM     60  H   UNL     1      -3.074   4.096  12.558  1.00  0.00     0.164 HD
BRANCH  58  61
ATOM     61  C   UNL     1      -4.531   5.384  10.927  1.00  0.00     0.100 C 
BRANCH  61  62
ATOM     62  C   UNL     1      -5.896   5.535  10.256  1.00  0.00     0.010 C 
BRANCH  62  63
ATOM     63  C   UNL     1      -7.045   4.853  11.010  1.00  0.00     0.000 C 
BRANCH  63  64
ATOM     64  C   UNL     1      -6.961   4.982  12.530  1.00  0.00    -0.003 C 
ATOM     65  C   UNL     1      -7.354   3.684  13.220  1.00  0.00     0.004 C 
ENDBRANCH  63  64
ENDBRANCH  62  63
ENDBRANCH  61  62
ENDBRANCH  58  61
ENDBRANCH  56  57
BRANCH  56  66
ATOM     66  C   UNL     1      -2.292   1.648  12.973  1.00  0.00     0.157 C 
BRANCH  66  67
ATOM     67  C   UNL     1      -2.545   2.626  14.084  1.00  0.00     0.305 C 
ATOM     68  O   UNL     1      -1.712   3.303  14.668  1.00  0.00    -0.252 OA
BRANCH  67  69
ATOM     69  O   UNL     1      -3.854   2.743  14.375  1.00  0.00    -0.481 OA
ATOM     70  H   UNL     1      -4.131   1.843  14.651  1.00  0.00     0.296 HD
ENDBRANCH  67  69
ENDBRANCH  66  67
ENDBRANCH  56  66
ENDBRANCH  53  56
ENDBRANCH  50  52
ENDBRANCH  47  50
ENDBRANCH  45  46
BRANCH  45  71
ATOM     71  C   UNL     1      -0.106   7.392   9.646  1.00  0.00     0.037 C 
BRANCH  71  72
ATOM     72  C   UNL     1      -1.118   7.344  10.794  1.00  0.00     0.026 C 
BRANCH  72  73
ATOM     73  C   UNL     1      -0.779   6.242  11.794  1.00  0.00     0.146 C 
BRANCH  73  74
ATOM     74  N   UNL     1       0.374   6.683  12.572  1.00  0.00    -0.254 NA
ATOM     75  C   UNL     1       0.951   5.825  13.330  1.00  0.00     0.185 C 
ATOM     76  N   UNL     1       2.015   6.201  14.057  1.00  0.00    -0.370 N 
ATOM     77  N   UNL     1       0.644   4.530  13.526  1.00  0.00    -0.370 N 
ATOM     78  H   UNL     1       2.309   7.164  13.974  1.00  0.00     0.159 HD
ATOM     79  H   UNL     1       2.425   5.630  14.775  1.00  0.00     0.159 HD
ATOM     80  H   UNL     1      -0.133   4.107  13.040  1.00  0.00     0.159 HD
ATOM     81  H   UNL     1       1.241   3.921  14.059  1.00  0.00     0.159 HD
ENDBRANCH  73  74
ENDBRANCH  72  73
ENDBRANCH  71  72
ENDBRANCH  45  71
ENDBRANCH   3  45
TORSDOF 20
ENDMDL
MODEL 15
REMARK VINA RESULT:    -5.761      4.914     12.991
REMARK INTER + INTRA:         -22.643
REMARK INTER:                 -15.645
REMARK INTRA:                  -6.999
REMARK UNBOUND:                -6.106
REMARK SMILES CCCCCC(=O)N[C@H](CC(=O)O)C(=O)N[C@H]1C(=O)N[C@H](CCCN=C(N)N)C(=O)N[C@@H]2CC[C@H](O)N(C2=O)[C@@H](CC(C)C)C(=O)N(C)[C@@H](Cc2ccccc2)C(=O)N[C@H](C(C)C)C(=O)O[C@@H]1C
REMARK SMILES IDX 30 1 31 2 29 3 32 5 35 6 37 7 34 8 38 9 33 10 39 11 36 12
REMARK SMILES IDX 40 14 41 15 42 16 43 17 44 18 45 19 46 20 47 21 48 22 49 23
REMARK SMILES IDX 50 24 51 25 52 26 56 27 53 28 55 29 54 30 57 31 58 32 59 33
REMARK SMILES IDX 60 35 61 36 62 37 63 38 64 39 65 40 66 41 67 42 68 43 21 45
REMARK SMILES IDX 20 46 18 47 19 48 17 50 16 52 14 53 15 54 9 56 8 57 6 58
REMARK SMILES IDX 7 59 5 61 4 62 3 63 2 64 1 65 10 66 11 67 12 68 13 69 22 71
REMARK SMILES IDX 23 72 24 73 25 74 26 75 27 76 28 77
REMARK H PARENT 31 4 36 13 59 34 20 49 16 55 8 60 13 70 27 78 27 79 28 80
REMARK H PARENT 28 81
REMARK Flexibility Score:  259.900
ROOT
ATOM      1  O   UNL     1      -5.750  12.108   7.246  1.00  0.00    -0.273 OA
ATOM      2  N   UNL     1      -4.650  11.054   8.952  1.00  0.00    -0.343 N 
ATOM      3  C   UNL     1      -5.663  11.839   8.445  1.00  0.00     0.243 C 
ATOM      4  H   UNL     1      -4.618  10.842   9.941  1.00  0.00     0.164 HD
ENDROOT
BRANCH   2   5
ATOM      5  C   UNL     1      -3.560  10.602   8.094  1.00  0.00     0.171 C 
ATOM      6  C   UNL     1      -1.894   8.229   8.120  1.00  0.00     0.214 C 
ATOM      7  N   UNL     1      -1.463   9.408   8.834  1.00  0.00    -0.303 N 
ATOM      8  C   UNL     1      -2.747   8.543   6.900  1.00  0.00     0.057 C 
ATOM      9  C   UNL     1      -2.234  10.557   8.905  1.00  0.00     0.247 C 
ATOM     10  C   UNL     1      -3.959   9.349   7.316  1.00  0.00     0.040 C 
ATOM     11  O   UNL     1      -1.897  11.532   9.590  1.00  0.00    -0.272 OA
BRANCH   6  12
ATOM     12  O   UNL     1      -2.607   7.415   9.022  1.00  0.00    -0.373 OA
ATOM     13  H   UNL     1      -3.532   7.368   8.698  1.00  0.00     0.213 HD
ENDBRANCH   6  12
BRANCH   7  14
ATOM     14  C   UNL     1      -0.217   9.296   9.622  1.00  0.00     0.177 C 
BRANCH  14  15
ATOM     15  C   UNL     1      -0.366   8.599  10.989  1.00  0.00     0.038 C 
BRANCH  15  16
ATOM     16  C   UNL     1      -0.048   9.383  12.281  1.00  0.00    -0.015 C 
ATOM     17  C   UNL     1       0.620  10.732  11.997  1.00  0.00     0.007 C 
ATOM     18  C   UNL     1       0.892   8.559  13.170  1.00  0.00     0.007 C 
ENDBRANCH  15  16
ENDBRANCH  14  15
BRANCH  14  19
ATOM     19  C   UNL     1       1.020   9.166   8.668  1.00  0.00     0.245 C 
ATOM     20  O   UNL     1       1.964   8.466   9.068  1.00  0.00    -0.272 OA
BRANCH  19  21
ATOM     21  N   UNL     1       1.156   9.867   7.483  1.00  0.00    -0.332 N 
ATOM     22  C   UNL     1       0.835  11.270   7.292  1.00  0.00     0.147 C 
BRANCH  21  23
ATOM     23  C   UNL     1       1.664   9.130   6.293  1.00  0.00     0.178 C 
BRANCH  23  24
ATOM     24  C   UNL     1       0.727   9.159   5.068  1.00  0.00     0.070 C 
BRANCH  24  25
ATOM     25  C   UNL     1       1.038   8.201   3.941  1.00  0.00    -0.045 A 
ATOM     26  C   UNL     1       0.957   6.816   4.133  1.00  0.00     0.004 A 
ATOM     27  C   UNL     1       1.418   8.690   2.682  1.00  0.00     0.004 A 
ATOM     28  C   UNL     1       1.263   5.937   3.092  1.00  0.00     0.000 A 
ATOM     29  C   UNL     1       1.722   7.810   1.641  1.00  0.00     0.000 A 
ATOM     30  C   UNL     1       1.647   6.434   1.848  1.00  0.00     0.000 A 
ENDBRANCH  24  25
ENDBRANCH  23  24
BRANCH  23  31
ATOM     31  C   UNL     1       3.150   9.432   5.984  1.00  0.00     0.243 C 
ATOM     32  O   UNL     1       3.537  10.430   5.382  1.00  0.00    -0.273 OA
ATOM     33  N   UNL     1       4.001   8.382   6.283  1.00  0.00    -0.341 N 
ATOM     34  H   UNL     1       3.619   7.574   6.780  1.00  0.00     0.164 HD
BRANCH  33  35
ATOM     35  C   UNL     1       5.432   8.398   5.966  1.00  0.00     0.194 C 
BRANCH  35  36
ATOM     36  C   UNL     1       5.794   7.686   4.633  1.00  0.00     0.017 C 
ATOM     37  C   UNL     1       6.089   8.703   3.517  1.00  0.00     0.010 C 
ATOM     38  C   UNL     1       4.686   6.755   4.124  1.00  0.00     0.010 C 
ENDBRANCH  35  36
BRANCH  35  39
ATOM     39  C   UNL     1       6.312   7.902   7.147  1.00  0.00     0.329 C 
ATOM     40  O   UNL     1       6.005   8.019   8.328  1.00  0.00    -0.250 OA
BRANCH  39  41
ATOM     41  O   UNL     1       7.429   7.239   6.720  1.00  0.00    -0.458 OA
BRANCH  41  42
ATOM     42  C   UNL     1       8.701   7.793   7.137  1.00  0.00     0.205 CG0
ATOM     43  C   UNL     1       9.148   8.770   6.052  1.00  0.00     0.056 C 
ATOM     44  G   UNL     1       9.699   6.635   7.335  1.00  0.00     0.000 G0
ENDBRANCH  41  42
ENDBRANCH  39  41
ENDBRANCH  35  39
ENDBRANCH  33  35
ENDBRANCH  23  31
ENDBRANCH  21  23
ENDBRANCH  19  21
ENDBRANCH  14  19
ENDBRANCH   7  14
ENDBRANCH   2   5
BRANCH   3  45
ATOM     45  C   UNL     1      -6.685  12.338   9.474  1.00  0.00     0.171 C 
BRANCH  45  46
ATOM     46  N   UNL     1      -7.973  12.313   8.793  1.00  0.00    -0.342 N 
ATOM     47  C   UNL     1      -8.945  11.390   9.090  1.00  0.00     0.247 C 
ATOM     48  O   UNL     1      -8.830  10.567   9.998  1.00  0.00    -0.273 OA
ATOM     49  H   UNL     1      -8.133  13.014   8.072  1.00  0.00     0.164 HD
BRANCH  47  50
ATOM     50  C   UNL     1     -10.185  11.439   8.186  1.00  0.00     0.212 CG0
ATOM     51  G   UNL     1     -10.918  12.765   8.468  1.00  0.00     0.000 G0
BRANCH  50  52
ATOM     52  N   UNL     1      -9.676  11.340   6.821  1.00  0.00    -0.339 N 
ATOM     53  C   UNL     1      -9.169  10.181   6.286  1.00  0.00     0.243 C 
ATOM     54  O   UNL     1      -9.055   9.145   6.936  1.00  0.00    -0.273 OA
ATOM     55  H   UNL     1      -9.640  12.193   6.266  1.00  0.00     0.164 HD
BRANCH  53  56
ATOM     56  C   UNL     1      -8.611  10.341   4.856  1.00  0.00     0.182 C 
BRANCH  56  57
ATOM     57  N   UNL     1      -7.188  10.691   4.883  1.00  0.00    -0.344 N 
ATOM     58  C   UNL     1      -6.295  10.214   3.954  1.00  0.00     0.220 C 
ATOM     59  O   UNL     1      -6.609   9.408   3.085  1.00  0.00    -0.275 OA
ATOM     60  H   UNL     1      -6.907  11.432   5.520  1.00  0.00     0.164 HD
BRANCH  58  61
ATOM     61  C   UNL     1      -4.889  10.753   4.139  1.00  0.00     0.100 C 
BRANCH  61  62
ATOM     62  C   UNL     1      -3.948  10.433   2.977  1.00  0.00     0.010 C 
BRANCH  62  63
ATOM     63  C   UNL     1      -2.490  10.205   3.395  1.00  0.00     0.000 C 
BRANCH  63  64
ATOM     64  C   UNL     1      -1.746  11.478   3.795  1.00  0.00    -0.003 C 
ATOM     65  C   UNL     1      -0.681  11.843   2.771  1.00  0.00     0.004 C 
ENDBRANCH  63  64
ENDBRANCH  62  63
ENDBRANCH  61  62
ENDBRANCH  58  61
ENDBRANCH  56  57
BRANCH  56  66
ATOM     66  C   UNL     1      -9.435  11.337   4.042  1.00  0.00     0.157 C 
BRANCH  66  67
ATOM     67  C   UNL     1      -8.714  12.645   3.893  1.00  0.00     0.305 C 
ATOM     68  O   UNL     1      -8.092  13.032   2.915  1.00  0.00    -0.252 OA
BRANCH  67  69
ATOM     69  O   UNL     1      -8.856  13.434   4.975  1.00  0.00    -0.481 OA
ATOM     70  H   UNL     1      -8.047  13.988   4.989  1.00  0.00     0.296 HD
ENDBRANCH  67  69
ENDBRANCH  66  67
ENDBRANCH  56  66
ENDBRANCH  53  56
ENDBRANCH  50  52
ENDBRANCH  47  50
ENDBRANCH  45  46
BRANCH  45  71
ATOM     71  C   UNL     1      -6.323  13.750   9.946  1.00  0.00     0.037 C 
BRANCH  71  72
ATOM     72  C   UNL     1      -5.486  13.732  11.227  1.00  0.00     0.026 C 
BRANCH  72  73
ATOM     73  C   UNL     1      -4.814  15.081  11.477  1.00  0.00     0.146 C 
BRANCH  73  74
ATOM     74  N   UNL     1      -5.198  15.979  10.392  1.00  0.00    -0.254 NA
ATOM     75  C   UNL     1      -4.411  16.952  10.114  1.00  0.00     0.185 C 
ATOM     76  N   UNL     1      -4.737  17.795   9.120  1.00  0.00    -0.370 N 
ATOM     77  N   UNL     1      -3.243  17.285  10.689  1.00  0.00    -0.370 N 
ATOM     78  H   UNL     1      -5.607  17.620   8.638  1.00  0.00     0.159 HD
ATOM     79  H   UNL     1      -4.249  18.655   8.942  1.00  0.00     0.159 HD
ATOM     80  H   UNL     1      -2.870  16.737  11.449  1.00  0.00     0.159 HD
ATOM     81  H   UNL     1      -2.653  18.007  10.308  1.00  0.00     0.159 HD
ENDBRANCH  73  74
ENDBRANCH  72  73
ENDBRANCH  71  72
ENDBRANCH  45  71
ENDBRANCH   3  45
TORSDOF 20
ENDMDL
MODEL 16
REMARK VINA RESULT:    -5.744      6.042     15.100
REMARK INTER + INTRA:         -22.594
REMARK INTER:                 -16.884
REMARK INTRA:                  -5.711
REMARK UNBOUND:                -6.106
REMARK SMILES CCCCCC(=O)N[C@H](CC(=O)O)C(=O)N[C@H]1C(=O)N[C@H](CCCN=C(N)N)C(=O)N[C@@H]2CC[C@H](O)N(C2=O)[C@@H](CC(C)C)C(=O)N(C)[C@@H](Cc2ccccc2)C(=O)N[C@H](C(C)C)C(=O)O[C@@H]1C
REMARK SMILES IDX 30 1 31 2 29 3 32 5 35 6 37 7 34 8 38 9 33 10 39 11 36 12
REMARK SMILES IDX 40 14 41 15 42 16 43 17 44 18 45 19 46 20 47 21 48 22 49 23
REMARK SMILES IDX 50 24 51 25 52 26 56 27 53 28 55 29 54 30 57 31 58 32 59 33
REMARK SMILES IDX 60 35 61 36 62 37 63 38 64 39 65 40 66 41 67 42 68 43 21 45
REMARK SMILES IDX 20 46 18 47 19 48 17 50 16 52 14 53 15 54 9 56 8 57 6 58
REMARK SMILES IDX 7 59 5 61 4 62 3 63 2 64 1 65 10 66 11 67 12 68 13 69 22 71
REMARK SMILES IDX 23 72 24 73 25 74 26 75 27 76 28 77
REMARK H PARENT 31 4 36 13 59 34 20 49 16 55 8 60 13 70 27 78 27 79 28 80
REMARK H PARENT 28 81
REMARK Flexibility Score:  259.900
ROOT
ATOM      1  O   UNL     1      -1.182   9.891   7.763  1.00  0.00    -0.273 OA
ATOM      2  N   UNL     1       0.452  10.517   6.290  1.00  0.00    -0.343 N 
ATOM      3  C   UNL     1      -0.842  10.526   6.765  1.00  0.00     0.243 C 
ATOM      4  H   UNL     1       0.698  11.064   5.474  1.00  0.00     0.164 HD
ENDROOT
BRANCH   2   5
ATOM      5  C   UNL     1       1.457   9.648   6.892  1.00  0.00     0.171 C 
ATOM      6  C   UNL     1       4.257   9.181   6.302  1.00  0.00     0.214 C 
ATOM      7  N   UNL     1       3.251   8.359   5.671  1.00  0.00    -0.303 N 
ATOM      8  C   UNL     1       3.846   9.686   7.676  1.00  0.00     0.057 C 
ATOM      9  C   UNL     1       1.895   8.561   5.869  1.00  0.00     0.247 C 
ATOM     10  C   UNL     1       2.554  10.467   7.570  1.00  0.00     0.040 C 
ATOM     11  O   UNL     1       1.038   7.909   5.258  1.00  0.00    -0.272 OA
BRANCH   6  12
ATOM     12  O   UNL     1       4.530  10.263   5.442  1.00  0.00    -0.373 OA
ATOM     13  H   UNL     1       5.327  10.714   5.792  1.00  0.00     0.213 HD
ENDBRANCH   6  12
BRANCH   7  14
ATOM     14  C   UNL     1       3.720   7.371   4.676  1.00  0.00     0.177 C 
BRANCH  14  15
ATOM     15  C   UNL     1       3.843   7.900   3.234  1.00  0.00     0.038 C 
BRANCH  15  16
ATOM     16  C   UNL     1       2.657   7.732   2.258  1.00  0.00    -0.015 C 
ATOM     17  C   UNL     1       2.963   6.740   1.132  1.00  0.00     0.007 C 
ATOM     18  C   UNL     1       2.310   9.085   1.625  1.00  0.00     0.007 C 
ENDBRANCH  15  16
ENDBRANCH  14  15
BRANCH  14  19
ATOM     19  C   UNL     1       4.690   6.340   5.349  1.00  0.00     0.245 C 
ATOM     20  O   UNL     1       5.875   6.361   4.977  1.00  0.00    -0.272 OA
BRANCH  19  21
ATOM     21  N   UNL     1       4.278   5.357   6.232  1.00  0.00    -0.332 N 
ATOM     22  C   UNL     1       4.255   5.479   7.679  1.00  0.00     0.147 C 
BRANCH  21  23
ATOM     23  C   UNL     1       3.829   4.056   5.664  1.00  0.00     0.178 C 
BRANCH  23  24
ATOM     24  C   UNL     1       4.050   3.903   4.145  1.00  0.00     0.070 C 
BRANCH  24  25
ATOM     25  C   UNL     1       2.818   3.802   3.277  1.00  0.00    -0.045 A 
ATOM     26  C   UNL     1       2.816   3.007   2.124  1.00  0.00     0.004 A 
ATOM     27  C   UNL     1       1.655   4.512   3.614  1.00  0.00     0.004 A 
ATOM     28  C   UNL     1       1.678   2.933   1.317  1.00  0.00     0.000 A 
ATOM     29  C   UNL     1       0.519   4.435   2.807  1.00  0.00     0.000 A 
ATOM     30  C   UNL     1       0.532   3.648   1.658  1.00  0.00     0.000 A 
ENDBRANCH  24  25
ENDBRANCH  23  24
BRANCH  23  31
ATOM     31  C   UNL     1       4.275   2.841   6.513  1.00  0.00     0.243 C 
ATOM     32  O   UNL     1       3.527   2.211   7.257  1.00  0.00    -0.273 OA
ATOM     33  N   UNL     1       5.644   2.633   6.505  1.00  0.00    -0.341 N 
ATOM     34  H   UNL     1       6.216   3.193   5.868  1.00  0.00     0.164 HD
BRANCH  33  35
ATOM     35  C   UNL     1       6.302   1.615   7.329  1.00  0.00     0.194 C 
BRANCH  35  36
ATOM     36  C   UNL     1       7.612   2.101   8.011  1.00  0.00     0.017 C 
ATOM     37  C   UNL     1       7.491   2.061   9.545  1.00  0.00     0.010 C 
ATOM     38  C   UNL     1       8.004   3.531   7.619  1.00  0.00     0.010 C 
ENDBRANCH  35  36
BRANCH  35  39
ATOM     39  C   UNL     1       6.506   0.273   6.572  1.00  0.00     0.329 C 
ATOM     40  O   UNL     1       5.764  -0.134   5.685  1.00  0.00    -0.250 OA
BRANCH  39  41
ATOM     41  O   UNL     1       7.656  -0.365   6.944  1.00  0.00    -0.458 OA
BRANCH  41  42
ATOM     42  C   UNL     1       7.513  -1.731   7.399  1.00  0.00     0.205 CG0
ATOM     43  C   UNL     1       7.178  -1.682   8.888  1.00  0.00     0.056 C 
ATOM     44  G   UNL     1       8.828  -2.484   7.116  1.00  0.00     0.000 G0
ENDBRANCH  41  42
ENDBRANCH  39  41
ENDBRANCH  35  39
ENDBRANCH  33  35
ENDBRANCH  23  31
ENDBRANCH  21  23
ENDBRANCH  19  21
ENDBRANCH  14  19
ENDBRANCH   7  14
ENDBRANCH   2   5
BRANCH   3  45
ATOM     45  C   UNL     1      -1.826  11.401   5.975  1.00  0.00     0.171 C 
BRANCH  45  46
ATOM     46  N   UNL     1      -2.766  11.922   6.958  1.00  0.00    -0.342 N 
ATOM     47  C   UNL     1      -2.473  12.995   7.761  1.00  0.00     0.247 C 
ATOM     48  O   UNL     1      -1.428  13.639   7.660  1.00  0.00    -0.273 OA
ATOM     49  H   UNL     1      -3.667  11.452   7.035  1.00  0.00     0.164 HD
BRANCH  47  50
ATOM     50  C   UNL     1      -3.534  13.323   8.821  1.00  0.00     0.212 CG0
ATOM     51  G   UNL     1      -3.823  14.836   8.741  1.00  0.00     0.000 G0
BRANCH  50  52
ATOM     52  N   UNL     1      -4.690  12.497   8.483  1.00  0.00    -0.339 N 
ATOM     53  C   UNL     1      -5.989  12.893   8.691  1.00  0.00     0.243 C 
ATOM     54  O   UNL     1      -6.278  13.959   9.229  1.00  0.00    -0.273 OA
ATOM     55  H   UNL     1      -4.514  11.556   8.136  1.00  0.00     0.164 HD
BRANCH  53  56
ATOM     56  C   UNL     1      -7.037  11.819   8.337  1.00  0.00     0.182 C 
BRANCH  56  57
ATOM     57  N   UNL     1      -7.323  11.816   6.899  1.00  0.00    -0.344 N 
ATOM     58  C   UNL     1      -6.591  11.073   6.005  1.00  0.00     0.220 C 
ATOM     59  O   UNL     1      -5.606  10.421   6.334  1.00  0.00    -0.275 OA
ATOM     60  H   UNL     1      -8.188  12.258   6.600  1.00  0.00     0.164 HD
BRANCH  58  61
ATOM     61  C   UNL     1      -7.100  11.175   4.579  1.00  0.00     0.100 C 
BRANCH  61  62
ATOM     62  C   UNL     1      -7.739  12.524   4.248  1.00  0.00     0.010 C 
BRANCH  62  63
ATOM     63  C   UNL     1      -8.284  12.626   2.818  1.00  0.00     0.000 C 
BRANCH  63  64
ATOM     64  C   UNL     1      -9.801  12.788   2.735  1.00  0.00    -0.003 C 
ATOM     65  C   UNL     1     -10.518  11.489   3.077  1.00  0.00     0.004 C 
ENDBRANCH  63  64
ENDBRANCH  62  63
ENDBRANCH  61  62
ENDBRANCH  58  61
ENDBRANCH  56  57
BRANCH  56  66
ATOM     66  C   UNL     1      -8.304  11.975   9.176  1.00  0.00     0.157 C 
BRANCH  66  67
ATOM     67  C   UNL     1      -9.505  11.436   8.454  1.00  0.00     0.305 C 
ATOM     68  O   UNL     1      -9.622  10.329   7.952  1.00  0.00    -0.252 OA
BRANCH  67  69
ATOM     69  O   UNL     1     -10.531  12.309   8.443  1.00  0.00    -0.481 OA
ATOM     70  H   UNL     1     -10.468  12.757   7.573  1.00  0.00     0.296 HD
ENDBRANCH  67  69
ENDBRANCH  66  67
ENDBRANCH  56  66
ENDBRANCH  53  56
ENDBRANCH  50  52
ENDBRANCH  47  50
ENDBRANCH  45  46
BRANCH  45  71
ATOM     71  C   UNL     1      -2.534  10.569   4.900  1.00  0.00     0.037 C 
BRANCH  71  72
ATOM     72  C   UNL     1      -1.626  10.285   3.701  1.00  0.00     0.026 C 
BRANCH  72  73
ATOM     73  C   UNL     1      -1.303  11.562   2.927  1.00  0.00     0.146 C 
BRANCH  73  74
ATOM     74  N   UNL     1      -0.566  11.182   1.726  1.00  0.00    -0.254 NA
ATOM     75  C   UNL     1      -1.190  11.214   0.606  1.00  0.00     0.185 C 
ATOM     76  N   UNL     1      -0.539  10.871  -0.517  1.00  0.00    -0.370 N 
ATOM     77  N   UNL     1      -2.467  11.555   0.359  1.00  0.00    -0.370 N 
ATOM     78  H   UNL     1       0.428  10.593  -0.420  1.00  0.00     0.159 HD
ATOM     79  H   UNL     1      -0.995  10.733  -1.402  1.00  0.00     0.159 HD
ATOM     80  H   UNL     1      -3.077  11.839   1.111  1.00  0.00     0.159 HD
ATOM     81  H   UNL     1      -2.815  11.653  -0.580  1.00  0.00     0.159 HD
ENDBRANCH  73  74
ENDBRANCH  72  73
ENDBRANCH  71  72
ENDBRANCH  45  71
ENDBRANCH   3  45
TORSDOF 20
ENDMDL
MODEL 17
REMARK VINA RESULT:    -5.669      8.978     16.418
REMARK INTER + INTRA:         -22.379
REMARK INTER:                 -15.471
REMARK INTRA:                  -6.908
REMARK UNBOUND:                -6.106
REMARK SMILES CCCCCC(=O)N[C@H](CC(=O)O)C(=O)N[C@H]1C(=O)N[C@H](CCCN=C(N)N)C(=O)N[C@@H]2CC[C@H](O)N(C2=O)[C@@H](CC(C)C)C(=O)N(C)[C@@H](Cc2ccccc2)C(=O)N[C@H](C(C)C)C(=O)O[C@@H]1C
REMARK SMILES IDX 30 1 31 2 29 3 32 5 35 6 37 7 34 8 38 9 33 10 39 11 36 12
REMARK SMILES IDX 40 14 41 15 42 16 43 17 44 18 45 19 46 20 47 21 48 22 49 23
REMARK SMILES IDX 50 24 51 25 52 26 56 27 53 28 55 29 54 30 57 31 58 32 59 33
REMARK SMILES IDX 60 35 61 36 62 37 63 38 64 39 65 40 66 41 67 42 68 43 21 45
REMARK SMILES IDX 20 46 18 47 19 48 17 50 16 52 14 53 15 54 9 56 8 57 6 58
REMARK SMILES IDX 7 59 5 61 4 62 3 63 2 64 1 65 10 66 11 67 12 68 13 69 22 71
REMARK SMILES IDX 23 72 24 73 25 74 26 75 27 76 28 77
REMARK H PARENT 31 4 36 13 59 34 20 49 16 55 8 60 13 70 27 78 27 79 28 80
REMARK H PARENT 28 81
REMARK Flexibility Score:  259.900
ROOT
ATOM      1  O   UNL     1      -2.614   2.782  11.417  1.00  0.00    -0.273 OA
ATOM      2  N   UNL     1      -1.690   4.845  11.070  1.00  0.00    -0.343 N 
ATOM      3  C   UNL     1      -2.730   3.942  11.019  1.00  0.00     0.243 C 
ATOM      4  H   UNL     1      -1.826   5.795  10.747  1.00  0.00     0.164 HD
ENDROOT
BRANCH   2   5
ATOM      5  C   UNL     1      -0.359   4.423  11.492  1.00  0.00     0.171 C 
ATOM      6  C   UNL     1       1.953   5.885  12.453  1.00  0.00     0.214 C 
ATOM      7  N   UNL     1       1.812   5.627  11.039  1.00  0.00    -0.303 N 
ATOM      8  C   UNL     1       1.317   4.814  13.325  1.00  0.00     0.057 C 
ATOM      9  C   UNL     1       0.709   4.980  10.508  1.00  0.00     0.247 C 
ATOM     10  C   UNL     1      -0.151   4.679  12.984  1.00  0.00     0.040 C 
ATOM     11  O   UNL     1       0.554   4.840   9.287  1.00  0.00    -0.272 OA
BRANCH   6  12
ATOM     12  O   UNL     1       1.378   7.143  12.721  1.00  0.00    -0.373 OA
ATOM     13  H   UNL     1       0.423   7.074  12.506  1.00  0.00     0.213 HD
ENDBRANCH   6  12
BRANCH   7  14
ATOM     14  C   UNL     1       2.833   6.216  10.145  1.00  0.00     0.177 C 
BRANCH  14  15
ATOM     15  C   UNL     1       2.838   7.756  10.080  1.00  0.00     0.038 C 
BRANCH  15  16
ATOM     16  C   UNL     1       3.997   8.541  10.732  1.00  0.00    -0.015 C 
ATOM     17  C   UNL     1       3.534   9.388  11.921  1.00  0.00     0.007 C 
ATOM     18  C   UNL     1       4.638   9.475   9.698  1.00  0.00     0.007 C 
ENDBRANCH  15  16
ENDBRANCH  14  15
BRANCH  14  19
ATOM     19  C   UNL     1       4.105   5.302  10.097  1.00  0.00     0.245 C 
ATOM     20  O   UNL     1       4.112   4.313  10.848  1.00  0.00    -0.272 OA
BRANCH  19  21
ATOM     21  N   UNL     1       5.239   5.597   9.361  1.00  0.00    -0.332 N 
ATOM     22  C   UNL     1       6.474   6.141   9.898  1.00  0.00     0.147 C 
BRANCH  21  23
ATOM     23  C   UNL     1       5.200   5.352   7.893  1.00  0.00     0.178 C 
BRANCH  23  24
ATOM     24  C   UNL     1       4.050   4.439   7.422  1.00  0.00     0.070 C 
BRANCH  24  25
ATOM     25  C   UNL     1       3.977   4.130   5.945  1.00  0.00    -0.045 A 
ATOM     26  C   UNL     1       4.910   3.275   5.344  1.00  0.00     0.004 A 
ATOM     27  C   UNL     1       2.973   4.702   5.150  1.00  0.00     0.004 A 
ATOM     28  C   UNL     1       4.847   3.008   3.975  1.00  0.00     0.000 A 
ATOM     29  C   UNL     1       2.910   4.433   3.782  1.00  0.00     0.000 A 
ATOM     30  C   UNL     1       3.850   3.588   3.195  1.00  0.00     0.000 A 
ENDBRANCH  24  25
ENDBRANCH  23  24
BRANCH  23  31
ATOM     31  C   UNL     1       5.391   6.642   7.060  1.00  0.00     0.243 C 
ATOM     32  O   UNL     1       4.551   7.534   6.973  1.00  0.00    -0.273 OA
ATOM     33  N   UNL     1       6.524   6.624   6.265  1.00  0.00    -0.341 N 
ATOM     34  H   UNL     1       7.185   5.851   6.378  1.00  0.00     0.164 HD
BRANCH  33  35
ATOM     35  C   UNL     1       6.844   7.685   5.306  1.00  0.00     0.194 C 
BRANCH  35  36
ATOM     36  C   UNL     1       6.665   7.272   3.818  1.00  0.00     0.017 C 
ATOM     37  C   UNL     1       5.180   7.263   3.416  1.00  0.00     0.010 C 
ATOM     38  C   UNL     1       7.234   5.884   3.504  1.00  0.00     0.010 C 
ENDBRANCH  35  36
BRANCH  35  39
ATOM     39  C   UNL     1       8.236   8.326   5.567  1.00  0.00     0.329 C 
ATOM     40  O   UNL     1       9.245   7.688   5.843  1.00  0.00    -0.250 OA
BRANCH  39  41
ATOM     41  O   UNL     1       8.231   9.679   5.368  1.00  0.00    -0.458 OA
BRANCH  41  42
ATOM     42  C   UNL     1       9.405  10.238   4.731  1.00  0.00     0.205 CG0
ATOM     43  C   UNL     1       9.141  10.255   3.227  1.00  0.00     0.056 C 
ATOM     44  G   UNL     1      10.626   9.374   5.106  1.00  0.00     0.000 G0
ENDBRANCH  41  42
ENDBRANCH  39  41
ENDBRANCH  35  39
ENDBRANCH  33  35
ENDBRANCH  23  31
ENDBRANCH  21  23
ENDBRANCH  19  21
ENDBRANCH  14  19
ENDBRANCH   7  14
ENDBRANCH   2   5
BRANCH   3  45
ATOM     45  C   UNL     1      -4.047   4.487  10.453  1.00  0.00     0.171 C 
BRANCH  45  46
ATOM     46  N   UNL     1      -5.100   3.686  11.063  1.00  0.00    -0.342 N 
ATOM     47  C   UNL     1      -5.862   4.144  12.109  1.00  0.00     0.247 C 
ATOM     48  O   UNL     1      -5.763   5.286  12.558  1.00  0.00    -0.273 OA
ATOM     49  H   UNL     1      -5.254   2.753  10.685  1.00  0.00     0.164 HD
BRANCH  47  50
ATOM     50  C   UNL     1      -6.836   3.116  12.703  1.00  0.00     0.212 CG0
ATOM     51  G   UNL     1      -8.257   3.501  12.247  1.00  0.00     0.000 G0
BRANCH  50  52
ATOM     52  N   UNL     1      -6.396   1.821  12.190  1.00  0.00    -0.339 N 
ATOM     53  C   UNL     1      -5.862   0.836  12.984  1.00  0.00     0.243 C 
ATOM     54  O   UNL     1      -5.663   0.989  14.186  1.00  0.00    -0.273 OA
ATOM     55  H   UNL     1      -6.432   1.675  11.183  1.00  0.00     0.164 HD
BRANCH  53  56
ATOM     56  C   UNL     1      -5.391  -0.410  12.207  1.00  0.00     0.182 C 
BRANCH  56  57
ATOM     57  N   UNL     1      -4.070  -0.189  11.609  1.00  0.00    -0.344 N 
ATOM     58  C   UNL     1      -3.016  -1.046  11.814  1.00  0.00     0.220 C 
ATOM     59  O   UNL     1      -3.084  -2.012  12.566  1.00  0.00    -0.275 OA
ATOM     60  H   UNL     1      -4.001   0.539  10.902  1.00  0.00     0.164 HD
BRANCH  58  61
ATOM     61  C   UNL     1      -1.765  -0.653  11.051  1.00  0.00     0.100 C 
BRANCH  61  62
ATOM     62  C   UNL     1      -1.921  -0.721   9.532  1.00  0.00     0.010 C 
BRANCH  62  63
ATOM     63  C   UNL     1      -1.290   0.459   8.782  1.00  0.00     0.000 C 
BRANCH  63  64
ATOM     64  C   UNL     1       0.184   0.263   8.433  1.00  0.00    -0.003 C 
ATOM     65  C   UNL     1       1.058   1.315   9.102  1.00  0.00     0.004 C 
ENDBRANCH  63  64
ENDBRANCH  62  63
ENDBRANCH  61  62
ENDBRANCH  58  61
ENDBRANCH  56  57
BRANCH  56  66
ATOM     66  C   UNL     1      -6.426  -0.850  11.172  1.00  0.00     0.157 C 
BRANCH  66  67
ATOM     67  C   UNL     1      -5.871  -1.909  10.265  1.00  0.00     0.305 C 
ATOM     68  O   UNL     1      -5.628  -1.799   9.073  1.00  0.00    -0.252 OA
BRANCH  67  69
ATOM     69  O   UNL     1      -5.598  -3.053  10.921  1.00  0.00    -0.481 OA
ATOM     70  H   UNL     1      -4.891  -2.815  11.557  1.00  0.00     0.296 HD
ENDBRANCH  67  69
ENDBRANCH  66  67
ENDBRANCH  56  66
ENDBRANCH  53  56
ENDBRANCH  50  52
ENDBRANCH  47  50
ENDBRANCH  45  46
BRANCH  45  71
ATOM     71  C   UNL     1      -4.061   4.370   8.925  1.00  0.00     0.037 C 
BRANCH  71  72
ATOM     72  C   UNL     1      -3.609   5.664   8.244  1.00  0.00     0.026 C 
BRANCH  72  73
ATOM     73  C   UNL     1      -2.326   5.456   7.441  1.00  0.00     0.146 C 
BRANCH  73  74
ATOM     74  N   UNL     1      -2.415   4.155   6.787  1.00  0.00    -0.254 NA
ATOM     75  C   UNL     1      -1.320   3.562   6.481  1.00  0.00     0.185 C 
ATOM     76  N   UNL     1      -1.370   2.363   5.879  1.00  0.00    -0.370 N 
ATOM     77  N   UNL     1      -0.055   3.971   6.678  1.00  0.00    -0.370 N 
ATOM     78  H   UNL     1      -2.286   1.985   5.687  1.00  0.00     0.159 HD
ATOM     79  H   UNL     1      -0.566   1.909   5.483  1.00  0.00     0.159 HD
ATOM     80  H   UNL     1       0.136   4.855   7.126  1.00  0.00     0.159 HD
ATOM     81  H   UNL     1       0.730   3.365   6.500  1.00  0.00     0.159 HD
ENDBRANCH  73  74
ENDBRANCH  72  73
ENDBRANCH  71  72
ENDBRANCH  45  71
ENDBRANCH   3  45
TORSDOF 20
ENDMDL
MODEL 18
REMARK VINA RESULT:    -5.653      2.967      5.098
REMARK INTER + INTRA:         -22.333
REMARK INTER:                 -16.405
REMARK INTRA:                  -5.929
REMARK UNBOUND:                -6.106
REMARK SMILES CCCCCC(=O)N[C@H](CC(=O)O)C(=O)N[C@H]1C(=O)N[C@H](CCCN=C(N)N)C(=O)N[C@@H]2CC[C@H](O)N(C2=O)[C@@H](CC(C)C)C(=O)N(C)[C@@H](Cc2ccccc2)C(=O)N[C@H](C(C)C)C(=O)O[C@@H]1C
REMARK SMILES IDX 30 1 31 2 29 3 32 5 35 6 37 7 34 8 38 9 33 10 39 11 36 12
REMARK SMILES IDX 40 14 41 15 42 16 43 17 44 18 45 19 46 20 47 21 48 22 49 23
REMARK SMILES IDX 50 24 51 25 52 26 56 27 53 28 55 29 54 30 57 31 58 32 59 33
REMARK SMILES IDX 60 35 61 36 62 37 63 38 64 39 65 40 66 41 67 42 68 43 21 45
REMARK SMILES IDX 20 46 18 47 19 48 17 50 16 52 14 53 15 54 9 56 8 57 6 58
REMARK SMILES IDX 7 59 5 61 4 62 3 63 2 64 1 65 10 66 11 67 12 68 13 69 22 71
REMARK SMILES IDX 23 72 24 73 25 74 26 75 27 76 28 77
REMARK H PARENT 31 4 36 13 59 34 20 49 16 55 8 60 13 70 27 78 27 79 28 80
REMARK H PARENT 28 81
REMARK Flexibility Score:  259.900
ROOT
ATOM      1  O   UNL     1      -2.061  11.795   4.805  1.00  0.00    -0.273 OA
ATOM      2  N   UNL     1      -2.575   9.717   5.610  1.00  0.00    -0.343 N 
ATOM      3  C   UNL     1      -2.390  10.628   4.592  1.00  0.00     0.243 C 
ATOM      4  H   UNL     1      -2.831   8.761   5.396  1.00  0.00     0.164 HD
ENDROOT
BRANCH   2   5
ATOM      5  C   UNL     1      -2.504  10.138   7.004  1.00  0.00     0.171 C 
ATOM      6  C   UNL     1      -3.562   9.005   9.454  1.00  0.00     0.214 C 
ATOM      7  N   UNL     1      -4.349   9.968   8.719  1.00  0.00    -0.303 N 
ATOM      8  C   UNL     1      -2.063   9.209   9.299  1.00  0.00     0.057 C 
ATOM      9  C   UNL     1      -3.926  10.509   7.516  1.00  0.00     0.247 C 
ATOM     10  C   UNL     1      -1.687   9.150   7.835  1.00  0.00     0.040 C 
ATOM     11  O   UNL     1      -4.643  11.267   6.849  1.00  0.00    -0.272 OA
BRANCH   6  12
ATOM     12  O   UNL     1      -3.932   7.720   9.013  1.00  0.00    -0.373 OA
ATOM     13  H   UNL     1      -4.836   7.548   9.354  1.00  0.00     0.213 HD
ENDBRANCH   6  12
BRANCH   7  14
ATOM     14  C   UNL     1      -5.708  10.251   9.227  1.00  0.00     0.177 C 
BRANCH  14  15
ATOM     15  C   UNL     1      -6.678   9.054   9.208  1.00  0.00     0.038 C 
BRANCH  15  16
ATOM     16  C   UNL     1      -8.199   9.308   9.115  1.00  0.00    -0.015 C 
ATOM     17  C   UNL     1      -9.018   8.024   9.281  1.00  0.00     0.007 C 
ATOM     18  C   UNL     1      -8.540   9.921   7.751  1.00  0.00     0.007 C 
ENDBRANCH  15  16
ENDBRANCH  14  15
BRANCH  14  19
ATOM     19  C   UNL     1      -5.654  11.356  10.337  1.00  0.00     0.245 C 
ATOM     20  O   UNL     1      -4.649  11.368  11.067  1.00  0.00    -0.272 OA
BRANCH  19  21
ATOM     21  N   UNL     1      -6.695  12.226  10.611  1.00  0.00    -0.332 N 
ATOM     22  C   UNL     1      -7.441  12.985   9.622  1.00  0.00     0.147 C 
BRANCH  21  23
ATOM     23  C   UNL     1      -7.086  12.417  12.034  1.00  0.00     0.178 C 
BRANCH  23  24
ATOM     24  C   UNL     1      -7.132  13.887  12.500  1.00  0.00     0.070 C 
BRANCH  24  25
ATOM     25  C   UNL     1      -5.879  14.709  12.307  1.00  0.00    -0.045 A 
ATOM     26  C   UNL     1      -5.862  15.795  11.423  1.00  0.00     0.004 A 
ATOM     27  C   UNL     1      -4.709  14.390  13.012  1.00  0.00     0.004 A 
ATOM     28  C   UNL     1      -4.695  16.539  11.238  1.00  0.00     0.000 A 
ATOM     29  C   UNL     1      -3.543  15.136  12.827  1.00  0.00     0.000 A 
ATOM     30  C   UNL     1      -3.537  16.208  11.937  1.00  0.00     0.000 A 
ENDBRANCH  24  25
ENDBRANCH  23  24
BRANCH  23  31
ATOM     31  C   UNL     1      -8.312  11.566  12.443  1.00  0.00     0.243 C 
ATOM     32  O   UNL     1      -8.297  10.342  12.540  1.00  0.00    -0.273 OA
ATOM     33  N   UNL     1      -9.490  12.291  12.513  1.00  0.00    -0.341 N 
ATOM     34  H   UNL     1      -9.440  13.308  12.419  1.00  0.00     0.164 HD
BRANCH  33  35
ATOM     35  C   UNL     1     -10.795  11.672  12.766  1.00  0.00     0.194 C 
BRANCH  35  36
ATOM     36  C   UNL     1     -11.679  11.514  11.497  1.00  0.00     0.017 C 
ATOM     37  C   UNL     1     -11.681  10.059  10.995  1.00  0.00     0.010 C 
ATOM     38  C   UNL     1     -11.226  12.400  10.330  1.00  0.00     0.010 C 
ENDBRANCH  35  36
BRANCH  35  39
ATOM     39  C   UNL     1     -11.566  12.358  13.928  1.00  0.00     0.329 C 
ATOM     40  O   UNL     1     -11.374  13.512  14.293  1.00  0.00    -0.250 OA
BRANCH  39  41
ATOM     41  O   UNL     1     -12.547  11.557  14.444  1.00  0.00    -0.458 OA
BRANCH  41  42
ATOM     42  C   UNL     1     -13.430  12.170  15.415  1.00  0.00     0.205 CG0
ATOM     43  C   UNL     1     -14.635  11.246  15.579  1.00  0.00     0.056 C 
ATOM     44  G   UNL     1     -13.825  13.570  14.906  1.00  0.00     0.000 G0
ENDBRANCH  41  42
ENDBRANCH  39  41
ENDBRANCH  35  39
ENDBRANCH  33  35
ENDBRANCH  23  31
ENDBRANCH  21  23
ENDBRANCH  19  21
ENDBRANCH  14  19
ENDBRANCH   7  14
ENDBRANCH   2   5
BRANCH   3  45
ATOM     45  C   UNL     1      -2.599  10.080   3.174  1.00  0.00     0.171 C 
BRANCH  45  46
ATOM     46  N   UNL     1      -1.290  10.125   2.536  1.00  0.00    -0.342 N 
ATOM     47  C   UNL     1      -0.301   9.218   2.822  1.00  0.00     0.247 C 
ATOM     48  O   UNL     1      -0.470   8.261   3.579  1.00  0.00    -0.273 OA
ATOM     49  H   UNL     1      -1.126  10.868   1.860  1.00  0.00     0.164 HD
BRANCH  47  50
ATOM     50  C   UNL     1       1.051   9.496   2.149  1.00  0.00     0.212 CG0
ATOM     51  G   UNL     1       1.130   8.622   0.882  1.00  0.00     0.000 G0
BRANCH  50  52
ATOM     52  N   UNL     1       1.056  10.928   1.864  1.00  0.00    -0.339 N 
ATOM     53  C   UNL     1       2.105  11.573   1.255  1.00  0.00     0.243 C 
ATOM     54  O   UNL     1       3.147  11.000   0.949  1.00  0.00    -0.273 OA
ATOM     55  H   UNL     1       0.266  11.479   2.194  1.00  0.00     0.164 HD
BRANCH  53  56
ATOM     56  C   UNL     1       1.920  13.100   1.137  1.00  0.00     0.182 C 
BRANCH  56  57
ATOM     57  N   UNL     1       0.967  13.434   0.074  1.00  0.00    -0.344 N 
ATOM     58  C   UNL     1      -0.392  13.429   0.275  1.00  0.00     0.220 C 
ATOM     59  O   UNL     1      -0.905  13.076   1.331  1.00  0.00    -0.275 OA
ATOM     60  H   UNL     1       1.351  13.829  -0.781  1.00  0.00     0.164 HD
BRANCH  58  61
ATOM     61  C   UNL     1      -1.182  13.864  -0.945  1.00  0.00     0.100 C 
BRANCH  61  62
ATOM     62  C   UNL     1      -2.465  13.062  -1.167  1.00  0.00     0.010 C 
BRANCH  62  63
ATOM     63  C   UNL     1      -3.753  13.862  -0.933  1.00  0.00     0.000 C 
BRANCH  63  64
ATOM     64  C   UNL     1      -4.962  13.007  -0.558  1.00  0.00    -0.003 C 
ATOM     65  C   UNL     1      -6.242  13.831  -0.546  1.00  0.00     0.004 C 
ENDBRANCH  63  64
ENDBRANCH  62  63
ENDBRANCH  61  62
ENDBRANCH  58  61
ENDBRANCH  56  57
BRANCH  56  66
ATOM     66  C   UNL     1       3.258  13.814   0.958  1.00  0.00     0.157 C 
BRANCH  66  67
ATOM     67  C   UNL     1       3.569  14.030  -0.495  1.00  0.00     0.305 C 
ATOM     68  O   UNL     1       3.123  14.909  -1.217  1.00  0.00    -0.252 OA
BRANCH  67  69
ATOM     69  O   UNL     1       4.475  13.150  -0.961  1.00  0.00    -0.481 OA
ATOM     70  H   UNL     1       5.182  13.135  -0.281  1.00  0.00     0.296 HD
ENDBRANCH  67  69
ENDBRANCH  66  67
ENDBRANCH  56  66
ENDBRANCH  53  56
ENDBRANCH  50  52
ENDBRANCH  47  50
ENDBRANCH  45  46
BRANCH  45  71
ATOM     71  C   UNL     1      -3.625  10.932   2.418  1.00  0.00     0.037 C 
BRANCH  71  72
ATOM     72  C   UNL     1      -4.731  10.081   1.791  1.00  0.00     0.026 C 
BRANCH  72  73
ATOM     73  C   UNL     1      -5.793   9.696   2.818  1.00  0.00     0.146 C 
BRANCH  73  74
ATOM     74  N   UNL     1      -5.911  10.795   3.772  1.00  0.00    -0.254 NA
ATOM     75  C   UNL     1      -7.077  11.069   4.229  1.00  0.00     0.185 C 
ATOM     76  N   UNL     1      -7.218  12.073   5.109  1.00  0.00    -0.370 N 
ATOM     77  N   UNL     1      -8.253  10.477   3.955  1.00  0.00    -0.370 N 
ATOM     78  H   UNL     1      -6.381  12.578   5.365  1.00  0.00     0.159 HD
ATOM     79  H   UNL     1      -8.109  12.437   5.397  1.00  0.00     0.159 HD
ATOM     80  H   UNL     1      -8.300   9.701   3.311  1.00  0.00     0.159 HD
ATOM     81  H   UNL     1      -9.091  10.704   4.465  1.00  0.00     0.159 HD
ENDBRANCH  73  74
ENDBRANCH  72  73
ENDBRANCH  71  72
ENDBRANCH  45  71
ENDBRANCH   3  45
TORSDOF 20
ENDMDL
MODEL 19
REMARK VINA RESULT:    -5.642      4.870     14.431
REMARK INTER + INTRA:         -22.303
REMARK INTER:                 -17.229
REMARK INTRA:                  -5.075
REMARK UNBOUND:                -6.106
REMARK SMILES CCCCCC(=O)N[C@H](CC(=O)O)C(=O)N[C@H]1C(=O)N[C@H](CCCN=C(N)N)C(=O)N[C@@H]2CC[C@H](O)N(C2=O)[C@@H](CC(C)C)C(=O)N(C)[C@@H](Cc2ccccc2)C(=O)N[C@H](C(C)C)C(=O)O[C@@H]1C
REMARK SMILES IDX 30 1 31 2 29 3 32 5 35 6 37 7 34 8 38 9 33 10 39 11 36 12
REMARK SMILES IDX 40 14 41 15 42 16 43 17 44 18 45 19 46 20 47 21 48 22 49 23
REMARK SMILES IDX 50 24 51 25 52 26 56 27 53 28 55 29 54 30 57 31 58 32 59 33
REMARK SMILES IDX 60 35 61 36 62 37 63 38 64 39 65 40 66 41 67 42 68 43 21 45
REMARK SMILES IDX 20 46 18 47 19 48 17 50 16 52 14 53 15 54 9 56 8 57 6 58
REMARK SMILES IDX 7 59 5 61 4 62 3 63 2 64 1 65 10 66 11 67 12 68 13 69 22 71
REMARK SMILES IDX 23 72 24 73 25 74 26 75 27 76 28 77
REMARK H PARENT 31 4 36 13 59 34 20 49 16 55 8 60 13 70 27 78 27 79 28 80
REMARK H PARENT 28 81
REMARK Flexibility Score:  259.900
ROOT
ATOM      1  O   UNL     1      -4.775   9.985   5.620  1.00  0.00    -0.273 OA
ATOM      2  N   UNL     1      -3.191  10.719   4.143  1.00  0.00    -0.343 N 
ATOM      3  C   UNL     1      -4.488  10.434   4.509  1.00  0.00     0.243 C 
ATOM      4  H   UNL     1      -2.994  11.102   3.226  1.00  0.00     0.164 HD
ENDROOT
BRANCH   2   5
ATOM      5  C   UNL     1      -2.079  10.384   5.025  1.00  0.00     0.171 C 
ATOM      6  C   UNL     1       0.702  11.201   5.079  1.00  0.00     0.214 C 
ATOM      7  N   UNL     1       0.324  10.019   4.341  1.00  0.00    -0.303 N 
ATOM      8  C   UNL     1      -0.191  11.473   6.280  1.00  0.00     0.057 C 
ATOM      9  C   UNL     1      -0.993   9.602   4.232  1.00  0.00     0.247 C 
ATOM     10  C   UNL     1      -1.630  11.603   5.829  1.00  0.00     0.040 C 
ATOM     11  O   UNL     1      -1.319   8.638   3.527  1.00  0.00    -0.272 OA
BRANCH   6  12
ATOM     12  O   UNL     1       0.675  12.292   4.188  1.00  0.00    -0.373 OA
ATOM     13  H   UNL     1       1.569  12.695   4.200  1.00  0.00     0.213 HD
ENDBRANCH   6  12
BRANCH   7  14
ATOM     14  C   UNL     1       1.388   9.340   3.572  1.00  0.00     0.177 C 
BRANCH  14  15
ATOM     15  C   UNL     1       1.416   9.662   2.065  1.00  0.00     0.038 C 
BRANCH  15  16
ATOM     16  C   UNL     1       1.261   8.518   1.039  1.00  0.00    -0.015 C 
ATOM     17  C   UNL     1       2.102   7.290   1.402  1.00  0.00     0.007 C 
ATOM     18  C   UNL     1       1.697   9.004  -0.349  1.00  0.00     0.007 C 
ENDBRANCH  15  16
ENDBRANCH  14  15
BRANCH  14  19
ATOM     19  C   UNL     1       2.649   9.111   4.474  1.00  0.00     0.245 C 
ATOM     20  O   UNL     1       3.647   9.808   4.227  1.00  0.00    -0.272 OA
BRANCH  19  21
ATOM     21  N   UNL     1       2.741   8.118   5.433  1.00  0.00    -0.332 N 
ATOM     22  C   UNL     1       1.922   6.920   5.488  1.00  0.00     0.147 C 
BRANCH  21  23
ATOM     23  C   UNL     1       3.754   8.285   6.512  1.00  0.00     0.178 C 
BRANCH  23  24
ATOM     24  C   UNL     1       3.195   8.167   7.945  1.00  0.00     0.070 C 
BRANCH  24  25
ATOM     25  C   UNL     1       2.626   9.421   8.567  1.00  0.00    -0.045 A 
ATOM     26  C   UNL     1       3.372  10.606   8.603  1.00  0.00     0.004 A 
ATOM     27  C   UNL     1       1.339   9.413   9.125  1.00  0.00     0.004 A 
ATOM     28  C   UNL     1       2.846  11.756   9.195  1.00  0.00     0.000 A 
ATOM     29  C   UNL     1       0.814  10.563   9.715  1.00  0.00     0.000 A 
ATOM     30  C   UNL     1       1.569  11.733   9.752  1.00  0.00     0.000 A 
ENDBRANCH  24  25
ENDBRANCH  23  24
BRANCH  23  31
ATOM     31  C   UNL     1       5.052   7.484   6.251  1.00  0.00     0.243 C 
ATOM     32  O   UNL     1       5.339   6.436   6.824  1.00  0.00    -0.273 OA
ATOM     33  N   UNL     1       5.959   8.149   5.443  1.00  0.00    -0.341 N 
ATOM     34  H   UNL     1       5.663   9.021   4.998  1.00  0.00     0.164 HD
BRANCH  33  35
ATOM     35  C   UNL     1       7.301   7.635   5.158  1.00  0.00     0.194 C 
BRANCH  35  36
ATOM     36  C   UNL     1       7.324   6.431   4.174  1.00  0.00     0.017 C 
ATOM     37  C   UNL     1       8.513   6.527   3.201  1.00  0.00     0.010 C 
ATOM     38  C   UNL     1       6.049   6.317   3.329  1.00  0.00     0.010 C 
ENDBRANCH  35  36
BRANCH  35  39
ATOM     39  C   UNL     1       8.117   7.344   6.449  1.00  0.00     0.329 C 
ATOM     40  O   UNL     1       8.360   8.181   7.310  1.00  0.00    -0.250 OA
BRANCH  39  41
ATOM     41  O   UNL     1       8.460   6.025   6.561  1.00  0.00    -0.458 OA
BRANCH  41  42
ATOM     42  C   UNL     1       9.618   5.732   7.378  1.00  0.00     0.205 CG0
ATOM     43  C   UNL     1       9.116   5.048   8.649  1.00  0.00     0.056 C 
ATOM     44  G   UNL     1      10.360   7.051   7.673  1.00  0.00     0.000 G0
ENDBRANCH  41  42
ENDBRANCH  39  41
ENDBRANCH  35  39
ENDBRANCH  33  35
ENDBRANCH  23  31
ENDBRANCH  21  23
ENDBRANCH  19  21
ENDBRANCH  14  19
ENDBRANCH   7  14
ENDBRANCH   2   5
BRANCH   3  45
ATOM     45  C   UNL     1      -5.553  10.736   3.446  1.00  0.00     0.171 C 
BRANCH  45  46
ATOM     46  N   UNL     1      -6.821  10.319   4.030  1.00  0.00    -0.342 N 
ATOM     47  C   UNL     1      -7.966  11.066   3.912  1.00  0.00     0.247 C 
ATOM     48  O   UNL     1      -8.024  12.100   3.246  1.00  0.00    -0.273 OA
ATOM     49  H   UNL     1      -6.831   9.440   4.543  1.00  0.00     0.164 HD
BRANCH  47  50
ATOM     50  C   UNL     1      -9.174  10.533   4.696  1.00  0.00     0.212 CG0
ATOM     51  G   UNL     1      -9.777   9.366   3.890  1.00  0.00     0.000 G0
BRANCH  50  52
ATOM     52  N   UNL     1      -8.645  10.124   5.995  1.00  0.00    -0.339 N 
ATOM     53  C   UNL     1      -9.235  10.457   7.190  1.00  0.00     0.243 C 
ATOM     54  O   UNL     1     -10.230  11.174   7.260  1.00  0.00    -0.273 OA
ATOM     55  H   UNL     1      -7.760   9.622   6.008  1.00  0.00     0.164 HD
BRANCH  53  56
ATOM     56  C   UNL     1      -8.449   9.987   8.431  1.00  0.00     0.182 C 
BRANCH  56  57
ATOM     57  N   UNL     1      -9.097  10.437   9.666  1.00  0.00    -0.344 N 
ATOM     58  C   UNL     1      -9.990   9.654  10.356  1.00  0.00     0.220 C 
ATOM     59  O   UNL     1     -10.362   8.558   9.951  1.00  0.00    -0.275 OA
ATOM     60  H   UNL     1      -8.742  11.291  10.088  1.00  0.00     0.164 HD
BRANCH  58  61
ATOM     61  C   UNL     1     -10.491  10.297  11.636  1.00  0.00     0.100 C 
BRANCH  61  62
ATOM     62  C   UNL     1     -11.294  11.578  11.409  1.00  0.00     0.010 C 
BRANCH  62  63
ATOM     63  C   UNL     1     -12.540  11.390  10.533  1.00  0.00     0.000 C 
BRANCH  63  64
ATOM     64  C   UNL     1     -13.674  12.367  10.839  1.00  0.00    -0.003 C 
ATOM     65  C   UNL     1     -13.217  13.811  10.694  1.00  0.00     0.004 C 
ENDBRANCH  63  64
ENDBRANCH  62  63
ENDBRANCH  61  62
ENDBRANCH  58  61
ENDBRANCH  56  57
BRANCH  56  66
ATOM     66  C   UNL     1      -6.984  10.414   8.360  1.00  0.00     0.157 C 
BRANCH  66  67
ATOM     67  C   UNL     1      -6.858  11.886   8.091  1.00  0.00     0.305 C 
ATOM     68  O   UNL     1      -7.109  12.797   8.866  1.00  0.00    -0.252 OA
BRANCH  67  69
ATOM     69  O   UNL     1      -6.369  12.142   6.863  1.00  0.00    -0.481 OA
ATOM     70  H   UNL     1      -6.155  13.099   6.873  1.00  0.00     0.296 HD
ENDBRANCH  67  69
ENDBRANCH  66  67
ENDBRANCH  56  66
ENDBRANCH  53  56
ENDBRANCH  50  52
ENDBRANCH  47  50
ENDBRANCH  45  46
BRANCH  45  71
ATOM     71  C   UNL     1      -5.248   9.971   2.153  1.00  0.00     0.037 C 
BRANCH  71  72
ATOM     72  C   UNL     1      -4.927  10.913   0.990  1.00  0.00     0.026 C 
BRANCH  72  73
ATOM     73  C   UNL     1      -3.428  11.185   0.887  1.00  0.00     0.146 C 
BRANCH  73  74
ATOM     74  N   UNL     1      -3.218  12.121  -0.214  1.00  0.00    -0.254 NA
ATOM     75  C   UNL     1      -2.287  11.859  -1.055  1.00  0.00     0.185 C 
ATOM     76  N   UNL     1      -2.071  12.700  -2.078  1.00  0.00    -0.370 N 
ATOM     77  N   UNL     1      -1.441  10.814  -1.079  1.00  0.00    -0.370 N 
ATOM     78  H   UNL     1      -2.661  13.519  -2.130  1.00  0.00     0.159 HD
ATOM     79  H   UNL     1      -1.274  12.638  -2.687  1.00  0.00     0.159 HD
ATOM     80  H   UNL     1      -1.489  10.097  -0.372  1.00  0.00     0.159 HD
ATOM     81  H   UNL     1      -0.823  10.653  -1.858  1.00  0.00     0.159 HD
ENDBRANCH  73  74
ENDBRANCH  72  73
ENDBRANCH  71  72
ENDBRANCH  45  71
ENDBRANCH   3  45
TORSDOF 20
ENDMDL
MODEL 20
REMARK VINA RESULT:    -5.641      7.288     15.112
REMARK INTER + INTRA:         -22.299
REMARK INTER:                 -16.070
REMARK INTRA:                  -6.229
REMARK UNBOUND:                -6.106
REMARK SMILES CCCCCC(=O)N[C@H](CC(=O)O)C(=O)N[C@H]1C(=O)N[C@H](CCCN=C(N)N)C(=O)N[C@@H]2CC[C@H](O)N(C2=O)[C@@H](CC(C)C)C(=O)N(C)[C@@H](Cc2ccccc2)C(=O)N[C@H](C(C)C)C(=O)O[C@@H]1C
REMARK SMILES IDX 30 1 31 2 29 3 32 5 35 6 37 7 34 8 38 9 33 10 39 11 36 12
REMARK SMILES IDX 40 14 41 15 42 16 43 17 44 18 45 19 46 20 47 21 48 22 49 23
REMARK SMILES IDX 50 24 51 25 52 26 56 27 53 28 55 29 54 30 57 31 58 32 59 33
REMARK SMILES IDX 60 35 61 36 62 37 63 38 64 39 65 40 66 41 67 42 68 43 21 45
REMARK SMILES IDX 20 46 18 47 19 48 17 50 16 52 14 53 15 54 9 56 8 57 6 58
REMARK SMILES IDX 7 59 5 61 4 62 3 63 2 64 1 65 10 66 11 67 12 68 13 69 22 71
REMARK SMILES IDX 23 72 24 73 25 74 26 75 27 76 28 77
REMARK H PARENT 31 4 36 13 59 34 20 49 16 55 8 60 13 70 27 78 27 79 28 80
REMARK H PARENT 28 81
REMARK Flexibility Score:  259.900
ROOT
ATOM      1  O   UNL     1      -1.440   3.976   8.503  1.00  0.00    -0.273 OA
ATOM      2  N   UNL     1      -1.326   6.231   8.865  1.00  0.00    -0.343 N 
ATOM      3  C   UNL     1      -1.520   4.931   9.277  1.00  0.00     0.243 C 
ATOM      4  H   UNL     1      -1.385   6.990   9.532  1.00  0.00     0.164 HD
ENDROOT
BRANCH   2   5
ATOM      5  C   UNL     1      -1.131   6.541   7.452  1.00  0.00     0.171 C 
ATOM      6  C   UNL     1       0.031   5.048   5.256  1.00  0.00     0.214 C 
ATOM      7  N   UNL     1       0.869   5.923   6.042  1.00  0.00    -0.303 N 
ATOM      8  C   UNL     1      -1.415   5.513   5.176  1.00  0.00     0.057 C 
ATOM      9  C   UNL     1       0.390   6.625   7.136  1.00  0.00     0.247 C 
ATOM     10  C   UNL     1      -1.991   5.639   6.569  1.00  0.00     0.040 C 
ATOM     11  O   UNL     1       1.133   7.304   7.856  1.00  0.00    -0.272 OA
BRANCH   6  12
ATOM     12  O   UNL     1       0.103   3.760   5.820  1.00  0.00    -0.373 OA
ATOM     13  H   UNL     1       0.111   3.873   6.795  1.00  0.00     0.213 HD
ENDBRANCH   6  12
BRANCH   7  14
ATOM     14  C   UNL     1       2.313   5.931   5.725  1.00  0.00     0.177 C 
BRANCH  14  15
ATOM     15  C   UNL     1       2.909   4.561   5.345  1.00  0.00     0.038 C 
BRANCH  15  16
ATOM     16  C   UNL     1       4.340   4.201   5.803  1.00  0.00    -0.015 C 
ATOM     17  C   UNL     1       4.728   4.898   7.110  1.00  0.00     0.007 C 
ATOM     18  C   UNL     1       5.349   4.610   4.723  1.00  0.00     0.007 C 
ENDBRANCH  15  16
ENDBRANCH  14  15
BRANCH  14  19
ATOM     19  C   UNL     1       2.723   7.305   5.092  1.00  0.00     0.245 C 
ATOM     20  O   UNL     1       3.644   7.925   5.649  1.00  0.00    -0.272 OA
BRANCH  19  21
ATOM     21  N   UNL     1       2.050   7.900   4.039  1.00  0.00    -0.332 N 
ATOM     22  C   UNL     1       0.829   8.677   4.150  1.00  0.00     0.147 C 
BRANCH  21  23
ATOM     23  C   UNL     1       2.610   7.728   2.670  1.00  0.00     0.178 C 
BRANCH  23  24
ATOM     24  C   UNL     1       1.731   6.895   1.714  1.00  0.00     0.070 C 
BRANCH  24  25
ATOM     25  C   UNL     1       1.958   5.401   1.696  1.00  0.00    -0.045 A 
ATOM     26  C   UNL     1       0.876   4.512   1.689  1.00  0.00     0.004 A 
ATOM     27  C   UNL     1       3.262   4.883   1.692  1.00  0.00     0.004 A 
ATOM     28  C   UNL     1       1.093   3.132   1.690  1.00  0.00     0.000 A 
ATOM     29  C   UNL     1       3.477   3.504   1.692  1.00  0.00     0.000 A 
ATOM     30  C   UNL     1       2.393   2.630   1.694  1.00  0.00     0.000 A 
ENDBRANCH  24  25
ENDBRANCH  23  24
BRANCH  23  31
ATOM     31  C   UNL     1       3.157   9.045   2.071  1.00  0.00     0.243 C 
ATOM     32  O   UNL     1       4.117   9.661   2.528  1.00  0.00    -0.273 OA
ATOM     33  N   UNL     1       2.353   9.577   1.076  1.00  0.00    -0.341 N 
ATOM     34  H   UNL     1       1.564   9.019   0.741  1.00  0.00     0.164 HD
BRANCH  33  35
ATOM     35  C   UNL     1       2.611  10.876   0.450  1.00  0.00     0.194 C 
BRANCH  35  36
ATOM     36  C   UNL     1       1.810  12.053   1.075  1.00  0.00     0.017 C 
ATOM     37  C   UNL     1       2.680  12.868   2.047  1.00  0.00     0.010 C 
ATOM     38  C   UNL     1       0.566  11.595   1.846  1.00  0.00     0.010 C 
ENDBRANCH  35  36
BRANCH  35  39
ATOM     39  C   UNL     1       2.467  10.833  -1.097  1.00  0.00     0.329 C 
ATOM     40  O   UNL     1       2.879   9.917  -1.800  1.00  0.00    -0.250 OA
BRANCH  39  41
ATOM     41  O   UNL     1       1.750  11.891  -1.582  1.00  0.00    -0.458 OA
BRANCH  41  42
ATOM     42  C   UNL     1       2.384  12.672  -2.624  1.00  0.00     0.205 CG0
ATOM     43  C   UNL     1       3.274  13.706  -1.939  1.00  0.00     0.056 C 
ATOM     44  G   UNL     1       1.286  13.320  -3.490  1.00  0.00     0.000 G0
ENDBRANCH  41  42
ENDBRANCH  39  41
ENDBRANCH  35  39
ENDBRANCH  33  35
ENDBRANCH  23  31
ENDBRANCH  21  23
ENDBRANCH  19  21
ENDBRANCH  14  19
ENDBRANCH   7  14
ENDBRANCH   2   5
BRANCH   3  45
ATOM     45  C   UNL     1      -1.823   4.753  10.771  1.00  0.00     0.171 C 
BRANCH  45  46
ATOM     46  N   UNL     1      -1.939   3.316  10.981  1.00  0.00    -0.342 N 
ATOM     47  C   UNL     1      -1.671   2.725  12.191  1.00  0.00     0.247 C 
ATOM     48  O   UNL     1      -1.387   3.370  13.201  1.00  0.00    -0.273 OA
ATOM     49  H   UNL     1      -2.227   2.751  10.185  1.00  0.00     0.164 HD
BRANCH  47  50
ATOM     50  C   UNL     1      -1.725   1.191  12.190  1.00  0.00     0.212 CG0
ATOM     51  G   UNL     1      -3.140   0.773  12.638  1.00  0.00     0.000 G0
BRANCH  50  52
ATOM     52  N   UNL     1      -1.411   0.790  10.822  1.00  0.00    -0.339 N 
ATOM     53  C   UNL     1      -0.407  -0.092  10.504  1.00  0.00     0.243 C 
ATOM     54  O   UNL     1       0.342  -0.574  11.349  1.00  0.00    -0.273 OA
ATOM     55  H   UNL     1      -1.925   1.241  10.067  1.00  0.00     0.164 HD
BRANCH  53  56
ATOM     56  C   UNL     1      -0.206  -0.295   8.989  1.00  0.00     0.182 C 
BRANCH  56  57
ATOM     57  N   UNL     1       1.101   0.212   8.558  1.00  0.00    -0.344 N 
ATOM     58  C   UNL     1       1.567   1.451   8.925  1.00  0.00     0.220 C 
ATOM     59  O   UNL     1       0.896   2.246   9.575  1.00  0.00    -0.275 OA
ATOM     60  H   UNL     1       1.726  -0.451   8.107  1.00  0.00     0.164 HD
BRANCH  58  61
ATOM     61  C   UNL     1       2.966   1.742   8.415  1.00  0.00     0.100 C 
BRANCH  61  62
ATOM     62  C   UNL     1       3.921   2.253   9.494  1.00  0.00     0.010 C 
BRANCH  62  63
ATOM     63  C   UNL     1       4.873   1.184  10.046  1.00  0.00     0.000 C 
BRANCH  63  64
ATOM     64  C   UNL     1       4.424   0.570  11.371  1.00  0.00    -0.003 C 
ATOM     65  C   UNL     1       3.587   1.549  12.181  1.00  0.00     0.004 C 
ENDBRANCH  63  64
ENDBRANCH  62  63
ENDBRANCH  61  62
ENDBRANCH  58  61
ENDBRANCH  56  57
BRANCH  56  66
ATOM     66  C   UNL     1      -1.354   0.313   8.185  1.00  0.00     0.157 C 
BRANCH  66  67
ATOM     67  C   UNL     1      -1.196   0.039   6.717  1.00  0.00     0.305 C 
ATOM     68  O   UNL     1      -0.987  -1.044   6.193  1.00  0.00    -0.252 OA
BRANCH  67  69
ATOM     69  O   UNL     1      -1.362   1.146   5.969  1.00  0.00    -0.481 OA
ATOM     70  H   UNL     1      -0.608   1.140   5.343  1.00  0.00     0.296 HD
ENDBRANCH  67  69
ENDBRANCH  66  67
ENDBRANCH  56  66
ENDBRANCH  53  56
ENDBRANCH  50  52
ENDBRANCH  47  50
ENDBRANCH  45  46
BRANCH  45  71
ATOM     71  C   UNL     1      -3.117   5.485  11.144  1.00  0.00     0.037 C 
BRANCH  71  72
ATOM     72  C   UNL     1      -4.296   5.052  10.271  1.00  0.00     0.026 C 
BRANCH  72  73
ATOM     73  C   UNL     1      -5.317   4.242  11.069  1.00  0.00     0.146 C 
BRANCH  73  74
ATOM     74  N   UNL     1      -6.146   5.182  11.816  1.00  0.00    -0.254 NA
ATOM     75  C   UNL     1      -7.351   4.836  12.085  1.00  0.00     0.185 C 
ATOM     76  N   UNL     1      -8.138   5.678  12.773  1.00  0.00    -0.370 N 
ATOM     77  N   UNL     1      -7.992   3.696  11.772  1.00  0.00    -0.370 N 
ATOM     78  H   UNL     1      -7.735   6.564  13.042  1.00  0.00     0.159 HD
ATOM     79  H   UNL     1      -9.126   5.539  12.893  1.00  0.00     0.159 HD
ATOM     80  H   UNL     1      -7.521   2.967  11.257  1.00  0.00     0.159 HD
ATOM     81  H   UNL     1      -8.906   3.487  12.138  1.00  0.00     0.159 HD
ENDBRANCH  73  74
ENDBRANCH  72  73
ENDBRANCH  71  72
ENDBRANCH  45  71
ENDBRANCH   3  45
TORSDOF 20
ENDMDL
MODEL 21
REMARK VINA RESULT:    -5.628      5.252     14.333
REMARK INTER + INTRA:         -22.262
REMARK INTER:                 -15.769
REMARK INTRA:                  -6.494
REMARK UNBOUND:                -6.106
REMARK SMILES CCCCCC(=O)N[C@H](CC(=O)O)C(=O)N[C@H]1C(=O)N[C@H](CCCN=C(N)N)C(=O)N[C@@H]2CC[C@H](O)N(C2=O)[C@@H](CC(C)C)C(=O)N(C)[C@@H](Cc2ccccc2)C(=O)N[C@H](C(C)C)C(=O)O[C@@H]1C
REMARK SMILES IDX 30 1 31 2 29 3 32 5 35 6 37 7 34 8 38 9 33 10 39 11 36 12
REMARK SMILES IDX 40 14 41 15 42 16 43 17 44 18 45 19 46 20 47 21 48 22 49 23
REMARK SMILES IDX 50 24 51 25 52 26 56 27 53 28 55 29 54 30 57 31 58 32 59 33
REMARK SMILES IDX 60 35 61 36 62 37 63 38 64 39 65 40 66 41 67 42 68 43 21 45
REMARK SMILES IDX 20 46 18 47 19 48 17 50 16 52 14 53 15 54 9 56 8 57 6 58
REMARK SMILES IDX 7 59 5 61 4 62 3 63 2 64 1 65 10 66 11 67 12 68 13 69 22 71
REMARK SMILES IDX 23 72 24 73 25 74 26 75 27 76 28 77
REMARK H PARENT 31 4 36 13 59 34 20 49 16 55 8 60 13 70 27 78 27 79 28 80
REMARK H PARENT 28 81
REMARK Flexibility Score:  259.900
ROOT
ATOM      1  O   UNL     1      -2.943  14.083   7.719  1.00  0.00    -0.273 OA
ATOM      2  N   UNL     1      -2.491  12.022   8.603  1.00  0.00    -0.343 N 
ATOM      3  C   UNL     1      -2.852  13.349   8.703  1.00  0.00     0.243 C 
ATOM      4  H   UNL     1      -2.440  11.445   9.433  1.00  0.00     0.164 HD
ENDROOT
BRANCH   2   5
ATOM      5  C   UNL     1      -2.082  11.459   7.320  1.00  0.00     0.171 C 
ATOM      6  C   UNL     1      -1.231   8.806   6.523  1.00  0.00     0.214 C 
ATOM      7  N   UNL     1      -0.243   9.773   6.940  1.00  0.00    -0.303 N 
ATOM      8  C   UNL     1      -2.454   9.435   5.875  1.00  0.00     0.057 C 
ATOM      9  C   UNL     1      -0.585  11.041   7.381  1.00  0.00     0.247 C 
ATOM     10  C   UNL     1      -3.090  10.420   6.832  1.00  0.00     0.040 C 
ATOM     11  O   UNL     1       0.259  11.834   7.818  1.00  0.00    -0.272 OA
BRANCH   6  12
ATOM     12  O   UNL     1      -1.604   8.056   7.656  1.00  0.00    -0.373 OA
ATOM     13  H   UNL     1      -1.981   7.211   7.330  1.00  0.00     0.213 HD
ENDBRANCH   6  12
BRANCH   7  14
ATOM     14  C   UNL     1       1.159   9.309   7.019  1.00  0.00     0.177 C 
BRANCH  14  15
ATOM     15  C   UNL     1       1.596   8.777   8.398  1.00  0.00     0.038 C 
BRANCH  15  16
ATOM     16  C   UNL     1       2.741   9.482   9.158  1.00  0.00    -0.015 C 
ATOM     17  C   UNL     1       2.235  10.290  10.356  1.00  0.00     0.007 C 
ATOM     18  C   UNL     1       3.480  10.438   8.212  1.00  0.00     0.007 C 
ENDBRANCH  15  16
ENDBRANCH  14  15
BRANCH  14  19
ATOM     19  C   UNL     1       1.620   8.733   5.636  1.00  0.00     0.245 C 
ATOM     20  O   UNL     1       1.542   9.495   4.659  1.00  0.00    -0.272 OA
BRANCH  19  21
ATOM     21  N   UNL     1       1.992   7.415   5.435  1.00  0.00    -0.332 N 
ATOM     22  C   UNL     1       1.126   6.362   4.937  1.00  0.00     0.147 C 
BRANCH  21  23
ATOM     23  C   UNL     1       3.392   7.030   5.764  1.00  0.00     0.178 C 
BRANCH  23  24
ATOM     24  C   UNL     1       3.525   5.963   6.870  1.00  0.00     0.070 C 
BRANCH  24  25
ATOM     25  C   UNL     1       4.263   6.363   8.126  1.00  0.00    -0.045 A 
ATOM     26  C   UNL     1       3.819   5.941   9.386  1.00  0.00     0.004 A 
ATOM     27  C   UNL     1       5.407   7.172   8.048  1.00  0.00     0.004 A 
ATOM     28  C   UNL     1       4.497   6.329  10.543  1.00  0.00     0.000 A 
ATOM     29  C   UNL     1       6.085   7.558   9.205  1.00  0.00     0.000 A 
ATOM     30  C   UNL     1       5.627   7.139  10.453  1.00  0.00     0.000 A 
ENDBRANCH  24  25
ENDBRANCH  23  24
BRANCH  23  31
ATOM     31  C   UNL     1       4.259   6.777   4.508  1.00  0.00     0.243 C 
ATOM     32  O   UNL     1       4.489   7.625   3.650  1.00  0.00    -0.273 OA
ATOM     33  N   UNL     1       4.607   5.448   4.334  1.00  0.00    -0.341 N 
ATOM     34  H   UNL     1       4.382   4.786   5.081  1.00  0.00     0.164 HD
BRANCH  33  35
ATOM     35  C   UNL     1       5.324   4.957   3.153  1.00  0.00     0.194 C 
BRANCH  35  36
ATOM     36  C   UNL     1       4.441   4.142   2.167  1.00  0.00     0.017 C 
ATOM     37  C   UNL     1       3.336   5.017   1.551  1.00  0.00     0.010 C 
ATOM     38  C   UNL     1       3.758   2.936   2.824  1.00  0.00     0.010 C 
ENDBRANCH  35  36
BRANCH  35  39
ATOM     39  C   UNL     1       6.633   4.204   3.520  1.00  0.00     0.329 C 
ATOM     40  O   UNL     1       6.861   3.721   4.623  1.00  0.00    -0.250 OA
BRANCH  39  41
ATOM     41  O   UNL     1       7.469   4.062   2.447  1.00  0.00    -0.458 OA
BRANCH  41  42
ATOM     42  C   UNL     1       8.848   4.449   2.653  1.00  0.00     0.205 CG0
ATOM     43  C   UNL     1       8.874   5.967   2.817  1.00  0.00     0.056 C 
ATOM     44  G   UNL     1       9.679   3.972   1.445  1.00  0.00     0.000 G0
ENDBRANCH  41  42
ENDBRANCH  39  41
ENDBRANCH  35  39
ENDBRANCH  33  35
ENDBRANCH  23  31
ENDBRANCH  21  23
ENDBRANCH  19  21
ENDBRANCH  14  19
ENDBRANCH   7  14
ENDBRANCH   2   5
BRANCH   3  45
ATOM     45  C   UNL     1      -3.153  13.842  10.125  1.00  0.00     0.171 C 
BRANCH  45  46
ATOM     46  N   UNL     1      -4.571  13.588  10.338  1.00  0.00    -0.342 N 
ATOM     47  C   UNL     1      -5.046  12.372  10.761  1.00  0.00     0.247 C 
ATOM     48  O   UNL     1      -4.307  11.434  11.062  1.00  0.00    -0.273 OA
ATOM     49  H   UNL     1      -5.215  14.356  10.155  1.00  0.00     0.164 HD
BRANCH  47  50
ATOM     50  C   UNL     1      -6.576  12.253  10.809  1.00  0.00     0.212 CG0
ATOM     51  G   UNL     1      -7.152  13.676  10.956  1.00  0.00     0.000 G0
BRANCH  50  52
ATOM     52  N   UNL     1      -6.956  11.603   9.558  1.00  0.00    -0.339 N 
ATOM     53  C   UNL     1      -6.952  12.244   8.342  1.00  0.00     0.243 C 
ATOM     54  O   UNL     1      -6.679  13.435   8.223  1.00  0.00    -0.273 OA
ATOM     55  H   UNL     1      -7.299  10.646   9.607  1.00  0.00     0.164 HD
BRANCH  53  56
ATOM     56  C   UNL     1      -7.474  11.380   7.176  1.00  0.00     0.182 C 
BRANCH  56  57
ATOM     57  N   UNL     1      -8.222  12.193   6.212  1.00  0.00    -0.344 N 
ATOM     58  C   UNL     1      -7.873  12.270   4.886  1.00  0.00     0.220 C 
ATOM     59  O   UNL     1      -6.873  11.726   4.431  1.00  0.00    -0.275 OA
ATOM     60  H   UNL     1      -9.111  12.575   6.524  1.00  0.00     0.164 HD
BRANCH  58  61
ATOM     61  C   UNL     1      -8.821  13.121   4.063  1.00  0.00     0.100 C 
BRANCH  61  62
ATOM     62  C   UNL     1      -8.941  12.676   2.605  1.00  0.00     0.010 C 
BRANCH  62  63
ATOM     63  C   UNL     1     -10.376  12.684   2.063  1.00  0.00     0.000 C 
BRANCH  63  64
ATOM     64  C   UNL     1     -11.257  11.560   2.605  1.00  0.00    -0.003 C 
ATOM     65  C   UNL     1     -12.680  11.665   2.074  1.00  0.00     0.004 C 
ENDBRANCH  63  64
ENDBRANCH  62  63
ENDBRANCH  61  62
ENDBRANCH  58  61
ENDBRANCH  56  57
BRANCH  56  66
ATOM     66  C   UNL     1      -8.288  10.190   7.682  1.00  0.00     0.157 C 
BRANCH  66  67
ATOM     67  C   UNL     1      -9.611  10.633   8.238  1.00  0.00     0.305 C 
ATOM     68  O   UNL     1     -10.514  11.186   7.630  1.00  0.00    -0.252 OA
BRANCH  67  69
ATOM     69  O   UNL     1      -9.754  10.307   9.537  1.00  0.00    -0.481 OA
ATOM     70  H   UNL     1     -10.146  11.103   9.953  1.00  0.00     0.296 HD
ENDBRANCH  67  69
ENDBRANCH  66  67
ENDBRANCH  56  66
ENDBRANCH  53  56
ENDBRANCH  50  52
ENDBRANCH  47  50
ENDBRANCH  45  46
BRANCH  45  71
ATOM     71  C   UNL     1      -2.819  15.332  10.255  1.00  0.00     0.037 C 
BRANCH  71  72
ATOM     72  C   UNL     1      -1.868  15.610  11.421  1.00  0.00     0.026 C 
BRANCH  72  73
ATOM     73  C   UNL     1      -0.668  14.665  11.403  1.00  0.00     0.146 C 
BRANCH  73  74
ATOM     74  N   UNL     1       0.519  15.455  11.090  1.00  0.00    -0.254 NA
ATOM     75  C   UNL     1       0.946  15.442   9.882  1.00  0.00     0.185 C 
ATOM     76  N   UNL     1       2.036  16.160   9.564  1.00  0.00    -0.370 N 
ATOM     77  N   UNL     1       0.451  14.787   8.817  1.00  0.00    -0.370 N 
ATOM     78  H   UNL     1       2.476  16.678  10.310  1.00  0.00     0.159 HD
ATOM     79  H   UNL     1       2.510  16.085   8.681  1.00  0.00     0.159 HD
ATOM     80  H   UNL     1      -0.371  14.209   8.907  1.00  0.00     0.159 HD
ATOM     81  H   UNL     1       0.805  14.945   7.888  1.00  0.00     0.159 HD
ENDBRANCH  73  74
ENDBRANCH  72  73
ENDBRANCH  71  72
ENDBRANCH  45  71
ENDBRANCH   3  45
TORSDOF 20
ENDMDL
MODEL 22
REMARK VINA RESULT:    -5.623      4.247      7.163
REMARK INTER + INTRA:         -22.248
REMARK INTER:                 -15.887
REMARK INTRA:                  -6.361
REMARK UNBOUND:                -6.106
REMARK SMILES CCCCCC(=O)N[C@H](CC(=O)O)C(=O)N[C@H]1C(=O)N[C@H](CCCN=C(N)N)C(=O)N[C@@H]2CC[C@H](O)N(C2=O)[C@@H](CC(C)C)C(=O)N(C)[C@@H](Cc2ccccc2)C(=O)N[C@H](C(C)C)C(=O)O[C@@H]1C
REMARK SMILES IDX 30 1 31 2 29 3 32 5 35 6 37 7 34 8 38 9 33 10 39 11 36 12
REMARK SMILES IDX 40 14 41 15 42 16 43 17 44 18 45 19 46 20 47 21 48 22 49 23
REMARK SMILES IDX 50 24 51 25 52 26 56 27 53 28 55 29 54 30 57 31 58 32 59 33
REMARK SMILES IDX 60 35 61 36 62 37 63 38 64 39 65 40 66 41 67 42 68 43 21 45
REMARK SMILES IDX 20 46 18 47 19 48 17 50 16 52 14 53 15 54 9 56 8 57 6 58
REMARK SMILES IDX 7 59 5 61 4 62 3 63 2 64 1 65 10 66 11 67 12 68 13 69 22 71
REMARK SMILES IDX 23 72 24 73 25 74 26 75 27 76 28 77
REMARK H PARENT 31 4 36 13 59 34 20 49 16 55 8 60 13 70 27 78 27 79 28 80
REMARK H PARENT 28 81
REMARK Flexibility Score:  259.900
ROOT
ATOM      1  O   UNL     1       0.190   6.090   7.011  1.00  0.00    -0.273 OA
ATOM      2  N   UNL     1       0.731   8.281   6.636  1.00  0.00    -0.343 N 
ATOM      3  C   UNL     1       1.033   6.988   7.006  1.00  0.00     0.243 C 
ATOM      4  H   UNL     1       1.454   8.990   6.630  1.00  0.00     0.164 HD
ENDROOT
BRANCH   2   5
ATOM      5  C   UNL     1      -0.645   8.668   6.347  1.00  0.00     0.171 C 
ATOM      6  C   UNL     1      -1.899  11.232   5.837  1.00  0.00     0.214 C 
ATOM      7  N   UNL     1      -1.834  10.730   7.189  1.00  0.00    -0.303 N 
ATOM      8  C   UNL     1      -1.970  10.132   4.789  1.00  0.00     0.057 C 
ATOM      9  C   UNL     1      -1.205   9.537   7.509  1.00  0.00     0.247 C 
ATOM     10  C   UNL     1      -0.773   9.216   4.926  1.00  0.00     0.040 C 
ATOM     11  O   UNL     1      -1.077   9.156   8.680  1.00  0.00    -0.272 OA
BRANCH   6  12
ATOM     12  O   UNL     1      -0.766  12.042   5.623  1.00  0.00    -0.373 OA
ATOM     13  H   UNL     1      -0.176  11.556   5.008  1.00  0.00     0.213 HD
ENDBRANCH   6  12
BRANCH   7  14
ATOM     14  C   UNL     1      -2.341  11.615   8.258  1.00  0.00     0.177 C 
BRANCH  14  15
ATOM     15  C   UNL     1      -1.317  12.623   8.817  1.00  0.00     0.038 C 
BRANCH  15  16
ATOM     16  C   UNL     1      -1.193  12.813  10.345  1.00  0.00    -0.015 C 
ATOM     17  C   UNL     1      -1.780  11.637  11.130  1.00  0.00     0.007 C 
ATOM     18  C   UNL     1      -1.929  14.090  10.770  1.00  0.00     0.007 C 
ENDBRANCH  15  16
ENDBRANCH  14  15
BRANCH  14  19
ATOM     19  C   UNL     1      -3.870  11.895   8.052  1.00  0.00     0.245 C 
ATOM     20  O   UNL     1      -4.190  13.058   7.755  1.00  0.00    -0.272 OA
BRANCH  19  21
ATOM     21  N   UNL     1      -4.863  10.963   8.291  1.00  0.00    -0.332 N 
ATOM     22  C   UNL     1      -4.668   9.661   8.904  1.00  0.00     0.147 C 
BRANCH  21  23
ATOM     23  C   UNL     1      -6.253  11.305   7.878  1.00  0.00     0.178 C 
BRANCH  23  24
ATOM     24  C   UNL     1      -6.829  10.421   6.753  1.00  0.00     0.070 C 
BRANCH  24  25
ATOM     25  C   UNL     1      -7.075  11.082   5.417  1.00  0.00    -0.045 A 
ATOM     26  C   UNL     1      -8.022  12.106   5.287  1.00  0.00     0.004 A 
ATOM     27  C   UNL     1      -6.358  10.673   4.282  1.00  0.00     0.004 A 
ATOM     28  C   UNL     1      -8.256  12.700   4.045  1.00  0.00     0.000 A 
ATOM     29  C   UNL     1      -6.593  11.269   3.042  1.00  0.00     0.000 A 
ATOM     30  C   UNL     1      -7.544  12.280   2.924  1.00  0.00     0.000 A 
ENDBRANCH  24  25
ENDBRANCH  23  24
BRANCH  23  31
ATOM     31  C   UNL     1      -7.201  11.530   9.080  1.00  0.00     0.243 C 
ATOM     32  O   UNL     1      -6.854  12.036  10.144  1.00  0.00    -0.273 OA
ATOM     33  N   UNL     1      -8.443  10.939   8.923  1.00  0.00    -0.341 N 
ATOM     34  H   UNL     1      -8.673  10.527   8.015  1.00  0.00     0.164 HD
BRANCH  33  35
ATOM     35  C   UNL     1      -9.459  10.921   9.979  1.00  0.00     0.194 C 
BRANCH  35  36
ATOM     36  C   UNL     1      -9.739   9.509  10.566  1.00  0.00     0.017 C 
ATOM     37  C   UNL     1      -8.879   9.241  11.814  1.00  0.00     0.010 C 
ATOM     38  C   UNL     1      -9.468   8.375   9.570  1.00  0.00     0.010 C 
ENDBRANCH  35  36
BRANCH  35  39
ATOM     39  C   UNL     1     -10.769  11.646   9.561  1.00  0.00     0.329 C 
ATOM     40  O   UNL     1     -11.275  11.562   8.448  1.00  0.00    -0.250 OA
BRANCH  39  41
ATOM     41  O   UNL     1     -11.344  12.321  10.602  1.00  0.00    -0.458 OA
BRANCH  41  42
ATOM     42  C   UNL     1     -12.766  12.123  10.786  1.00  0.00     0.205 CG0
ATOM     43  C   UNL     1     -13.421  13.503  10.780  1.00  0.00     0.056 C 
ATOM     44  G   UNL     1     -12.990  11.371  12.113  1.00  0.00     0.000 G0
ENDBRANCH  41  42
ENDBRANCH  39  41
ENDBRANCH  35  39
ENDBRANCH  33  35
ENDBRANCH  23  31
ENDBRANCH  21  23
ENDBRANCH  19  21
ENDBRANCH  14  19
ENDBRANCH   7  14
ENDBRANCH   2   5
BRANCH   3  45
ATOM     45  C   UNL     1       2.498   6.739   7.389  1.00  0.00     0.171 C 
BRANCH  45  46
ATOM     46  N   UNL     1       3.164   6.334   6.159  1.00  0.00    -0.342 N 
ATOM     47  C   UNL     1       4.440   6.731   5.848  1.00  0.00     0.247 C 
ATOM     48  O   UNL     1       5.140   7.395   6.614  1.00  0.00    -0.273 OA
ATOM     49  H   UNL     1       2.641   5.737   5.521  1.00  0.00     0.164 HD
BRANCH  47  50
ATOM     50  C   UNL     1       4.930   6.311   4.455  1.00  0.00     0.212 CG0
ATOM     51  G   UNL     1       5.700   4.984   4.611  1.00  0.00     0.000 G0
BRANCH  50  52
ATOM     52  N   UNL     1       3.726   6.187   3.639  1.00  0.00    -0.339 N 
ATOM     53  C   UNL     1       3.645   5.385   2.527  1.00  0.00     0.243 C 
ATOM     54  O   UNL     1       4.604   4.747   2.100  1.00  0.00    -0.273 OA
ATOM     55  H   UNL     1       2.930   6.776   3.877  1.00  0.00     0.164 HD
BRANCH  53  56
ATOM     56  C   UNL     1       2.301   5.483   1.778  1.00  0.00     0.182 C 
BRANCH  56  57
ATOM     57  N   UNL     1       1.641   6.765   2.046  1.00  0.00    -0.344 N 
ATOM     58  C   UNL     1       1.704   7.822   1.172  1.00  0.00     0.220 C 
ATOM     59  O   UNL     1       2.374   7.795   0.145  1.00  0.00    -0.275 OA
ATOM     60  H   UNL     1       0.996   6.795   2.831  1.00  0.00     0.164 HD
BRANCH  58  61
ATOM     61  C   UNL     1       0.900   9.026   1.625  1.00  0.00     0.100 C 
BRANCH  61  62
ATOM     62  C   UNL     1       0.966  10.210   0.661  1.00  0.00     0.010 C 
BRANCH  62  63
ATOM     63  C   UNL     1       1.978  11.291   1.062  1.00  0.00     0.000 C 
BRANCH  63  64
ATOM     64  C   UNL     1       1.353  12.650   1.373  1.00  0.00    -0.003 C 
ATOM     65  C   UNL     1       0.093  12.502   2.214  1.00  0.00     0.004 C 
ENDBRANCH  63  64
ENDBRANCH  62  63
ENDBRANCH  61  62
ENDBRANCH  58  61
ENDBRANCH  56  57
BRANCH  56  66
ATOM     66  C   UNL     1       1.397   4.292   2.091  1.00  0.00     0.157 C 
BRANCH  66  67
ATOM     67  C   UNL     1       0.760   4.434   3.444  1.00  0.00     0.305 C 
ATOM     68  O   UNL     1       1.304   4.292   4.528  1.00  0.00    -0.252 OA
BRANCH  67  69
ATOM     69  O   UNL     1      -0.532   4.803   3.365  1.00  0.00    -0.481 OA
ATOM     70  H   UNL     1      -0.807   4.559   2.456  1.00  0.00     0.296 HD
ENDBRANCH  67  69
ENDBRANCH  66  67
ENDBRANCH  56  66
ENDBRANCH  53  56
ENDBRANCH  50  52
ENDBRANCH  47  50
ENDBRANCH  45  46
BRANCH  45  71
ATOM     71  C   UNL     1       2.590   5.652   8.466  1.00  0.00     0.037 C 
BRANCH  71  72
ATOM     72  C   UNL     1       3.219   6.176   9.760  1.00  0.00     0.026 C 
BRANCH  72  73
ATOM     73  C   UNL     1       2.390   5.788  10.983  1.00  0.00     0.146 C 
BRANCH  73  74
ATOM     74  N   UNL     1       1.432   6.861  11.233  1.00  0.00    -0.254 NA
ATOM     75  C   UNL     1       0.188   6.605  11.060  1.00  0.00     0.185 C 
ATOM     76  N   UNL     1      -0.718   7.571  11.282  1.00  0.00    -0.370 N 
ATOM     77  N   UNL     1      -0.392   5.457  10.668  1.00  0.00    -0.370 N 
ATOM     78  H   UNL     1      -0.364   8.471  11.574  1.00  0.00     0.159 HD
ATOM     79  H   UNL     1      -1.687   7.490  11.031  1.00  0.00     0.159 HD
ATOM     80  H   UNL     1       0.166   4.641  10.469  1.00  0.00     0.159 HD
ATOM     81  H   UNL     1      -1.392   5.340  10.679  1.00  0.00     0.159 HD
ENDBRANCH  73  74
ENDBRANCH  72  73
ENDBRANCH  71  72
ENDBRANCH  45  71
ENDBRANCH   3  45
TORSDOF 20
ENDMDL
MODEL 23
REMARK VINA RESULT:    -5.606      8.568     13.204
REMARK INTER + INTRA:         -22.200
REMARK INTER:                 -16.933
REMARK INTRA:                  -5.267
REMARK UNBOUND:                -6.106
REMARK SMILES CCCCCC(=O)N[C@H](CC(=O)O)C(=O)N[C@H]1C(=O)N[C@H](CCCN=C(N)N)C(=O)N[C@@H]2CC[C@H](O)N(C2=O)[C@@H](CC(C)C)C(=O)N(C)[C@@H](Cc2ccccc2)C(=O)N[C@H](C(C)C)C(=O)O[C@@H]1C
REMARK SMILES IDX 30 1 31 2 29 3 32 5 35 6 37 7 34 8 38 9 33 10 39 11 36 12
REMARK SMILES IDX 40 14 41 15 42 16 43 17 44 18 45 19 46 20 47 21 48 22 49 23
REMARK SMILES IDX 50 24 51 25 52 26 56 27 53 28 55 29 54 30 57 31 58 32 59 33
REMARK SMILES IDX 60 35 61 36 62 37 63 38 64 39 65 40 66 41 67 42 68 43 21 45
REMARK SMILES IDX 20 46 18 47 19 48 17 50 16 52 14 53 15 54 9 56 8 57 6 58
REMARK SMILES IDX 7 59 5 61 4 62 3 63 2 64 1 65 10 66 11 67 12 68 13 69 22 71
REMARK SMILES IDX 23 72 24 73 25 74 26 75 27 76 28 77
REMARK H PARENT 31 4 36 13 59 34 20 49 16 55 8 60 13 70 27 78 27 79 28 80
REMARK H PARENT 28 81
REMARK Flexibility Score:  259.900
ROOT
ATOM      1  O   UNL     1      -4.026   9.356   8.047  1.00  0.00    -0.273 OA
ATOM      2  N   UNL     1      -2.931   8.417   9.822  1.00  0.00    -0.343 N 
ATOM      3  C   UNL     1      -3.308   9.487   9.039  1.00  0.00     0.243 C 
ATOM      4  H   UNL     1      -2.352   8.564  10.639  1.00  0.00     0.164 HD
ENDROOT
BRANCH   2   5
ATOM      5  C   UNL     1      -3.275   7.054   9.431  1.00  0.00     0.171 C 
ATOM      6  C   UNL     1      -3.692   4.621  10.952  1.00  0.00     0.214 C 
ATOM      7  N   UNL     1      -2.373   4.928  10.450  1.00  0.00    -0.303 N 
ATOM      8  C   UNL     1      -4.810   5.171  10.080  1.00  0.00     0.057 C 
ATOM      9  C   UNL     1      -2.094   6.097   9.761  1.00  0.00     0.247 C 
ATOM     10  C   UNL     1      -4.662   6.670   9.943  1.00  0.00     0.040 C 
ATOM     11  O   UNL     1      -0.944   6.393   9.410  1.00  0.00    -0.272 OA
BRANCH   6  12
ATOM     12  O   UNL     1      -3.787   5.138  12.259  1.00  0.00    -0.373 OA
ATOM     13  H   UNL     1      -4.328   5.955  12.206  1.00  0.00     0.213 HD
ENDBRANCH   6  12
BRANCH   7  14
ATOM     14  C   UNL     1      -1.280   4.007  10.829  1.00  0.00     0.177 C 
BRANCH  14  15
ATOM     15  C   UNL     1      -0.785   4.139  12.282  1.00  0.00     0.038 C 
BRANCH  15  16
ATOM     16  C   UNL     1       0.710   4.416  12.555  1.00  0.00    -0.015 C 
ATOM     17  C   UNL     1       0.933   5.725  13.318  1.00  0.00     0.007 C 
ATOM     18  C   UNL     1       1.473   4.499  11.226  1.00  0.00     0.007 C 
ENDBRANCH  15  16
ENDBRANCH  14  15
BRANCH  14  19
ATOM     19  C   UNL     1      -1.401   2.663  10.031  1.00  0.00     0.245 C 
ATOM     20  O   UNL     1      -1.009   2.676   8.852  1.00  0.00    -0.272 OA
BRANCH  19  21
ATOM     21  N   UNL     1      -2.010   1.524  10.526  1.00  0.00    -0.332 N 
ATOM     22  C   UNL     1      -2.862   0.626   9.767  1.00  0.00     0.147 C 
BRANCH  21  23
ATOM     23  C   UNL     1      -1.791   1.184  11.959  1.00  0.00     0.178 C 
BRANCH  23  24
ATOM     24  C   UNL     1      -3.014   0.571  12.671  1.00  0.00     0.070 C 
BRANCH  24  25
ATOM     25  C   UNL     1      -4.055   1.529  13.200  1.00  0.00    -0.045 A 
ATOM     26  C   UNL     1      -5.299   1.658  12.568  1.00  0.00     0.004 A 
ATOM     27  C   UNL     1      -3.787   2.311  14.334  1.00  0.00     0.004 A 
ATOM     28  C   UNL     1      -6.250   2.558  13.053  1.00  0.00     0.000 A 
ATOM     29  C   UNL     1      -4.739   3.210  14.817  1.00  0.00     0.000 A 
ATOM     30  C   UNL     1      -5.969   3.335  14.175  1.00  0.00     0.000 A 
ENDBRANCH  24  25
ENDBRANCH  23  24
BRANCH  23  31
ATOM     31  C   UNL     1      -0.454   0.446  12.207  1.00  0.00     0.243 C 
ATOM     32  O   UNL     1       0.637   0.851  11.816  1.00  0.00    -0.273 OA
ATOM     33  N   UNL     1      -0.613  -0.817  12.753  1.00  0.00    -0.341 N 
ATOM     34  H   UNL     1      -1.548  -1.101  13.055  1.00  0.00     0.164 HD
BRANCH  33  35
ATOM     35  C   UNL     1       0.504  -1.742  12.964  1.00  0.00     0.194 C 
BRANCH  35  36
ATOM     36  C   UNL     1       0.495  -2.975  12.017  1.00  0.00     0.017 C 
ATOM     37  C   UNL     1       1.570  -2.848  10.923  1.00  0.00     0.010 C 
ATOM     38  C   UNL     1      -0.852  -3.187  11.314  1.00  0.00     0.010 C 
ENDBRANCH  35  36
BRANCH  35  39
ATOM     39  C   UNL     1       0.665  -2.155  14.454  1.00  0.00     0.329 C 
ATOM     40  O   UNL     1       0.138  -1.566  15.390  1.00  0.00    -0.250 OA
BRANCH  39  41
ATOM     41  O   UNL     1       1.390  -3.305  14.599  1.00  0.00    -0.458 OA
BRANCH  41  42
ATOM     42  C   UNL     1       2.600  -3.205  15.388  1.00  0.00     0.205 CG0
ATOM     43  C   UNL     1       3.768  -3.066  14.414  1.00  0.00     0.056 C 
ATOM     44  G   UNL     1       2.715  -4.463  16.272  1.00  0.00     0.000 G0
ENDBRANCH  41  42
ENDBRANCH  39  41
ENDBRANCH  35  39
ENDBRANCH  33  35
ENDBRANCH  23  31
ENDBRANCH  21  23
ENDBRANCH  19  21
ENDBRANCH  14  19
ENDBRANCH   7  14
ENDBRANCH   2   5
BRANCH   3  45
ATOM     45  C   UNL     1      -2.790  10.855   9.503  1.00  0.00     0.171 C 
BRANCH  45  46
ATOM     46  N   UNL     1      -3.882  11.790   9.268  1.00  0.00    -0.342 N 
ATOM     47  C   UNL     1      -4.547  12.418  10.291  1.00  0.00     0.247 C 
ATOM     48  O   UNL     1      -4.224  12.294  11.473  1.00  0.00    -0.273 OA
ATOM     49  H   UNL     1      -4.145  11.965   8.299  1.00  0.00     0.164 HD
BRANCH  47  50
ATOM     50  C   UNL     1      -5.748  13.270   9.859  1.00  0.00     0.212 CG0
ATOM     51  G   UNL     1      -5.254  14.269   8.794  1.00  0.00     0.000 G0
BRANCH  50  52
ATOM     52  N   UNL     1      -6.735  12.323   9.347  1.00  0.00    -0.339 N 
ATOM     53  C   UNL     1      -7.896  12.009  10.010  1.00  0.00     0.243 C 
ATOM     54  O   UNL     1      -8.171  12.464  11.117  1.00  0.00    -0.273 OA
ATOM     55  H   UNL     1      -6.512  11.827   8.486  1.00  0.00     0.164 HD
BRANCH  53  56
ATOM     56  C   UNL     1      -8.739  10.919   9.317  1.00  0.00     0.182 C 
BRANCH  56  57
ATOM     57  N   UNL     1      -8.667  11.046   7.858  1.00  0.00    -0.344 N 
ATOM     58  C   UNL     1      -8.888   9.984   7.015  1.00  0.00     0.220 C 
ATOM     59  O   UNL     1      -9.088   8.844   7.422  1.00  0.00    -0.275 OA
ATOM     60  H   UNL     1      -8.606  11.987   7.480  1.00  0.00     0.164 HD
BRANCH  58  61
ATOM     61  C   UNL     1      -8.820  10.358   5.546  1.00  0.00     0.100 C 
BRANCH  61  62
ATOM     62  C   UNL     1      -7.749  11.400   5.224  1.00  0.00     0.010 C 
BRANCH  62  63
ATOM     63  C   UNL     1      -6.440  10.809   4.686  1.00  0.00     0.000 C 
BRANCH  63  64
ATOM     64  C   UNL     1      -6.588  10.059   3.364  1.00  0.00    -0.003 C 
ATOM     65  C   UNL     1      -5.470  10.416   2.395  1.00  0.00     0.004 C 
ENDBRANCH  63  64
ENDBRANCH  62  63
ENDBRANCH  61  62
ENDBRANCH  58  61
ENDBRANCH  56  57
BRANCH  56  66
ATOM     66  C   UNL     1     -10.180  10.918   9.826  1.00  0.00     0.157 C 
BRANCH  66  67
ATOM     67  C   UNL     1     -10.466   9.692  10.645  1.00  0.00     0.305 C 
ATOM     68  O   UNL     1     -10.805   9.658  11.818  1.00  0.00    -0.252 OA
BRANCH  67  69
ATOM     69  O   UNL     1     -10.362   8.559   9.925  1.00  0.00    -0.481 OA
ATOM     70  H   UNL     1     -10.012   8.847   9.055  1.00  0.00     0.296 HD
ENDBRANCH  67  69
ENDBRANCH  66  67
ENDBRANCH  56  66
ENDBRANCH  53  56
ENDBRANCH  50  52
ENDBRANCH  47  50
ENDBRANCH  45  46
BRANCH  45  71
ATOM     71  C   UNL     1      -1.533  11.244   8.716  1.00  0.00     0.037 C 
BRANCH  71  72
ATOM     72  C   UNL     1      -1.871  11.980   7.418  1.00  0.00     0.026 C 
BRANCH  72  73
ATOM     73  C   UNL     1      -0.835  11.703   6.331  1.00  0.00     0.146 C 
BRANCH  73  74
ATOM     74  N   UNL     1      -1.410  10.737   5.400  1.00  0.00    -0.254 NA
ATOM     75  C   UNL     1      -1.468  11.061   4.161  1.00  0.00     0.185 C 
ATOM     76  N   UNL     1      -1.992  10.193   3.280  1.00  0.00    -0.370 N 
ATOM     77  N   UNL     1      -1.066  12.196   3.564  1.00  0.00    -0.370 N 
ATOM     78  H   UNL     1      -2.327   9.314   3.648  1.00  0.00     0.159 HD
ATOM     79  H   UNL     1      -2.202  10.430   2.326  1.00  0.00     0.159 HD
ATOM     80  H   UNL     1      -0.648  12.940   4.103  1.00  0.00     0.159 HD
ATOM     81  H   UNL     1      -1.056  12.292   2.562  1.00  0.00     0.159 HD
ENDBRANCH  73  74
ENDBRANCH  72  73
ENDBRANCH  71  72
ENDBRANCH  45  71
ENDBRANCH   3  45
TORSDOF 20
ENDMDL
MODEL 24
REMARK VINA RESULT:    -5.594      7.015     15.349
REMARK INTER + INTRA:         -22.164
REMARK INTER:                 -15.759
REMARK INTRA:                  -6.405
REMARK UNBOUND:                -6.106
REMARK SMILES CCCCCC(=O)N[C@H](CC(=O)O)C(=O)N[C@H]1C(=O)N[C@H](CCCN=C(N)N)C(=O)N[C@@H]2CC[C@H](O)N(C2=O)[C@@H](CC(C)C)C(=O)N(C)[C@@H](Cc2ccccc2)C(=O)N[C@H](C(C)C)C(=O)O[C@@H]1C
REMARK SMILES IDX 30 1 31 2 29 3 32 5 35 6 37 7 34 8 38 9 33 10 39 11 36 12
REMARK SMILES IDX 40 14 41 15 42 16 43 17 44 18 45 19 46 20 47 21 48 22 49 23
REMARK SMILES IDX 50 24 51 25 52 26 56 27 53 28 55 29 54 30 57 31 58 32 59 33
REMARK SMILES IDX 60 35 61 36 62 37 63 38 64 39 65 40 66 41 67 42 68 43 21 45
REMARK SMILES IDX 20 46 18 47 19 48 17 50 16 52 14 53 15 54 9 56 8 57 6 58
REMARK SMILES IDX 7 59 5 61 4 62 3 63 2 64 1 65 10 66 11 67 12 68 13 69 22 71
REMARK SMILES IDX 23 72 24 73 25 74 26 75 27 76 28 77
REMARK H PARENT 31 4 36 13 59 34 20 49 16 55 8 60 13 70 27 78 27 79 28 80
REMARK H PARENT 28 81
REMARK Flexibility Score:  259.900
ROOT
ATOM      1  O   UNL     1      -2.869   6.676   9.983  1.00  0.00    -0.273 OA
ATOM      2  N   UNL     1      -3.121   6.932   7.725  1.00  0.00    -0.343 N 
ATOM      3  C   UNL     1      -3.239   6.222   8.900  1.00  0.00     0.243 C 
ATOM      4  H   UNL     1      -3.449   6.532   6.854  1.00  0.00     0.164 HD
ENDROOT
BRANCH   2   5
ATOM      5  C   UNL     1      -2.436   8.220   7.701  1.00  0.00     0.171 C 
ATOM      6  C   UNL     1      -1.754  10.042   5.551  1.00  0.00     0.214 C 
ATOM      7  N   UNL     1      -0.809   9.022   5.945  1.00  0.00    -0.303 N 
ATOM      8  C   UNL     1      -2.639  10.515   6.693  1.00  0.00     0.057 C 
ATOM      9  C   UNL     1      -1.092   8.088   6.928  1.00  0.00     0.247 C 
ATOM     10  C   UNL     1      -3.388   9.339   7.282  1.00  0.00     0.040 C 
ATOM     11  O   UNL     1      -0.313   7.165   7.200  1.00  0.00    -0.272 OA
BRANCH   6  12
ATOM     12  O   UNL     1      -2.538   9.521   4.503  1.00  0.00    -0.373 OA
ATOM     13  H   UNL     1      -1.929   9.319   3.761  1.00  0.00     0.213 HD
ENDBRANCH   6  12
BRANCH   7  14
ATOM     14  C   UNL     1       0.432   8.915   5.150  1.00  0.00     0.177 C 
BRANCH  14  15
ATOM     15  C   UNL     1       0.365   7.945   3.955  1.00  0.00     0.038 C 
BRANCH  15  16
ATOM     16  C   UNL     1       1.167   6.625   4.000  1.00  0.00    -0.015 C 
ATOM     17  C   UNL     1       0.273   5.405   4.240  1.00  0.00     0.007 C 
ATOM     18  C   UNL     1       2.206   6.689   5.127  1.00  0.00     0.007 C 
ENDBRANCH  15  16
ENDBRANCH  14  15
BRANCH  14  19
ATOM     19  C   UNL     1       1.209  10.277   5.169  1.00  0.00     0.245 C 
ATOM     20  O   UNL     1       1.558  10.706   6.282  1.00  0.00    -0.272 OA
BRANCH  19  21
ATOM     21  N   UNL     1       1.420  11.061   4.049  1.00  0.00    -0.332 N 
ATOM     22  C   UNL     1       0.414  11.874   3.388  1.00  0.00     0.147 C 
BRANCH  21  23
ATOM     23  C   UNL     1       2.785  11.072   3.454  1.00  0.00     0.178 C 
BRANCH  23  24
ATOM     24  C   UNL     1       3.292   9.695   2.977  1.00  0.00     0.070 C 
BRANCH  24  25
ATOM     25  C   UNL     1       4.402   9.056   3.779  1.00  0.00    -0.045 A 
ATOM     26  C   UNL     1       5.145   7.991   3.254  1.00  0.00     0.004 A 
ATOM     27  C   UNL     1       4.701   9.520   5.069  1.00  0.00     0.004 A 
ATOM     28  C   UNL     1       6.158   7.395   4.008  1.00  0.00     0.000 A 
ATOM     29  C   UNL     1       5.715   8.924   5.821  1.00  0.00     0.000 A 
ATOM     30  C   UNL     1       6.441   7.859   5.290  1.00  0.00     0.000 A 
ENDBRANCH  24  25
ENDBRANCH  23  24
BRANCH  23  31
ATOM     31  C   UNL     1       2.995  12.228   2.447  1.00  0.00     0.243 C 
ATOM     32  O   UNL     1       3.142  13.403   2.772  1.00  0.00    -0.273 OA
ATOM     33  N   UNL     1       2.818  11.850   1.127  1.00  0.00    -0.341 N 
ATOM     34  H   UNL     1       2.693  10.856   0.918  1.00  0.00     0.164 HD
BRANCH  33  35
ATOM     35  C   UNL     1       2.852  12.802   0.012  1.00  0.00     0.194 C 
BRANCH  35  36
ATOM     36  C   UNL     1       1.573  12.789  -0.872  1.00  0.00     0.017 C 
ATOM     37  C   UNL     1       0.382  13.435  -0.143  1.00  0.00     0.010 C 
ATOM     38  C   UNL     1       1.143  11.378  -1.293  1.00  0.00     0.010 C 
ENDBRANCH  35  36
BRANCH  35  39
ATOM     39  C   UNL     1       4.147  12.681  -0.838  1.00  0.00     0.329 C 
ATOM     40  O   UNL     1       5.202  12.219  -0.420  1.00  0.00    -0.250 OA
BRANCH  39  41
ATOM     41  O   UNL     1       3.955  13.068  -2.136  1.00  0.00    -0.458 OA
BRANCH  41  42
ATOM     42  C   UNL     1       4.795  14.146  -2.614  1.00  0.00     0.205 CG0
ATOM     43  C   UNL     1       4.260  15.442  -2.007  1.00  0.00     0.056 C 
ATOM     44  G   UNL     1       4.753  14.155  -4.155  1.00  0.00     0.000 G0
ENDBRANCH  41  42
ENDBRANCH  39  41
ENDBRANCH  35  39
ENDBRANCH  33  35
ENDBRANCH  23  31
ENDBRANCH  21  23
ENDBRANCH  19  21
ENDBRANCH  14  19
ENDBRANCH   7  14
ENDBRANCH   2   5
BRANCH   3  45
ATOM     45  C   UNL     1      -3.881   4.835   8.768  1.00  0.00     0.171 C 
BRANCH  45  46
ATOM     46  N   UNL     1      -4.562   4.594  10.034  1.00  0.00    -0.342 N 
ATOM     47  C   UNL     1      -5.928   4.637  10.154  1.00  0.00     0.247 C 
ATOM     48  O   UNL     1      -6.679   4.809   9.193  1.00  0.00    -0.273 OA
ATOM     49  H   UNL     1      -3.980   4.392  10.845  1.00  0.00     0.164 HD
BRANCH  47  50
ATOM     50  C   UNL     1      -6.459   4.483  11.587  1.00  0.00     0.212 CG0
ATOM     51  G   UNL     1      -7.996   4.591  11.529  1.00  0.00     0.000 G0
BRANCH  50  52
ATOM     52  N   UNL     1      -5.990   3.176  12.038  1.00  0.00    -0.339 N 
ATOM     53  C   UNL     1      -5.027   3.011  13.003  1.00  0.00     0.243 C 
ATOM     54  O   UNL     1      -4.445   3.957  13.527  1.00  0.00    -0.273 OA
ATOM     55  H   UNL     1      -6.354   2.352  11.562  1.00  0.00     0.164 HD
BRANCH  53  56
ATOM     56  C   UNL     1      -4.632   1.540  13.251  1.00  0.00     0.182 C 
BRANCH  56  57
ATOM     57  N   UNL     1      -3.686   1.071  12.234  1.00  0.00    -0.344 N 
ATOM     58  C   UNL     1      -2.419   0.643  12.549  1.00  0.00     0.220 C 
ATOM     59  O   UNL     1      -1.967   0.691  13.687  1.00  0.00    -0.275 OA
ATOM     60  H   UNL     1      -4.053   0.919  11.298  1.00  0.00     0.164 HD
BRANCH  58  61
ATOM     61  C   UNL     1      -1.636   0.146  11.348  1.00  0.00     0.100 C 
BRANCH  61  62
ATOM     62  C   UNL     1      -2.420   0.198  10.036  1.00  0.00     0.010 C 
BRANCH  62  63
ATOM     63  C   UNL     1      -3.021  -1.148   9.611  1.00  0.00     0.000 C 
BRANCH  63  64
ATOM     64  C   UNL     1      -2.356  -1.771   8.384  1.00  0.00    -0.003 C 
ATOM     65  C   UNL     1      -1.420  -2.905   8.776  1.00  0.00     0.004 C 
ENDBRANCH  63  64
ENDBRANCH  62  63
ENDBRANCH  61  62
ENDBRANCH  58  61
ENDBRANCH  56  57
BRANCH  56  66
ATOM     66  C   UNL     1      -5.862   0.640  13.354  1.00  0.00     0.157 C 
BRANCH  66  67
ATOM     67  C   UNL     1      -5.937  -0.312  12.195  1.00  0.00     0.305 C 
ATOM     68  O   UNL     1      -6.353  -0.069  11.073  1.00  0.00    -0.252 OA
BRANCH  67  69
ATOM     69  O   UNL     1      -5.432  -1.524  12.495  1.00  0.00    -0.481 OA
ATOM     70  H   UNL     1      -4.713  -1.343  13.136  1.00  0.00     0.296 HD
ENDBRANCH  67  69
ENDBRANCH  66  67
ENDBRANCH  56  66
ENDBRANCH  53  56
ENDBRANCH  50  52
ENDBRANCH  47  50
ENDBRANCH  45  46
BRANCH  45  71
ATOM     71  C   UNL     1      -2.810   3.774   8.492  1.00  0.00     0.037 C 
BRANCH  71  72
ATOM     72  C   UNL     1      -1.398   4.365   8.505  1.00  0.00     0.026 C 
BRANCH  72  73
ATOM     73  C   UNL     1      -0.544   3.753   9.614  1.00  0.00     0.146 C 
BRANCH  73  74
ATOM     74  N   UNL     1      -1.356   3.703  10.826  1.00  0.00    -0.254 NA
ATOM     75  C   UNL     1      -0.764   3.871  11.950  1.00  0.00     0.185 C 
ATOM     76  N   UNL     1      -1.484   3.832  13.083  1.00  0.00    -0.370 N 
ATOM     77  N   UNL     1       0.539   4.095  12.194  1.00  0.00    -0.370 N 
ATOM     78  H   UNL     1      -2.475   3.660  12.990  1.00  0.00     0.159 HD
ATOM     79  H   UNL     1      -1.073   3.810  14.000  1.00  0.00     0.159 HD
ATOM     80  H   UNL     1       1.201   4.154  11.435  1.00  0.00     0.159 HD
ATOM     81  H   UNL     1       0.872   4.328  13.115  1.00  0.00     0.159 HD
ENDBRANCH  73  74
ENDBRANCH  72  73
ENDBRANCH  71  72
ENDBRANCH  45  71
ENDBRANCH   3  45
TORSDOF 20
ENDMDL
MODEL 25
REMARK VINA RESULT:    -5.581      9.412     13.517
REMARK INTER + INTRA:         -22.128
REMARK INTER:                 -16.968
REMARK INTRA:                  -5.160
REMARK UNBOUND:                -6.106
REMARK SMILES CCCCCC(=O)N[C@H](CC(=O)O)C(=O)N[C@H]1C(=O)N[C@H](CCCN=C(N)N)C(=O)N[C@@H]2CC[C@H](O)N(C2=O)[C@@H](CC(C)C)C(=O)N(C)[C@@H](Cc2ccccc2)C(=O)N[C@H](C(C)C)C(=O)O[C@@H]1C
REMARK SMILES IDX 30 1 31 2 29 3 32 5 35 6 37 7 34 8 38 9 33 10 39 11 36 12
REMARK SMILES IDX 40 14 41 15 42 16 43 17 44 18 45 19 46 20 47 21 48 22 49 23
REMARK SMILES IDX 50 24 51 25 52 26 56 27 53 28 55 29 54 30 57 31 58 32 59 33
REMARK SMILES IDX 60 35 61 36 62 37 63 38 64 39 65 40 66 41 67 42 68 43 21 45
REMARK SMILES IDX 20 46 18 47 19 48 17 50 16 52 14 53 15 54 9 56 8 57 6 58
REMARK SMILES IDX 7 59 5 61 4 62 3 63 2 64 1 65 10 66 11 67 12 68 13 69 22 71
REMARK SMILES IDX 23 72 24 73 25 74 26 75 27 76 28 77
REMARK H PARENT 31 4 36 13 59 34 20 49 16 55 8 60 13 70 27 78 27 79 28 80
REMARK H PARENT 28 81
REMARK Flexibility Score:  259.900
ROOT
ATOM      1  O   UNL     1      -2.897   9.439  10.515  1.00  0.00    -0.273 OA
ATOM      2  N   UNL     1      -1.116   8.100   9.999  1.00  0.00    -0.343 N 
ATOM      3  C   UNL     1      -2.112   8.996   9.676  1.00  0.00     0.243 C 
ATOM      4  H   UNL     1      -0.479   7.768   9.285  1.00  0.00     0.164 HD
ENDROOT
BRANCH   2   5
ATOM      5  C   UNL     1      -1.025   7.544  11.345  1.00  0.00     0.171 C 
ATOM      6  C   UNL     1       0.271   5.180  12.410  1.00  0.00     0.214 C 
ATOM      7  N   UNL     1      -1.101   5.099  11.966  1.00  0.00    -0.303 N 
ATOM      8  C   UNL     1       0.653   6.555  12.935  1.00  0.00     0.057 C 
ATOM      9  C   UNL     1      -1.764   6.176  11.401  1.00  0.00     0.247 C 
ATOM     10  C   UNL     1       0.410   7.597  11.865  1.00  0.00     0.040 C 
ATOM     11  O   UNL     1      -2.910   6.075  10.944  1.00  0.00    -0.272 OA
BRANCH   6  12
ATOM     12  O   UNL     1       1.096   4.820  11.327  1.00  0.00    -0.373 OA
ATOM     13  H   UNL     1       1.716   5.565  11.177  1.00  0.00     0.213 HD
ENDBRANCH   6  12
BRANCH   7  14
ATOM     14  C   UNL     1      -1.739   3.766  12.002  1.00  0.00     0.177 C 
BRANCH  14  15
ATOM     15  C   UNL     1      -3.197   3.750  12.501  1.00  0.00     0.038 C 
BRANCH  15  16
ATOM     16  C   UNL     1      -3.523   3.138  13.881  1.00  0.00    -0.015 C 
ATOM     17  C   UNL     1      -4.737   3.799  14.542  1.00  0.00     0.007 C 
ATOM     18  C   UNL     1      -2.319   3.301  14.818  1.00  0.00     0.007 C 
ENDBRANCH  15  16
ENDBRANCH  14  15
BRANCH  14  19
ATOM     19  C   UNL     1      -1.159   2.855  10.867  1.00  0.00     0.245 C 
ATOM     20  O   UNL     1      -1.174   3.319   9.714  1.00  0.00    -0.272 OA
BRANCH  19  21
ATOM     21  N   UNL     1      -0.745   1.549  11.061  1.00  0.00    -0.332 N 
ATOM     22  C   UNL     1       0.589   1.039  10.799  1.00  0.00     0.147 C 
BRANCH  21  23
ATOM     23  C   UNL     1      -1.746   0.571  11.572  1.00  0.00     0.178 C 
BRANCH  23  24
ATOM     24  C   UNL     1      -2.437  -0.274  10.483  1.00  0.00     0.070 C 
BRANCH  24  25
ATOM     25  C   UNL     1      -3.897  -0.604  10.691  1.00  0.00    -0.045 A 
ATOM     26  C   UNL     1      -4.538  -1.561   9.893  1.00  0.00     0.004 A 
ATOM     27  C   UNL     1      -4.635   0.051  11.689  1.00  0.00     0.004 A 
ATOM     28  C   UNL     1      -5.891  -1.847  10.080  1.00  0.00     0.000 A 
ATOM     29  C   UNL     1      -5.988  -0.238  11.876  1.00  0.00     0.000 A 
ATOM     30  C   UNL     1      -6.616  -1.185  11.069  1.00  0.00     0.000 A 
ENDBRANCH  24  25
ENDBRANCH  23  24
BRANCH  23  31
ATOM     31  C   UNL     1      -1.237  -0.231  12.794  1.00  0.00     0.243 C 
ATOM     32  O   UNL     1      -1.359   0.140  13.958  1.00  0.00    -0.273 OA
ATOM     33  N   UNL     1      -0.461  -1.326  12.452  1.00  0.00    -0.341 N 
ATOM     34  H   UNL     1      -0.392  -1.582  11.464  1.00  0.00     0.164 HD
BRANCH  33  35
ATOM     35  C   UNL     1       0.224  -2.160  13.443  1.00  0.00     0.194 C 
BRANCH  35  36
ATOM     36  C   UNL     1       1.682  -1.716  13.749  1.00  0.00     0.017 C 
ATOM     37  C   UNL     1       2.526  -1.645  12.465  1.00  0.00     0.010 C 
ATOM     38  C   UNL     1       2.407  -2.653  14.724  1.00  0.00     0.010 C 
ENDBRANCH  35  36
BRANCH  35  39
ATOM     39  C   UNL     1       0.136  -3.676  13.111  1.00  0.00     0.329 C 
ATOM     40  O   UNL     1       0.676  -4.198  12.143  1.00  0.00    -0.250 OA
BRANCH  39  41
ATOM     41  O   UNL     1      -0.538  -4.381  14.070  1.00  0.00    -0.458 OA
BRANCH  41  42
ATOM     42  C   UNL     1       0.136  -5.546  14.603  1.00  0.00     0.205 CG0
ATOM     43  C   UNL     1       0.035  -5.472  16.125  1.00  0.00     0.056 C 
ATOM     44  G   UNL     1       1.596  -5.539  14.107  1.00  0.00     0.000 G0
ENDBRANCH  41  42
ENDBRANCH  39  41
ENDBRANCH  35  39
ENDBRANCH  33  35
ENDBRANCH  23  31
ENDBRANCH  21  23
ENDBRANCH  19  21
ENDBRANCH  14  19
ENDBRANCH   7  14
ENDBRANCH   2   5
BRANCH   3  45
ATOM     45  C   UNL     1      -2.163   9.419   8.201  1.00  0.00     0.171 C 
BRANCH  45  46
ATOM     46  N   UNL     1      -3.053  10.570   8.152  1.00  0.00    -0.342 N 
ATOM     47  C   UNL     1      -2.625  11.845   8.426  1.00  0.00     0.247 C 
ATOM     48  O   UNL     1      -1.447  12.118   8.660  1.00  0.00    -0.273 OA
ATOM     49  H   UNL     1      -4.026  10.397   7.906  1.00  0.00     0.164 HD
BRANCH  47  50
ATOM     50  C   UNL     1      -3.729  12.912   8.447  1.00  0.00     0.212 CG0
ATOM     51  G   UNL     1      -3.226  14.120   7.632  1.00  0.00     0.000 G0
BRANCH  50  52
ATOM     52  N   UNL     1      -4.903  12.269   7.863  1.00  0.00    -0.339 N 
ATOM     53  C   UNL     1      -5.984  11.854   8.602  1.00  0.00     0.243 C 
ATOM     54  O   UNL     1      -6.023  11.945   9.826  1.00  0.00    -0.273 OA
ATOM     55  H   UNL     1      -4.883  12.065   6.866  1.00  0.00     0.164 HD
BRANCH  53  56
ATOM     56  C   UNL     1      -7.064  11.125   7.779  1.00  0.00     0.182 C 
BRANCH  56  57
ATOM     57  N   UNL     1      -7.544   9.930   8.481  1.00  0.00    -0.344 N 
ATOM     58  C   UNL     1      -8.860   9.539   8.453  1.00  0.00     0.220 C 
ATOM     59  O   UNL     1      -9.737  10.197   7.903  1.00  0.00    -0.275 OA
ATOM     60  H   UNL     1      -6.838   9.305   8.861  1.00  0.00     0.164 HD
BRANCH  58  61
ATOM     61  C   UNL     1      -9.118   8.243   9.199  1.00  0.00     0.100 C 
BRANCH  61  62
ATOM     62  C   UNL     1      -8.035   7.893  10.220  1.00  0.00     0.010 C 
BRANCH  62  63
ATOM     63  C   UNL     1      -7.263   6.607   9.900  1.00  0.00     0.000 C 
BRANCH  63  64
ATOM     64  C   UNL     1      -7.735   5.381  10.680  1.00  0.00    -0.003 C 
ATOM     65  C   UNL     1      -6.629   4.827  11.565  1.00  0.00     0.004 C 
ENDBRANCH  63  64
ENDBRANCH  62  63
ENDBRANCH  61  62
ENDBRANCH  58  61
ENDBRANCH  56  57
BRANCH  56  66
ATOM     66  C   UNL     1      -6.573  10.806   6.368  1.00  0.00     0.157 C 
BRANCH  66  67
ATOM     67  C   UNL     1      -7.415  11.493   5.331  1.00  0.00     0.305 C 
ATOM     68  O   UNL     1      -7.037  11.935   4.256  1.00  0.00    -0.252 OA
BRANCH  67  69
ATOM     69  O   UNL     1      -8.715  11.544   5.678  1.00  0.00    -0.481 OA
ATOM     70  H   UNL     1      -8.715  11.891   6.596  1.00  0.00     0.296 HD
ENDBRANCH  67  69
ENDBRANCH  66  67
ENDBRANCH  56  66
ENDBRANCH  53  56
ENDBRANCH  50  52
ENDBRANCH  47  50
ENDBRANCH  45  46
BRANCH  45  71
ATOM     71  C   UNL     1      -2.680   8.266   7.333  1.00  0.00     0.037 C 
BRANCH  71  72
ATOM     72  C   UNL     1      -1.554   7.584   6.552  1.00  0.00     0.026 C 
BRANCH  72  73
ATOM     73  C   UNL     1      -1.707   6.064   6.561  1.00  0.00     0.146 C 
BRANCH  73  74
ATOM     74  N   UNL     1      -2.598   5.711   7.663  1.00  0.00    -0.254 NA
ATOM     75  C   UNL     1      -3.460   4.784   7.462  1.00  0.00     0.185 C 
ATOM     76  N   UNL     1      -4.292   4.437   8.457  1.00  0.00    -0.370 N 
ATOM     77  N   UNL     1      -3.679   4.060   6.351  1.00  0.00    -0.370 N 
ATOM     78  H   UNL     1      -4.199   4.939   9.328  1.00  0.00     0.159 HD
ATOM     79  H   UNL     1      -5.082   3.828   8.331  1.00  0.00     0.159 HD
ATOM     80  H   UNL     1      -3.124   4.210   5.523  1.00  0.00     0.159 HD
ATOM     81  H   UNL     1      -4.310   3.276   6.348  1.00  0.00     0.159 HD
ENDBRANCH  73  74
ENDBRANCH  72  73
ENDBRANCH  71  72
ENDBRANCH  45  71
ENDBRANCH   3  45
TORSDOF 20
ENDMDL
MODEL 26
REMARK VINA RESULT:    -5.553      2.749      6.060
REMARK INTER + INTRA:         -22.047
REMARK INTER:                 -16.945
REMARK INTRA:                  -5.102
REMARK UNBOUND:                -6.106
REMARK SMILES CCCCCC(=O)N[C@H](CC(=O)O)C(=O)N[C@H]1C(=O)N[C@H](CCCN=C(N)N)C(=O)N[C@@H]2CC[C@H](O)N(C2=O)[C@@H](CC(C)C)C(=O)N(C)[C@@H](Cc2ccccc2)C(=O)N[C@H](C(C)C)C(=O)O[C@@H]1C
REMARK SMILES IDX 30 1 31 2 29 3 32 5 35 6 37 7 34 8 38 9 33 10 39 11 36 12
REMARK SMILES IDX 40 14 41 15 42 16 43 17 44 18 45 19 46 20 47 21 48 22 49 23
REMARK SMILES IDX 50 24 51 25 52 26 56 27 53 28 55 29 54 30 57 31 58 32 59 33
REMARK SMILES IDX 60 35 61 36 62 37 63 38 64 39 65 40 66 41 67 42 68 43 21 45
REMARK SMILES IDX 20 46 18 47 19 48 17 50 16 52 14 53 15 54 9 56 8 57 6 58
REMARK SMILES IDX 7 59 5 61 4 62 3 63 2 64 1 65 10 66 11 67 12 68 13 69 22 71
REMARK SMILES IDX 23 72 24 73 25 74 26 75 27 76 28 77
REMARK H PARENT 31 4 36 13 59 34 20 49 16 55 8 60 13 70 27 78 27 79 28 80
REMARK H PARENT 28 81
REMARK Flexibility Score:  259.900
ROOT
ATOM      1  O   UNL     1       1.328  11.190   5.715  1.00  0.00    -0.273 OA
ATOM      2  N   UNL     1      -0.298   9.754   6.439  1.00  0.00    -0.343 N 
ATOM      3  C   UNL     1       0.587  10.232   5.496  1.00  0.00     0.243 C 
ATOM      4  H   UNL     1      -0.882   8.954   6.230  1.00  0.00     0.164 HD
ENDROOT
BRANCH   2   5
ATOM      5  C   UNL     1      -0.477  10.450   7.709  1.00  0.00     0.171 C 
ATOM      6  C   UNL     1      -2.477  10.245   9.797  1.00  0.00     0.214 C 
ATOM      7  N   UNL     1      -2.669  11.188   8.720  1.00  0.00    -0.303 N 
ATOM      8  C   UNL     1      -1.014   9.992  10.122  1.00  0.00     0.057 C 
ATOM      9  C   UNL     1      -1.778  11.301   7.665  1.00  0.00     0.247 C 
ATOM     10  C   UNL     1      -0.292   9.496   8.888  1.00  0.00     0.040 C 
ATOM     11  O   UNL     1      -1.993  12.050   6.703  1.00  0.00    -0.272 OA
BRANCH   6  12
ATOM     12  O   UNL     1      -3.116   9.042   9.434  1.00  0.00    -0.373 OA
ATOM     13  H   UNL     1      -2.460   8.322   9.552  1.00  0.00     0.213 HD
ENDBRANCH   6  12
BRANCH   7  14
ATOM     14  C   UNL     1      -3.942  11.939   8.705  1.00  0.00     0.177 C 
BRANCH  14  15
ATOM     15  C   UNL     1      -3.803  13.470   8.820  1.00  0.00     0.038 C 
BRANCH  15  16
ATOM     16  C   UNL     1      -4.115  14.163  10.164  1.00  0.00    -0.015 C 
ATOM     17  C   UNL     1      -4.509  13.167  11.258  1.00  0.00     0.007 C 
ATOM     18  C   UNL     1      -5.270  15.156   9.980  1.00  0.00     0.007 C 
ENDBRANCH  15  16
ENDBRANCH  14  15
BRANCH  14  19
ATOM     19  C   UNL     1      -5.006  11.188   7.832  1.00  0.00     0.245 C 
ATOM     20  O   UNL     1      -4.814  11.175   6.605  1.00  0.00    -0.272 OA
BRANCH  19  21
ATOM     21  N   UNL     1      -6.177  10.651   8.336  1.00  0.00    -0.332 N 
ATOM     22  C   UNL     1      -6.266   9.500   9.216  1.00  0.00     0.147 C 
BRANCH  21  23
ATOM     23  C   UNL     1      -7.462  11.291   7.942  1.00  0.00     0.178 C 
BRANCH  23  24
ATOM     24  C   UNL     1      -8.325  10.461   6.969  1.00  0.00     0.070 C 
BRANCH  24  25
ATOM     25  C   UNL     1      -8.686  11.104   5.650  1.00  0.00    -0.045 A 
ATOM     26  C   UNL     1      -9.624  10.510   4.795  1.00  0.00     0.004 A 
ATOM     27  C   UNL     1      -8.081  12.308   5.260  1.00  0.00     0.004 A 
ATOM     28  C   UNL     1      -9.939  11.101   3.570  1.00  0.00     0.000 A 
ATOM     29  C   UNL     1      -8.398  12.898   4.036  1.00  0.00     0.000 A 
ATOM     30  C   UNL     1      -9.326  12.292   3.190  1.00  0.00     0.000 A 
ENDBRANCH  24  25
ENDBRANCH  23  24
BRANCH  23  31
ATOM     31  C   UNL     1      -8.230  11.893   9.143  1.00  0.00     0.243 C 
ATOM     32  O   UNL     1      -7.767  12.745   9.897  1.00  0.00    -0.273 OA
ATOM     33  N   UNL     1      -9.429  11.253   9.410  1.00  0.00    -0.341 N 
ATOM     34  H   UNL     1      -9.760  10.547   8.747  1.00  0.00     0.164 HD
BRANCH  33  35
ATOM     35  C   UNL     1     -10.265  11.575  10.569  1.00  0.00     0.194 C 
BRANCH  35  36
ATOM     36  C   UNL     1     -10.010  10.671  11.808  1.00  0.00     0.017 C 
ATOM     37  C   UNL     1      -8.995  11.314  12.769  1.00  0.00     0.010 C 
ATOM     38  C   UNL     1      -9.477   9.280  11.441  1.00  0.00     0.010 C 
ENDBRANCH  35  36
BRANCH  35  39
ATOM     39  C   UNL     1     -11.776  11.656  10.212  1.00  0.00     0.329 C 
ATOM     40  O   UNL     1     -12.267  11.184   9.193  1.00  0.00    -0.250 OA
BRANCH  39  41
ATOM     41  O   UNL     1     -12.514  12.239  11.205  1.00  0.00    -0.458 OA
BRANCH  41  42
ATOM     42  C   UNL     1     -13.310  13.386  10.823  1.00  0.00     0.205 CG0
ATOM     43  C   UNL     1     -12.658  14.619  11.445  1.00  0.00     0.056 C 
ATOM     44  G   UNL     1     -14.754  13.170  11.318  1.00  0.00     0.000 G0
ENDBRANCH  41  42
ENDBRANCH  39  41
ENDBRANCH  35  39
ENDBRANCH  33  35
ENDBRANCH  23  31
ENDBRANCH  21  23
ENDBRANCH  19  21
ENDBRANCH  14  19
ENDBRANCH   7  14
ENDBRANCH   2   5
BRANCH   3  45
ATOM     45  C   UNL     1       0.599   9.472   4.163  1.00  0.00     0.171 C 
BRANCH  45  46
ATOM     46  N   UNL     1       1.508  10.211   3.297  1.00  0.00    -0.342 N 
ATOM     47  C   UNL     1       2.323   9.591   2.385  1.00  0.00     0.247 C 
ATOM     48  O   UNL     1       2.296   8.377   2.180  1.00  0.00    -0.273 OA
ATOM     49  H   UNL     1       1.522  11.225   3.394  1.00  0.00     0.164 HD
BRANCH  47  50
ATOM     50  C   UNL     1       3.301  10.519   1.650  1.00  0.00     0.212 CG0
ATOM     51  G   UNL     1       4.531   9.680   1.250  1.00  0.00     0.000 G0
BRANCH  50  52
ATOM     52  N   UNL     1       2.559  11.037   0.503  1.00  0.00    -0.339 N 
ATOM     53  C   UNL     1       1.893  12.238   0.514  1.00  0.00     0.243 C 
ATOM     54  O   UNL     1       1.826  12.949   1.514  1.00  0.00    -0.273 OA
ATOM     55  H   UNL     1       2.484  10.442  -0.319  1.00  0.00     0.164 HD
BRANCH  53  56
ATOM     56  C   UNL     1       1.110  12.534  -0.781  1.00  0.00     0.182 C 
BRANCH  56  57
ATOM     57  N   UNL     1      -0.320  12.707  -0.504  1.00  0.00    -0.344 N 
ATOM     58  C   UNL     1      -1.072  13.687  -1.102  1.00  0.00     0.220 C 
ATOM     59  O   UNL     1      -0.589  14.530  -1.851  1.00  0.00    -0.275 OA
ATOM     60  H   UNL     1      -0.778  11.971   0.028  1.00  0.00     0.164 HD
BRANCH  58  61
ATOM     61  C   UNL     1      -2.538  13.643  -0.713  1.00  0.00     0.100 C 
BRANCH  61  62
ATOM     62  C   UNL     1      -3.477  14.207  -1.780  1.00  0.00     0.010 C 
BRANCH  62  63
ATOM     63  C   UNL     1      -4.012  15.610  -1.466  1.00  0.00     0.000 C 
BRANCH  63  64
ATOM     64  C   UNL     1      -5.239  15.624  -0.555  1.00  0.00    -0.003 C 
ATOM     65  C   UNL     1      -6.203  14.500  -0.907  1.00  0.00     0.004 C 
ENDBRANCH  63  64
ENDBRANCH  62  63
ENDBRANCH  61  62
ENDBRANCH  58  61
ENDBRANCH  56  57
BRANCH  56  66
ATOM     66  C   UNL     1       1.366  11.469  -1.846  1.00  0.00     0.157 C 
BRANCH  66  67
ATOM     67  C   UNL     1       0.190  10.547  -1.987  1.00  0.00     0.305 C 
ATOM     68  O   UNL     1      -0.635  10.545  -2.888  1.00  0.00    -0.252 OA
BRANCH  67  69
ATOM     69  O   UNL     1       0.138   9.629  -1.004  1.00  0.00    -0.481 OA
ATOM     70  H   UNL     1      -0.790   9.654  -0.686  1.00  0.00     0.296 HD
ENDBRANCH  67  69
ENDBRANCH  66  67
ENDBRANCH  56  66
ENDBRANCH  53  56
ENDBRANCH  50  52
ENDBRANCH  47  50
ENDBRANCH  45  46
BRANCH  45  71
ATOM     71  C   UNL     1      -0.814   9.404   3.574  1.00  0.00     0.037 C 
BRANCH  71  72
ATOM     72  C   UNL     1      -1.480  10.781   3.514  1.00  0.00     0.026 C 
BRANCH  72  73
ATOM     73  C   UNL     1      -2.483  10.869   2.366  1.00  0.00     0.146 C 
BRANCH  73  74
ATOM     74  N   UNL     1      -3.780  10.430   2.872  1.00  0.00    -0.254 NA
ATOM     75  C   UNL     1      -4.727  10.261   2.025  1.00  0.00     0.185 C 
ATOM     76  N   UNL     1      -5.932   9.857   2.460  1.00  0.00    -0.370 N 
ATOM     77  N   UNL     1      -4.709  10.433   0.692  1.00  0.00    -0.370 N 
ATOM     78  H   UNL     1      -6.034   9.711   3.454  1.00  0.00     0.159 HD
ATOM     79  H   UNL     1      -6.753   9.843   1.881  1.00  0.00     0.159 HD
ATOM     80  H   UNL     1      -3.867  10.732   0.224  1.00  0.00     0.159 HD
ATOM     81  H   UNL     1      -5.485  10.157   0.113  1.00  0.00     0.159 HD
ENDBRANCH  73  74
ENDBRANCH  72  73
ENDBRANCH  71  72
ENDBRANCH  45  71
ENDBRANCH   3  45
TORSDOF 20
ENDMDL
MODEL 27
REMARK VINA RESULT:    -5.526      9.387     14.305
REMARK INTER + INTRA:         -21.970
REMARK INTER:                 -15.922
REMARK INTRA:                  -6.049
REMARK UNBOUND:                -6.106
REMARK SMILES CCCCCC(=O)N[C@H](CC(=O)O)C(=O)N[C@H]1C(=O)N[C@H](CCCN=C(N)N)C(=O)N[C@@H]2CC[C@H](O)N(C2=O)[C@@H](CC(C)C)C(=O)N(C)[C@@H](Cc2ccccc2)C(=O)N[C@H](C(C)C)C(=O)O[C@@H]1C
REMARK SMILES IDX 30 1 31 2 29 3 32 5 35 6 37 7 34 8 38 9 33 10 39 11 36 12
REMARK SMILES IDX 40 14 41 15 42 16 43 17 44 18 45 19 46 20 47 21 48 22 49 23
REMARK SMILES IDX 50 24 51 25 52 26 56 27 53 28 55 29 54 30 57 31 58 32 59 33
REMARK SMILES IDX 60 35 61 36 62 37 63 38 64 39 65 40 66 41 67 42 68 43 21 45
REMARK SMILES IDX 20 46 18 47 19 48 17 50 16 52 14 53 15 54 9 56 8 57 6 58
REMARK SMILES IDX 7 59 5 61 4 62 3 63 2 64 1 65 10 66 11 67 12 68 13 69 22 71
REMARK SMILES IDX 23 72 24 73 25 74 26 75 27 76 28 77
REMARK H PARENT 31 4 36 13 59 34 20 49 16 55 8 60 13 70 27 78 27 79 28 80
REMARK H PARENT 28 81
REMARK Flexibility Score:  259.900
ROOT
ATOM      1  O   UNL     1      -2.428   9.419  11.245  1.00  0.00    -0.273 OA
ATOM      2  N   UNL     1      -1.855   7.460  10.212  1.00  0.00    -0.343 N 
ATOM      3  C   UNL     1      -2.320   8.758  10.212  1.00  0.00     0.243 C 
ATOM      4  H   UNL     1      -1.766   6.952   9.342  1.00  0.00     0.164 HD
ENDROOT
BRANCH   2   5
ATOM      5  C   UNL     1      -1.579   6.771  11.468  1.00  0.00     0.171 C 
ATOM      6  C   UNL     1      -0.550   4.130  12.074  1.00  0.00     0.214 C 
ATOM      7  N   UNL     1      -1.976   4.326  11.957  1.00  0.00    -0.303 N 
ATOM      8  C   UNL     1       0.189   5.363  12.570  1.00  0.00     0.057 C 
ATOM      9  C   UNL     1      -2.531   5.550  11.620  1.00  0.00     0.247 C 
ATOM     10  C   UNL     1      -0.081   6.529  11.643  1.00  0.00     0.040 C 
ATOM     11  O   UNL     1      -3.747   5.690  11.436  1.00  0.00    -0.272 OA
BRANCH   6  12
ATOM     12  O   UNL     1      -0.063   3.739  10.811  1.00  0.00    -0.373 OA
ATOM     13  H   UNL     1       0.434   4.501  10.446  1.00  0.00     0.213 HD
ENDBRANCH   6  12
BRANCH   7  14
ATOM     14  C   UNL     1      -2.829   3.125  12.067  1.00  0.00     0.177 C 
BRANCH  14  15
ATOM     15  C   UNL     1      -3.954   3.213  13.118  1.00  0.00     0.038 C 
BRANCH  15  16
ATOM     16  C   UNL     1      -5.269   2.435  12.892  1.00  0.00    -0.015 C 
ATOM     17  C   UNL     1      -6.490   3.357  12.827  1.00  0.00     0.007 C 
ATOM     18  C   UNL     1      -5.483   1.435  14.036  1.00  0.00     0.007 C 
ENDBRANCH  15  16
ENDBRANCH  14  15
BRANCH  14  19
ATOM     19  C   UNL     1      -2.940   2.407  10.678  1.00  0.00     0.245 C 
ATOM     20  O   UNL     1      -3.615   2.979   9.805  1.00  0.00    -0.272 OA
BRANCH  19  21
ATOM     21  N   UNL     1      -2.432   1.147  10.418  1.00  0.00    -0.332 N 
ATOM     22  C   UNL     1      -1.495   0.818   9.359  1.00  0.00     0.147 C 
BRANCH  21  23
ATOM     23  C   UNL     1      -2.885   0.022  11.284  1.00  0.00     0.178 C 
BRANCH  23  24
ATOM     24  C   UNL     1      -3.651  -1.093  10.544  1.00  0.00     0.070 C 
BRANCH  24  25
ATOM     25  C   UNL     1      -4.810  -1.732  11.274  1.00  0.00    -0.045 A 
ATOM     26  C   UNL     1      -6.028  -1.056  11.418  1.00  0.00     0.004 A 
ATOM     27  C   UNL     1      -4.678  -3.017  11.824  1.00  0.00     0.004 A 
ATOM     28  C   UNL     1      -7.088  -1.647  12.109  1.00  0.00     0.000 A 
ATOM     29  C   UNL     1      -5.739  -3.606  12.513  1.00  0.00     0.000 A 
ATOM     30  C   UNL     1      -6.942  -2.920  12.657  1.00  0.00     0.000 A 
ENDBRANCH  24  25
ENDBRANCH  23  24
BRANCH  23  31
ATOM     31  C   UNL     1      -1.785  -0.475  12.252  1.00  0.00     0.243 C 
ATOM     32  O   UNL     1      -1.373   0.170  13.213  1.00  0.00    -0.273 OA
ATOM     33  N   UNL     1      -1.166  -1.641  11.834  1.00  0.00    -0.341 N 
ATOM     34  H   UNL     1      -1.551  -2.131  11.022  1.00  0.00     0.164 HD
BRANCH  33  35
ATOM     35  C   UNL     1      -0.019  -2.230  12.530  1.00  0.00     0.194 C 
BRANCH  35  36
ATOM     36  C   UNL     1       1.336  -2.048  11.789  1.00  0.00     0.017 C 
ATOM     37  C   UNL     1       2.296  -1.154  12.592  1.00  0.00     0.010 C 
ATOM     38  C   UNL     1       1.183  -1.423  10.397  1.00  0.00     0.010 C 
ENDBRANCH  35  36
BRANCH  35  39
ATOM     39  C   UNL     1      -0.263  -3.710  12.938  1.00  0.00     0.329 C 
ATOM     40  O   UNL     1      -1.373  -4.219  13.042  1.00  0.00    -0.250 OA
BRANCH  39  41
ATOM     41  O   UNL     1       0.904  -4.409  13.083  1.00  0.00    -0.458 OA
BRANCH  41  42
ATOM     42  C   UNL     1       1.241  -4.822  14.428  1.00  0.00     0.205 CG0
ATOM     43  C   UNL     1       2.598  -4.206  14.766  1.00  0.00     0.056 C 
ATOM     44  G   UNL     1       1.263  -6.362  14.479  1.00  0.00     0.000 G0
ENDBRANCH  41  42
ENDBRANCH  39  41
ENDBRANCH  35  39
ENDBRANCH  33  35
ENDBRANCH  23  31
ENDBRANCH  21  23
ENDBRANCH  19  21
ENDBRANCH  14  19
ENDBRANCH   7  14
ENDBRANCH   2   5
BRANCH   3  45
ATOM     45  C   UNL     1      -2.675   9.328   8.832  1.00  0.00     0.171 C 
BRANCH  45  46
ATOM     46  N   UNL     1      -3.729  10.305   9.069  1.00  0.00    -0.342 N 
ATOM     47  C   UNL     1      -3.993  11.330   8.195  1.00  0.00     0.247 C 
ATOM     48  O   UNL     1      -3.411  11.455   7.117  1.00  0.00    -0.273 OA
ATOM     49  H   UNL     1      -4.274  10.204   9.923  1.00  0.00     0.164 HD
BRANCH  47  50
ATOM     50  C   UNL     1      -5.054  12.332   8.670  1.00  0.00     0.212 CG0
ATOM     51  G   UNL     1      -5.270  13.356   7.538  1.00  0.00     0.000 G0
BRANCH  50  52
ATOM     52  N   UNL     1      -6.242  11.534   8.961  1.00  0.00    -0.339 N 
ATOM     53  C   UNL     1      -7.299  11.409   8.092  1.00  0.00     0.243 C 
ATOM     54  O   UNL     1      -7.349  12.006   7.020  1.00  0.00    -0.273 OA
ATOM     55  H   UNL     1      -6.310  11.104   9.881  1.00  0.00     0.164 HD
BRANCH  53  56
ATOM     56  C   UNL     1      -8.477  10.587   8.652  1.00  0.00     0.182 C 
BRANCH  56  57
ATOM     57  N   UNL     1      -9.260  11.374   9.611  1.00  0.00    -0.344 N 
ATOM     58  C   UNL     1     -10.551  11.769   9.357  1.00  0.00     0.220 C 
ATOM     59  O   UNL     1     -11.112  11.557   8.288  1.00  0.00    -0.275 OA
ATOM     60  H   UNL     1      -8.872  11.483  10.544  1.00  0.00     0.164 HD
BRANCH  58  61
ATOM     61  C   UNL     1     -11.187  12.522  10.511  1.00  0.00     0.100 C 
BRANCH  61  62
ATOM     62  C   UNL     1     -12.211  11.700  11.294  1.00  0.00     0.010 C 
BRANCH  62  63
ATOM     63  C   UNL     1     -11.728  11.247  12.677  1.00  0.00     0.000 C 
BRANCH  63  64
ATOM     64  C   UNL     1     -10.884  12.285  13.417  1.00  0.00    -0.003 C 
ATOM     65  C   UNL     1     -11.217  12.314  14.902  1.00  0.00     0.004 C 
ENDBRANCH  63  64
ENDBRANCH  62  63
ENDBRANCH  61  62
ENDBRANCH  58  61
ENDBRANCH  56  57
BRANCH  56  66
ATOM     66  C   UNL     1      -8.003   9.261   9.246  1.00  0.00     0.157 C 
BRANCH  66  67
ATOM     67  C   UNL     1      -9.152   8.477   9.812  1.00  0.00     0.305 C 
ATOM     68  O   UNL     1      -9.975   7.827   9.185  1.00  0.00    -0.252 OA
BRANCH  67  69
ATOM     69  O   UNL     1      -9.178   8.507  11.158  1.00  0.00    -0.481 OA
ATOM     70  H   UNL     1      -8.333   8.933  11.415  1.00  0.00     0.296 HD
ENDBRANCH  67  69
ENDBRANCH  66  67
ENDBRANCH  56  66
ENDBRANCH  53  56
ENDBRANCH  50  52
ENDBRANCH  47  50
ENDBRANCH  45  46
BRANCH  45  71
ATOM     71  C   UNL     1      -3.142   8.208   7.896  1.00  0.00     0.037 C 
BRANCH  71  72
ATOM     72  C   UNL     1      -2.188   8.008   6.716  1.00  0.00     0.026 C 
BRANCH  72  73
ATOM     73  C   UNL     1      -1.785   6.543   6.563  1.00  0.00     0.146 C 
BRANCH  73  74
ATOM     74  N   UNL     1      -0.485   6.368   7.203  1.00  0.00    -0.254 NA
ATOM     75  C   UNL     1      -0.312   5.329   7.934  1.00  0.00     0.185 C 
ATOM     76  N   UNL     1       0.874   5.140   8.535  1.00  0.00    -0.370 N 
ATOM     77  N   UNL     1      -1.177   4.338   8.212  1.00  0.00    -0.370 N 
ATOM     78  H   UNL     1       1.582   5.845   8.383  1.00  0.00     0.159 HD
ATOM     79  H   UNL     1       1.035   4.434   9.231  1.00  0.00     0.159 HD
ATOM     80  H   UNL     1      -2.108   4.346   7.825  1.00  0.00     0.159 HD
ATOM     81  H   UNL     1      -0.890   3.511   8.708  1.00  0.00     0.159 HD
ENDBRANCH  73  74
ENDBRANCH  72  73
ENDBRANCH  71  72
ENDBRANCH  45  71
ENDBRANCH   3  45
TORSDOF 20
ENDMDL
MODEL 28
REMARK VINA RESULT:    -5.510      3.223      6.283
REMARK INTER + INTRA:         -21.923
REMARK INTER:                 -16.746
REMARK INTRA:                  -5.177
REMARK UNBOUND:                -6.106
REMARK SMILES CCCCCC(=O)N[C@H](CC(=O)O)C(=O)N[C@H]1C(=O)N[C@H](CCCN=C(N)N)C(=O)N[C@@H]2CC[C@H](O)N(C2=O)[C@@H](CC(C)C)C(=O)N(C)[C@@H](Cc2ccccc2)C(=O)N[C@H](C(C)C)C(=O)O[C@@H]1C
REMARK SMILES IDX 30 1 31 2 29 3 32 5 35 6 37 7 34 8 38 9 33 10 39 11 36 12
REMARK SMILES IDX 40 14 41 15 42 16 43 17 44 18 45 19 46 20 47 21 48 22 49 23
REMARK SMILES IDX 50 24 51 25 52 26 56 27 53 28 55 29 54 30 57 31 58 32 59 33
REMARK SMILES IDX 60 35 61 36 62 37 63 38 64 39 65 40 66 41 67 42 68 43 21 45
REMARK SMILES IDX 20 46 18 47 19 48 17 50 16 52 14 53 15 54 9 56 8 57 6 58
REMARK SMILES IDX 7 59 5 61 4 62 3 63 2 64 1 65 10 66 11 67 12 68 13 69 22 71
REMARK SMILES IDX 23 72 24 73 25 74 26 75 27 76 28 77
REMARK H PARENT 31 4 36 13 59 34 20 49 16 55 8 60 13 70 27 78 27 79 28 80
REMARK H PARENT 28 81
REMARK Flexibility Score:  259.900
ROOT
ATOM      1  O   UNL     1      -2.112  11.960   4.820  1.00  0.00    -0.273 OA
ATOM      2  N   UNL     1      -2.651  10.107   6.048  1.00  0.00    -0.343 N 
ATOM      3  C   UNL     1      -2.459  10.780   4.860  1.00  0.00     0.243 C 
ATOM      4  H   UNL     1      -2.922   9.132   6.041  1.00  0.00     0.164 HD
ENDROOT
BRANCH   2   5
ATOM      5  C   UNL     1      -2.563  10.811   7.322  1.00  0.00     0.171 C 
ATOM      6  C   UNL     1      -3.428  10.133  10.005  1.00  0.00     0.214 C 
ATOM      7  N   UNL     1      -4.320  10.862   9.133  1.00  0.00    -0.303 N 
ATOM      8  C   UNL     1      -1.958  10.412   9.730  1.00  0.00     0.057 C 
ATOM      9  C   UNL     1      -3.990  11.173   7.824  1.00  0.00     0.247 C 
ATOM     10  C   UNL     1      -1.634  10.080   8.290  1.00  0.00     0.040 C 
ATOM     11  O   UNL     1      -4.793  11.720   7.057  1.00  0.00    -0.272 OA
BRANCH   6  12
ATOM     12  O   UNL     1      -3.705   8.760   9.854  1.00  0.00    -0.373 OA
ATOM     13  H   UNL     1      -4.655   8.634  10.064  1.00  0.00     0.213 HD
ENDBRANCH   6  12
BRANCH   7  14
ATOM     14  C   UNL     1      -5.678  11.141   9.647  1.00  0.00     0.177 C 
BRANCH  14  15
ATOM     15  C   UNL     1      -6.661   9.956   9.582  1.00  0.00     0.038 C 
BRANCH  15  16
ATOM     16  C   UNL     1      -7.999  10.117   8.828  1.00  0.00    -0.015 C 
ATOM     17  C   UNL     1      -8.864   8.855   8.897  1.00  0.00     0.007 C 
ATOM     18  C   UNL     1      -7.728  10.434   7.352  1.00  0.00     0.007 C 
ENDBRANCH  15  16
ENDBRANCH  14  15
BRANCH  14  19
ATOM     19  C   UNL     1      -5.616  12.207  10.795  1.00  0.00     0.245 C 
ATOM     20  O   UNL     1      -4.936  11.916  11.792  1.00  0.00    -0.272 OA
BRANCH  19  21
ATOM     21  N   UNL     1      -6.355  13.377  10.801  1.00  0.00    -0.332 N 
ATOM     22  C   UNL     1      -6.078  14.553   9.995  1.00  0.00     0.147 C 
BRANCH  21  23
ATOM     23  C   UNL     1      -7.528  13.454  11.715  1.00  0.00     0.178 C 
BRANCH  23  24
ATOM     24  C   UNL     1      -8.146  12.092  12.089  1.00  0.00     0.070 C 
BRANCH  24  25
ATOM     25  C   UNL     1      -9.486  11.752  11.479  1.00  0.00    -0.045 A 
ATOM     26  C   UNL     1     -10.187  10.608  11.880  1.00  0.00     0.004 A 
ATOM     27  C   UNL     1     -10.045  12.581  10.495  1.00  0.00     0.004 A 
ATOM     28  C   UNL     1     -11.417  10.292  11.298  1.00  0.00     0.000 A 
ATOM     29  C   UNL     1     -11.275  12.265   9.916  1.00  0.00     0.000 A 
ATOM     30  C   UNL     1     -11.959  11.118  10.316  1.00  0.00     0.000 A 
ENDBRANCH  24  25
ENDBRANCH  23  24
BRANCH  23  31
ATOM     31  C   UNL     1      -7.304  14.417  12.905  1.00  0.00     0.243 C 
ATOM     32  O   UNL     1      -7.721  15.572  12.943  1.00  0.00    -0.273 OA
ATOM     33  N   UNL     1      -6.427  13.925  13.857  1.00  0.00    -0.341 N 
ATOM     34  H   UNL     1      -6.108  12.957  13.769  1.00  0.00     0.164 HD
BRANCH  33  35
ATOM     35  C   UNL     1      -5.975  14.710  15.009  1.00  0.00     0.194 C 
BRANCH  35  36
ATOM     36  C   UNL     1      -4.518  14.401  15.456  1.00  0.00     0.017 C 
ATOM     37  C   UNL     1      -3.544  15.492  14.978  1.00  0.00     0.010 C 
ATOM     38  C   UNL     1      -3.997  13.058  14.931  1.00  0.00     0.010 C 
ENDBRANCH  35  36
BRANCH  35  39
ATOM     39  C   UNL     1      -6.972  14.652  16.200  1.00  0.00     0.329 C 
ATOM     40  O   UNL     1      -7.856  13.811  16.314  1.00  0.00    -0.250 OA
BRANCH  39  41
ATOM     41  O   UNL     1      -6.698  15.593  17.153  1.00  0.00    -0.458 OA
BRANCH  41  42
ATOM     42  C   UNL     1      -7.809  16.420  17.576  1.00  0.00     0.205 CG0
ATOM     43  C   UNL     1      -8.152  17.349  16.413  1.00  0.00     0.056 C 
ATOM     44  G   UNL     1      -7.393  17.192  18.844  1.00  0.00     0.000 G0
ENDBRANCH  41  42
ENDBRANCH  39  41
ENDBRANCH  35  39
ENDBRANCH  33  35
ENDBRANCH  23  31
ENDBRANCH  21  23
ENDBRANCH  19  21
ENDBRANCH  14  19
ENDBRANCH   7  14
ENDBRANCH   2   5
BRANCH   3  45
ATOM     45  C   UNL     1      -2.688   9.949   3.590  1.00  0.00     0.171 C 
BRANCH  45  46
ATOM     46  N   UNL     1      -1.487  10.123   2.784  1.00  0.00    -0.342 N 
ATOM     47  C   UNL     1      -0.425   9.256   2.848  1.00  0.00     0.247 C 
ATOM     48  O   UNL     1      -0.438   8.233   3.532  1.00  0.00    -0.273 OA
ATOM     49  H   UNL     1      -1.458  10.928   2.160  1.00  0.00     0.164 HD
BRANCH  47  50
ATOM     50  C   UNL     1       0.801   9.668   2.021  1.00  0.00     0.212 CG0
ATOM     51  G   UNL     1       1.701   8.426   1.869  1.00  0.00     0.000 G0
BRANCH  50  52
ATOM     52  N   UNL     1       0.269  10.154   0.750  1.00  0.00    -0.339 N 
ATOM     53  C   UNL     1       1.047  10.377  -0.359  1.00  0.00     0.243 C 
ATOM     54  O   UNL     1       2.267  10.235  -0.352  1.00  0.00    -0.273 OA
ATOM     55  H   UNL     1      -0.719  10.396   0.713  1.00  0.00     0.164 HD
BRANCH  53  56
ATOM     56  C   UNL     1       0.278  10.971  -1.557  1.00  0.00     0.182 C 
BRANCH  56  57
ATOM     57  N   UNL     1      -0.975  11.596  -1.120  1.00  0.00    -0.344 N 
ATOM     58  C   UNL     1      -1.353  12.852  -1.528  1.00  0.00     0.220 C 
ATOM     59  O   UNL     1      -0.639  13.566  -2.224  1.00  0.00    -0.275 OA
ATOM     60  H   UNL     1      -1.638  11.002  -0.629  1.00  0.00     0.164 HD
BRANCH  58  61
ATOM     61  C   UNL     1      -2.712  13.272  -1.000  1.00  0.00     0.100 C 
BRANCH  61  62
ATOM     62  C   UNL     1      -2.817  14.765  -0.687  1.00  0.00     0.010 C 
BRANCH  62  63
ATOM     63  C   UNL     1      -3.730  15.544  -1.642  1.00  0.00     0.000 C 
BRANCH  63  64
ATOM     64  C   UNL     1      -5.151  14.991  -1.741  1.00  0.00    -0.003 C 
ATOM     65  C   UNL     1      -5.483  14.564  -3.163  1.00  0.00     0.004 C 
ENDBRANCH  63  64
ENDBRANCH  62  63
ENDBRANCH  61  62
ENDBRANCH  58  61
ENDBRANCH  56  57
BRANCH  56  66
ATOM     66  C   UNL     1       0.052   9.928  -2.650  1.00  0.00     0.157 C 
BRANCH  66  67
ATOM     67  C   UNL     1       0.669  10.360  -3.949  1.00  0.00     0.305 C 
ATOM     68  O   UNL     1       0.079  10.683  -4.969  1.00  0.00    -0.252 OA
BRANCH  67  69
ATOM     69  O   UNL     1       2.013  10.415  -3.884  1.00  0.00    -0.481 OA
ATOM     70  H   UNL     1       2.258   9.742  -3.215  1.00  0.00     0.296 HD
ENDBRANCH  67  69
ENDBRANCH  66  67
ENDBRANCH  56  66
ENDBRANCH  53  56
ENDBRANCH  50  52
ENDBRANCH  47  50
ENDBRANCH  45  46
BRANCH  45  71
ATOM     71  C   UNL     1      -3.940  10.435   2.852  1.00  0.00     0.037 C 
BRANCH  71  72
ATOM     72  C   UNL     1      -5.185  10.393   3.741  1.00  0.00     0.026 C 
BRANCH  72  73
ATOM     73  C   UNL     1      -6.347  11.162   3.116  1.00  0.00     0.146 C 
BRANCH  73  74
ATOM     74  N   UNL     1      -7.015  11.905   4.180  1.00  0.00    -0.254 NA
ATOM     75  C   UNL     1      -8.184  12.373   3.941  1.00  0.00     0.185 C 
ATOM     76  N   UNL     1      -8.825  13.060   4.900  1.00  0.00    -0.370 N 
ATOM     77  N   UNL     1      -8.917  12.283   2.817  1.00  0.00    -0.370 N 
ATOM     78  H   UNL     1      -8.340  13.181   5.778  1.00  0.00     0.159 HD
ATOM     79  H   UNL     1      -9.672  13.576   4.740  1.00  0.00     0.159 HD
ATOM     80  H   UNL     1      -8.563  11.790   2.011  1.00  0.00     0.159 HD
ATOM     81  H   UNL     1      -9.874  12.593   2.784  1.00  0.00     0.159 HD
ENDBRANCH  73  74
ENDBRANCH  72  73
ENDBRANCH  71  72
ENDBRANCH  45  71
ENDBRANCH   3  45
TORSDOF 20
ENDMDL
MODEL 29
REMARK VINA RESULT:    -5.497      7.987     11.078
REMARK INTER + INTRA:         -21.886
REMARK INTER:                 -13.721
REMARK INTRA:                  -8.165
REMARK UNBOUND:                -6.106
REMARK SMILES CCCCCC(=O)N[C@H](CC(=O)O)C(=O)N[C@H]1C(=O)N[C@H](CCCN=C(N)N)C(=O)N[C@@H]2CC[C@H](O)N(C2=O)[C@@H](CC(C)C)C(=O)N(C)[C@@H](Cc2ccccc2)C(=O)N[C@H](C(C)C)C(=O)O[C@@H]1C
REMARK SMILES IDX 30 1 31 2 29 3 32 5 35 6 37 7 34 8 38 9 33 10 39 11 36 12
REMARK SMILES IDX 40 14 41 15 42 16 43 17 44 18 45 19 46 20 47 21 48 22 49 23
REMARK SMILES IDX 50 24 51 25 52 26 56 27 53 28 55 29 54 30 57 31 58 32 59 33
REMARK SMILES IDX 60 35 61 36 62 37 63 38 64 39 65 40 66 41 67 42 68 43 21 45
REMARK SMILES IDX 20 46 18 47 19 48 17 50 16 52 14 53 15 54 9 56 8 57 6 58
REMARK SMILES IDX 7 59 5 61 4 62 3 63 2 64 1 65 10 66 11 67 12 68 13 69 22 71
REMARK SMILES IDX 23 72 24 73 25 74 26 75 27 76 28 77
REMARK H PARENT 31 4 36 13 59 34 20 49 16 55 8 60 13 70 27 78 27 79 28 80
REMARK H PARENT 28 81
REMARK Flexibility Score:  259.900
ROOT
ATOM      1  O   UNL     1       5.845   9.252   5.360  1.00  0.00    -0.273 OA
ATOM      2  N   UNL     1       5.318   7.138   6.055  1.00  0.00    -0.343 N 
ATOM      3  C   UNL     1       5.582   8.081   5.085  1.00  0.00     0.243 C 
ATOM      4  H   UNL     1       5.120   6.180   5.792  1.00  0.00     0.164 HD
ENDROOT
BRANCH   2   5
ATOM      5  C   UNL     1       5.223   7.523   7.458  1.00  0.00     0.171 C 
ATOM      6  C   UNL     1       5.020   5.985   9.908  1.00  0.00     0.214 C 
ATOM      7  N   UNL     1       3.815   6.404   9.230  1.00  0.00    -0.303 N 
ATOM      8  C   UNL     1       6.186   6.940   9.707  1.00  0.00     0.057 C 
ATOM      9  C   UNL     1       3.841   7.096   8.030  1.00  0.00     0.247 C 
ATOM     10  C   UNL     1       6.471   7.097   8.230  1.00  0.00     0.040 C 
ATOM     11  O   UNL     1       2.805   7.375   7.411  1.00  0.00    -0.272 OA
BRANCH   6  12
ATOM     12  O   UNL     1       5.351   4.698   9.441  1.00  0.00    -0.373 OA
ATOM     13  H   UNL     1       6.235   4.764   9.020  1.00  0.00     0.213 HD
ENDBRANCH   6  12
BRANCH   7  14
ATOM     14  C   UNL     1       2.531   5.934   9.793  1.00  0.00     0.177 C 
BRANCH  14  15
ATOM     15  C   UNL     1       2.446   4.419  10.058  1.00  0.00     0.038 C 
BRANCH  15  16
ATOM     16  C   UNL     1       1.251   3.614   9.500  1.00  0.00    -0.015 C 
ATOM     17  C   UNL     1       0.861   4.053   8.085  1.00  0.00     0.007 C 
ATOM     18  C   UNL     1       0.032   3.797  10.413  1.00  0.00     0.007 C 
ENDBRANCH  15  16
ENDBRANCH  14  15
BRANCH  14  19
ATOM     19  C   UNL     1       1.891   7.049  10.689  1.00  0.00     0.245 C 
ATOM     20  O   UNL     1       2.632   7.585  11.530  1.00  0.00    -0.272 OA
BRANCH  19  21
ATOM     21  N   UNL     1       0.547   7.379  10.668  1.00  0.00    -0.332 N 
ATOM     22  C   UNL     1      -0.338   7.380  11.820  1.00  0.00     0.147 C 
BRANCH  21  23
ATOM     23  C   UNL     1      -0.057   7.754   9.360  1.00  0.00     0.178 C 
BRANCH  23  24
ATOM     24  C   UNL     1      -1.579   7.521   9.262  1.00  0.00     0.070 C 
BRANCH  24  25
ATOM     25  C   UNL     1      -2.047   6.409   8.352  1.00  0.00    -0.045 A 
ATOM     26  C   UNL     1      -1.737   6.420   6.986  1.00  0.00     0.004 A 
ATOM     27  C   UNL     1      -2.806   5.347   8.866  1.00  0.00     0.004 A 
ATOM     28  C   UNL     1      -2.189   5.398   6.149  1.00  0.00     0.000 A 
ATOM     29  C   UNL     1      -3.256   4.325   8.029  1.00  0.00     0.000 A 
ATOM     30  C   UNL     1      -2.949   4.353   6.670  1.00  0.00     0.000 A 
ENDBRANCH  24  25
ENDBRANCH  23  24
BRANCH  23  31
ATOM     31  C   UNL     1       0.426   9.131   8.845  1.00  0.00     0.243 C 
ATOM     32  O   UNL     1       0.556  10.123   9.557  1.00  0.00    -0.273 OA
ATOM     33  N   UNL     1       0.524   9.202   7.466  1.00  0.00    -0.341 N 
ATOM     34  H   UNL     1       0.399   8.342   6.926  1.00  0.00     0.164 HD
BRANCH  33  35
ATOM     35  C   UNL     1       0.848  10.439   6.751  1.00  0.00     0.194 C 
BRANCH  35  36
ATOM     36  C   UNL     1      -0.394  11.210   6.220  1.00  0.00     0.017 C 
ATOM     37  C   UNL     1      -0.842  12.299   7.211  1.00  0.00     0.010 C 
ATOM     38  C   UNL     1      -1.602  10.302   5.959  1.00  0.00     0.010 C 
ENDBRANCH  35  36
BRANCH  35  39
ATOM     39  C   UNL     1       1.916  10.227   5.642  1.00  0.00     0.329 C 
ATOM     40  O   UNL     1       3.093  10.548   5.752  1.00  0.00    -0.250 OA
BRANCH  39  41
ATOM     41  O   UNL     1       1.415   9.559   4.558  1.00  0.00    -0.458 OA
BRANCH  41  42
ATOM     42  C   UNL     1       1.659  10.162   3.265  1.00  0.00     0.205 CG0
ATOM     43  C   UNL     1       0.319  10.676   2.743  1.00  0.00     0.056 C 
ATOM     44  G   UNL     1       2.285   9.101   2.338  1.00  0.00     0.000 G0
ENDBRANCH  41  42
ENDBRANCH  39  41
ENDBRANCH  35  39
ENDBRANCH  33  35
ENDBRANCH  23  31
ENDBRANCH  21  23
ENDBRANCH  19  21
ENDBRANCH  14  19
ENDBRANCH   7  14
ENDBRANCH   2   5
BRANCH   3  45
ATOM     45  C   UNL     1       5.546   7.565   3.640  1.00  0.00     0.171 C 
BRANCH  45  46
ATOM     46  N   UNL     1       4.186   7.799   3.172  1.00  0.00    -0.342 N 
ATOM     47  C   UNL     1       3.792   8.991   2.618  1.00  0.00     0.247 C 
ATOM     48  O   UNL     1       4.572   9.920   2.409  1.00  0.00    -0.273 OA
ATOM     49  H   UNL     1       3.521   7.035   3.275  1.00  0.00     0.164 HD
BRANCH  47  50
ATOM     50  C   UNL     1       2.294   9.096   2.299  1.00  0.00     0.212 CG0
ATOM     51  G   UNL     1       1.689  10.154   3.243  1.00  0.00     0.000 G0
BRANCH  50  52
ATOM     52  N   UNL     1       2.221   9.471   0.890  1.00  0.00    -0.339 N 
ATOM     53  C   UNL     1       1.670   8.666  -0.078  1.00  0.00     0.243 C 
ATOM     54  O   UNL     1       1.242   7.541   0.161  1.00  0.00    -0.273 OA
ATOM     55  H   UNL     1       2.660  10.345   0.609  1.00  0.00     0.164 HD
BRANCH  53  56
ATOM     56  C   UNL     1       1.785   9.236  -1.507  1.00  0.00     0.182 C 
BRANCH  56  57
ATOM     57  N   UNL     1       1.702  10.700  -1.498  1.00  0.00    -0.344 N 
ATOM     58  C   UNL     1       0.599  11.372  -1.031  1.00  0.00     0.220 C 
ATOM     59  O   UNL     1      -0.418  10.799  -0.657  1.00  0.00    -0.275 OA
ATOM     60  H   UNL     1       2.557  11.210  -1.702  1.00  0.00     0.164 HD
BRANCH  58  61
ATOM     61  C   UNL     1       0.757  12.881  -1.062  1.00  0.00     0.100 C 
BRANCH  61  62
ATOM     62  C   UNL     1       1.408  13.459   0.195  1.00  0.00     0.010 C 
BRANCH  62  63
ATOM     63  C   UNL     1       2.851  13.938  -0.010  1.00  0.00     0.000 C 
BRANCH  63  64
ATOM     64  C   UNL     1       3.886  13.184   0.823  1.00  0.00    -0.003 C 
ATOM     65  C   UNL     1       4.636  12.160  -0.017  1.00  0.00     0.004 C 
ENDBRANCH  63  64
ENDBRANCH  62  63
ENDBRANCH  61  62
ENDBRANCH  58  61
ENDBRANCH  56  57
BRANCH  56  66
ATOM     66  C   UNL     1       0.756   8.606  -2.445  1.00  0.00     0.157 C 
BRANCH  66  67
ATOM     67  C   UNL     1       1.027   8.975  -3.875  1.00  0.00     0.305 C 
ATOM     68  O   UNL     1       1.986   9.599  -4.302  1.00  0.00    -0.252 OA
BRANCH  67  69
ATOM     69  O   UNL     1       0.091   8.492  -4.714  1.00  0.00    -0.481 OA
ATOM     70  H   UNL     1       0.062   9.135  -5.454  1.00  0.00     0.296 HD
ENDBRANCH  67  69
ENDBRANCH  66  67
ENDBRANCH  56  66
ENDBRANCH  53  56
ENDBRANCH  50  52
ENDBRANCH  47  50
ENDBRANCH  45  46
BRANCH  45  71
ATOM     71  C   UNL     1       5.912   6.078   3.594  1.00  0.00     0.037 C 
BRANCH  71  72
ATOM     72  C   UNL     1       4.834   5.240   2.901  1.00  0.00     0.026 C 
BRANCH  72  73
ATOM     73  C   UNL     1       4.062   4.382   3.902  1.00  0.00     0.146 C 
BRANCH  73  74
ATOM     74  N   UNL     1       3.289   5.279   4.756  1.00  0.00    -0.254 NA
ATOM     75  C   UNL     1       2.074   5.522   4.425  1.00  0.00     0.185 C 
ATOM     76  N   UNL     1       1.337   6.341   5.191  1.00  0.00    -0.370 N 
ATOM     77  N   UNL     1       1.377   5.061   3.372  1.00  0.00    -0.370 N 
ATOM     78  H   UNL     1       1.789   6.739   6.002  1.00  0.00     0.159 HD
ATOM     79  H   UNL     1       0.434   6.690   4.920  1.00  0.00     0.159 HD
ATOM     80  H   UNL     1       1.803   4.430   2.710  1.00  0.00     0.159 HD
ATOM     81  H   UNL     1       0.389   5.230   3.277  1.00  0.00     0.159 HD
ENDBRANCH  73  74
ENDBRANCH  72  73
ENDBRANCH  71  72
ENDBRANCH  45  71
ENDBRANCH   3  45
TORSDOF 20
ENDMDL
MODEL 30
REMARK VINA RESULT:    -5.486      4.371     14.482
REMARK INTER + INTRA:         -21.854
REMARK INTER:                 -16.440
REMARK INTRA:                  -5.414
REMARK UNBOUND:                -6.106
REMARK SMILES CCCCCC(=O)N[C@H](CC(=O)O)C(=O)N[C@H]1C(=O)N[C@H](CCCN=C(N)N)C(=O)N[C@@H]2CC[C@H](O)N(C2=O)[C@@H](CC(C)C)C(=O)N(C)[C@@H](Cc2ccccc2)C(=O)N[C@H](C(C)C)C(=O)O[C@@H]1C
REMARK SMILES IDX 30 1 31 2 29 3 32 5 35 6 37 7 34 8 38 9 33 10 39 11 36 12
REMARK SMILES IDX 40 14 41 15 42 16 43 17 44 18 45 19 46 20 47 21 48 22 49 23
REMARK SMILES IDX 50 24 51 25 52 26 56 27 53 28 55 29 54 30 57 31 58 32 59 33
REMARK SMILES IDX 60 35 61 36 62 37 63 38 64 39 65 40 66 41 67 42 68 43 21 45
REMARK SMILES IDX 20 46 18 47 19 48 17 50 16 52 14 53 15 54 9 56 8 57 6 58
REMARK SMILES IDX 7 59 5 61 4 62 3 63 2 64 1 65 10 66 11 67 12 68 13 69 22 71
REMARK SMILES IDX 23 72 24 73 25 74 26 75 27 76 28 77
REMARK H PARENT 31 4 36 13 59 34 20 49 16 55 8 60 13 70 27 78 27 79 28 80
REMARK H PARENT 28 81
REMARK Flexibility Score:  259.900
ROOT
ATOM      1  O   UNL     1      -5.603   9.783   9.497  1.00  0.00    -0.273 OA
ATOM      2  N   UNL     1      -4.637  11.233   8.016  1.00  0.00    -0.343 N 
ATOM      3  C   UNL     1      -5.724  10.655   8.636  1.00  0.00     0.243 C 
ATOM      4  H   UNL     1      -4.773  11.959   7.323  1.00  0.00     0.164 HD
ENDROOT
BRANCH   2   5
ATOM      5  C   UNL     1      -3.287  10.743   8.274  1.00  0.00     0.171 C 
ATOM      6  C   UNL     1      -0.662  11.757   7.576  1.00  0.00     0.214 C 
ATOM      7  N   UNL     1      -1.328  10.834   6.686  1.00  0.00    -0.303 N 
ATOM      8  C   UNL     1      -1.033  11.556   9.037  1.00  0.00     0.057 C 
ATOM      9  C   UNL     1      -2.603  10.352   6.934  1.00  0.00     0.247 C 
ATOM     10  C   UNL     1      -2.531  11.687   9.208  1.00  0.00     0.040 C 
ATOM     11  O   UNL     1      -3.200   9.631   6.124  1.00  0.00    -0.272 OA
BRANCH   6  12
ATOM     12  O   UNL     1      -0.985  13.064   7.161  1.00  0.00    -0.373 OA
ATOM     13  H   UNL     1      -1.953  13.085   7.004  1.00  0.00     0.213 HD
ENDBRANCH   6  12
BRANCH   7  14
ATOM     14  C   UNL     1      -0.651  10.531   5.407  1.00  0.00     0.177 C 
BRANCH  14  15
ATOM     15  C   UNL     1      -1.119  11.370   4.202  1.00  0.00     0.038 C 
BRANCH  15  16
ATOM     16  C   UNL     1      -0.187  11.534   2.981  1.00  0.00    -0.015 C 
ATOM     17  C   UNL     1      -0.619  12.683   2.066  1.00  0.00     0.007 C 
ATOM     18  C   UNL     1      -0.179  10.240   2.156  1.00  0.00     0.007 C 
ENDBRANCH  15  16
ENDBRANCH  14  15
BRANCH  14  19
ATOM     19  C   UNL     1       0.822  10.063   5.669  1.00  0.00     0.245 C 
ATOM     20  O   UNL     1       1.675  10.955   5.811  1.00  0.00    -0.272 OA
BRANCH  19  21
ATOM     21  N   UNL     1       1.228   8.741   5.637  1.00  0.00    -0.332 N 
ATOM     22  C   UNL     1       0.417   7.620   5.195  1.00  0.00     0.147 C 
BRANCH  21  23
ATOM     23  C   UNL     1       2.606   8.425   6.104  1.00  0.00     0.178 C 
BRANCH  23  24
ATOM     24  C   UNL     1       2.683   7.356   7.214  1.00  0.00     0.070 C 
BRANCH  24  25
ATOM     25  C   UNL     1       2.346   7.798   8.619  1.00  0.00    -0.045 A 
ATOM     26  C   UNL     1       2.264   9.158   8.944  1.00  0.00     0.004 A 
ATOM     27  C   UNL     1       2.114   6.846   9.624  1.00  0.00     0.004 A 
ATOM     28  C   UNL     1       1.969   9.558  10.249  1.00  0.00     0.000 A 
ATOM     29  C   UNL     1       1.818   7.248  10.927  1.00  0.00     0.000 A 
ATOM     30  C   UNL     1       1.749   8.604  11.239  1.00  0.00     0.000 A 
ENDBRANCH  24  25
ENDBRANCH  23  24
BRANCH  23  31
ATOM     31  C   UNL     1       3.608   8.229   4.941  1.00  0.00     0.243 C 
ATOM     32  O   UNL     1       3.961   9.126   4.180  1.00  0.00    -0.273 OA
ATOM     33  N   UNL     1       3.936   6.903   4.711  1.00  0.00    -0.341 N 
ATOM     34  H   UNL     1       3.607   6.199   5.376  1.00  0.00     0.164 HD
BRANCH  33  35
ATOM     35  C   UNL     1       4.772   6.471   3.588  1.00  0.00     0.194 C 
BRANCH  35  36
ATOM     36  C   UNL     1       4.108   5.402   2.676  1.00  0.00     0.017 C 
ATOM     37  C   UNL     1       3.142   6.050   1.668  1.00  0.00     0.010 C 
ATOM     38  C   UNL     1       3.315   4.348   3.458  1.00  0.00     0.010 C 
ENDBRANCH  35  36
BRANCH  35  39
ATOM     39  C   UNL     1       6.199   6.046   4.035  1.00  0.00     0.329 C 
ATOM     40  O   UNL     1       6.528   5.866   5.202  1.00  0.00    -0.250 OA
BRANCH  39  41
ATOM     41  O   UNL     1       7.028   5.809   2.973  1.00  0.00    -0.458 OA
BRANCH  41  42
ATOM     42  C   UNL     1       8.058   4.812   3.174  1.00  0.00     0.205 CG0
ATOM     43  C   UNL     1       9.382   5.432   2.730  1.00  0.00     0.056 C 
ATOM     44  G   UNL     1       7.693   3.555   2.359  1.00  0.00     0.000 G0
ENDBRANCH  41  42
ENDBRANCH  39  41
ENDBRANCH  35  39
ENDBRANCH  33  35
ENDBRANCH  23  31
ENDBRANCH  21  23
ENDBRANCH  19  21
ENDBRANCH  14  19
ENDBRANCH   7  14
ENDBRANCH   2   5
BRANCH   3  45
ATOM     45  C   UNL     1      -7.093  11.189   8.194  1.00  0.00     0.171 C 
BRANCH  45  46
ATOM     46  N   UNL     1      -7.705  11.743   9.395  1.00  0.00    -0.342 N 
ATOM     47  C   UNL     1      -7.237  12.881  10.002  1.00  0.00     0.247 C 
ATOM     48  O   UNL     1      -6.316  13.555   9.539  1.00  0.00    -0.273 OA
ATOM     49  H   UNL     1      -8.507  11.247   9.780  1.00  0.00     0.164 HD
BRANCH  47  50
ATOM     50  C   UNL     1      -7.928  13.243  11.324  1.00  0.00     0.212 CG0
ATOM     51  G   UNL     1      -8.777  14.506  11.076  1.00  0.00     0.000 G0
BRANCH  50  52
ATOM     52  N   UNL     1      -8.725  12.073  11.681  1.00  0.00    -0.339 N 
ATOM     53  C   UNL     1     -10.010  11.870  11.240  1.00  0.00     0.243 C 
ATOM     54  O   UNL     1     -10.610  12.689  10.549  1.00  0.00    -0.273 OA
ATOM     55  H   UNL     1      -8.323  11.411  12.342  1.00  0.00     0.164 HD
BRANCH  53  56
ATOM     56  C   UNL     1     -10.680  10.607  11.818  1.00  0.00     0.182 C 
BRANCH  56  57
ATOM     57  N   UNL     1     -10.287   9.411  11.065  1.00  0.00    -0.344 N 
ATOM     58  C   UNL     1      -9.024   8.877  11.139  1.00  0.00     0.220 C 
ATOM     59  O   UNL     1      -8.118   9.401  11.779  1.00  0.00    -0.275 OA
ATOM     60  H   UNL     1     -11.031   8.891  10.607  1.00  0.00     0.164 HD
BRANCH  58  61
ATOM     61  C   UNL     1      -8.859   7.608  10.324  1.00  0.00     0.100 C 
BRANCH  61  62
ATOM     62  C   UNL     1      -8.115   6.494  11.061  1.00  0.00     0.010 C 
BRANCH  62  63
ATOM     63  C   UNL     1      -6.983   5.851  10.248  1.00  0.00     0.000 C 
BRANCH  63  64
ATOM     64  C   UNL     1      -6.921   4.329  10.357  1.00  0.00    -0.003 C 
ATOM     65  C   UNL     1      -7.470   3.844  11.691  1.00  0.00     0.004 C 
ENDBRANCH  63  64
ENDBRANCH  62  63
ENDBRANCH  61  62
ENDBRANCH  58  61
ENDBRANCH  56  57
BRANCH  56  66
ATOM     66  C   UNL     1     -12.197  10.765  11.898  1.00  0.00     0.157 C 
BRANCH  66  67
ATOM     67  C   UNL     1     -12.877  10.083  10.746  1.00  0.00     0.305 C 
ATOM     68  O   UNL     1     -13.478   9.020  10.775  1.00  0.00    -0.252 OA
BRANCH  67  69
ATOM     69  O   UNL     1     -12.811  10.807   9.612  1.00  0.00    -0.481 OA
ATOM     70  H   UNL     1     -11.966  10.540   9.193  1.00  0.00     0.296 HD
ENDBRANCH  67  69
ENDBRANCH  66  67
ENDBRANCH  56  66
ENDBRANCH  53  56
ENDBRANCH  50  52
ENDBRANCH  47  50
ENDBRANCH  45  46
BRANCH  45  71
ATOM     71  C   UNL     1      -7.939  10.059   7.598  1.00  0.00     0.037 C 
BRANCH  71  72
ATOM     72  C   UNL     1      -8.838  10.552   6.461  1.00  0.00     0.026 C 
BRANCH  72  73
ATOM     73  C   UNL     1      -8.077  11.463   5.499  1.00  0.00     0.146 C 
BRANCH  73  74
ATOM     74  N   UNL     1      -7.830  10.711   4.273  1.00  0.00    -0.254 NA
ATOM     75  C   UNL     1      -6.612  10.463   3.958  1.00  0.00     0.185 C 
ATOM     76  N   UNL     1      -6.352   9.772   2.836  1.00  0.00    -0.370 N 
ATOM     77  N   UNL     1      -5.485  10.803   4.607  1.00  0.00    -0.370 N 
ATOM     78  H   UNL     1      -7.146   9.483   2.282  1.00  0.00     0.159 HD
ATOM     79  H   UNL     1      -5.430   9.667   2.452  1.00  0.00     0.159 HD
ATOM     80  H   UNL     1      -5.527  11.323   5.471  1.00  0.00     0.159 HD
ATOM     81  H   UNL     1      -4.585  10.453   4.323  1.00  0.00     0.159 HD
ENDBRANCH  73  74
ENDBRANCH  72  73
ENDBRANCH  71  72
ENDBRANCH  45  71
ENDBRANCH   3  45
TORSDOF 20
ENDMDL
MODEL 31
REMARK VINA RESULT:    -5.473      9.545     13.150
REMARK INTER + INTRA:         -21.817
REMARK INTER:                 -15.109
REMARK INTRA:                  -6.709
REMARK UNBOUND:                -6.106
REMARK SMILES CCCCCC(=O)N[C@H](CC(=O)O)C(=O)N[C@H]1C(=O)N[C@H](CCCN=C(N)N)C(=O)N[C@@H]2CC[C@H](O)N(C2=O)[C@@H](CC(C)C)C(=O)N(C)[C@@H](Cc2ccccc2)C(=O)N[C@H](C(C)C)C(=O)O[C@@H]1C
REMARK SMILES IDX 30 1 31 2 29 3 32 5 35 6 37 7 34 8 38 9 33 10 39 11 36 12
REMARK SMILES IDX 40 14 41 15 42 16 43 17 44 18 45 19 46 20 47 21 48 22 49 23
REMARK SMILES IDX 50 24 51 25 52 26 56 27 53 28 55 29 54 30 57 31 58 32 59 33
REMARK SMILES IDX 60 35 61 36 62 37 63 38 64 39 65 40 66 41 67 42 68 43 21 45
REMARK SMILES IDX 20 46 18 47 19 48 17 50 16 52 14 53 15 54 9 56 8 57 6 58
REMARK SMILES IDX 7 59 5 61 4 62 3 63 2 64 1 65 10 66 11 67 12 68 13 69 22 71
REMARK SMILES IDX 23 72 24 73 25 74 26 75 27 76 28 77
REMARK H PARENT 31 4 36 13 59 34 20 49 16 55 8 60 13 70 27 78 27 79 28 80
REMARK H PARENT 28 81
REMARK Flexibility Score:  259.900
ROOT
ATOM      1  O   UNL     1      -3.855   0.687  10.705  1.00  0.00    -0.273 OA
ATOM      2  N   UNL     1      -1.983   0.686  12.019  1.00  0.00    -0.343 N 
ATOM      3  C   UNL     1      -2.901   0.077  11.190  1.00  0.00     0.243 C 
ATOM      4  H   UNL     1      -1.203   0.157  12.388  1.00  0.00     0.164 HD
ENDROOT
BRANCH   2   5
ATOM      5  C   UNL     1      -2.175   2.065  12.454  1.00  0.00     0.171 C 
ATOM      6  C   UNL     1      -4.135   4.087  11.765  1.00  0.00     0.214 C 
ATOM      7  N   UNL     1      -2.905   4.005  11.013  1.00  0.00    -0.303 N 
ATOM      8  C   UNL     1      -3.988   3.635  13.210  1.00  0.00     0.057 C 
ATOM      9  C   UNL     1      -1.949   3.032  11.256  1.00  0.00     0.247 C 
ATOM     10  C   UNL     1      -3.469   2.214  13.251  1.00  0.00     0.040 C 
ATOM     11  O   UNL     1      -0.938   2.914  10.551  1.00  0.00    -0.272 OA
BRANCH   6  12
ATOM     12  O   UNL     1      -5.099   3.305  11.100  1.00  0.00    -0.373 OA
ATOM     13  H   UNL     1      -4.803   3.213  10.170  1.00  0.00     0.213 HD
ENDBRANCH   6  12
BRANCH   7  14
ATOM     14  C   UNL     1      -2.762   4.919   9.860  1.00  0.00     0.177 C 
BRANCH  14  15
ATOM     15  C   UNL     1      -3.216   4.342   8.505  1.00  0.00     0.038 C 
BRANCH  15  16
ATOM     16  C   UNL     1      -2.162   4.023   7.421  1.00  0.00    -0.015 C 
ATOM     17  C   UNL     1      -0.838   4.753   7.662  1.00  0.00     0.007 C 
ATOM     18  C   UNL     1      -2.695   4.435   6.043  1.00  0.00     0.007 C 
ENDBRANCH  15  16
ENDBRANCH  14  15
BRANCH  14  19
ATOM     19  C   UNL     1      -2.945   6.407  10.319  1.00  0.00     0.245 C 
ATOM     20  O   UNL     1      -2.215   6.800  11.244  1.00  0.00    -0.272 OA
BRANCH  19  21
ATOM     21  N   UNL     1      -3.931   7.247   9.835  1.00  0.00    -0.332 N 
ATOM     22  C   UNL     1      -5.361   7.018   9.940  1.00  0.00     0.147 C 
BRANCH  21  23
ATOM     23  C   UNL     1      -3.504   8.490   9.135  1.00  0.00     0.178 C 
BRANCH  23  24
ATOM     24  C   UNL     1      -3.238   8.322   7.625  1.00  0.00     0.070 C 
BRANCH  24  25
ATOM     25  C   UNL     1      -2.026   9.024   7.057  1.00  0.00    -0.045 A 
ATOM     26  C   UNL     1      -0.855   8.313   6.767  1.00  0.00     0.004 A 
ATOM     27  C   UNL     1      -2.058  10.406   6.817  1.00  0.00     0.004 A 
ATOM     28  C   UNL     1       0.266   8.973   6.258  1.00  0.00     0.000 A 
ATOM     29  C   UNL     1      -0.937  11.064   6.307  1.00  0.00     0.000 A 
ATOM     30  C   UNL     1       0.225  10.346   6.031  1.00  0.00     0.000 A 
ENDBRANCH  24  25
ENDBRANCH  23  24
BRANCH  23  31
ATOM     31  C   UNL     1      -4.363   9.721   9.511  1.00  0.00     0.243 C 
ATOM     32  O   UNL     1      -4.356  10.250  10.620  1.00  0.00    -0.273 OA
ATOM     33  N   UNL     1      -5.288  10.068   8.541  1.00  0.00    -0.341 N 
ATOM     34  H   UNL     1      -5.249   9.587   7.639  1.00  0.00     0.164 HD
BRANCH  33  35
ATOM     35  C   UNL     1      -6.286  11.125   8.730  1.00  0.00     0.194 C 
BRANCH  35  36
ATOM     36  C   UNL     1      -7.632  10.866   7.996  1.00  0.00     0.017 C 
ATOM     37  C   UNL     1      -8.317   9.591   8.519  1.00  0.00     0.010 C 
ATOM     38  C   UNL     1      -7.473  10.712   6.479  1.00  0.00     0.010 C 
ENDBRANCH  35  36
BRANCH  35  39
ATOM     39  C   UNL     1      -5.721  12.540   8.425  1.00  0.00     0.329 C 
ATOM     40  O   UNL     1      -4.763  12.754   7.692  1.00  0.00    -0.250 OA
BRANCH  39  41
ATOM     41  O   UNL     1      -6.469  13.532   8.997  1.00  0.00    -0.458 OA
BRANCH  41  42
ATOM     42  C   UNL     1      -5.785  14.385   9.945  1.00  0.00     0.205 CG0
ATOM     43  C   UNL     1      -6.248  13.975  11.342  1.00  0.00     0.056 C 
ATOM     44  G   UNL     1      -6.123  15.854   9.620  1.00  0.00     0.000 G0
ENDBRANCH  41  42
ENDBRANCH  39  41
ENDBRANCH  35  39
ENDBRANCH  33  35
ENDBRANCH  23  31
ENDBRANCH  21  23
ENDBRANCH  19  21
ENDBRANCH  14  19
ENDBRANCH   7  14
ENDBRANCH   2   5
BRANCH   3  45
ATOM     45  C   UNL     1      -2.641  -1.406  10.898  1.00  0.00     0.171 C 
BRANCH  45  46
ATOM     46  N   UNL     1      -1.348  -1.705  11.499  1.00  0.00    -0.342 N 
ATOM     47  C   UNL     1      -1.153  -2.778  12.331  1.00  0.00     0.247 C 
ATOM     48  O   UNL     1      -2.032  -3.606  12.571  1.00  0.00    -0.273 OA
ATOM     49  H   UNL     1      -0.577  -1.076  11.280  1.00  0.00     0.164 HD
BRANCH  47  50
ATOM     50  C   UNL     1       0.242  -2.862  12.967  1.00  0.00     0.212 CG0
ATOM     51  G   UNL     1       0.607  -4.354  13.097  1.00  0.00     0.000 G0
BRANCH  50  52
ATOM     52  N   UNL     1       1.126  -2.128  12.067  1.00  0.00    -0.339 N 
ATOM     53  C   UNL     1       2.178  -1.358  12.502  1.00  0.00     0.243 C 
ATOM     54  O   UNL     1       2.424  -1.186  13.693  1.00  0.00    -0.273 OA
ATOM     55  H   UNL     1       0.906  -2.141  11.073  1.00  0.00     0.164 HD
BRANCH  53  56
ATOM     56  C   UNL     1       2.916  -0.609  11.374  1.00  0.00     0.182 C 
BRANCH  56  57
ATOM     57  N   UNL     1       2.817   0.843  11.555  1.00  0.00    -0.344 N 
ATOM     58  C   UNL     1       3.805   1.578  12.164  1.00  0.00     0.220 C 
ATOM     59  O   UNL     1       4.801   1.066  12.663  1.00  0.00    -0.275 OA
ATOM     60  H   UNL     1       2.060   1.317  11.069  1.00  0.00     0.164 HD
BRANCH  58  61
ATOM     61  C   UNL     1       3.517   3.068  12.189  1.00  0.00     0.100 C 
BRANCH  61  62
ATOM     62  C   UNL     1       2.211   3.455  11.495  1.00  0.00     0.010 C 
BRANCH  62  63
ATOM     63  C   UNL     1       2.004   4.968  11.347  1.00  0.00     0.000 C 
BRANCH  63  64
ATOM     64  C   UNL     1       1.494   5.657  12.611  1.00  0.00    -0.003 C 
ATOM     65  C   UNL     1       0.445   4.812  13.320  1.00  0.00     0.004 C 
ENDBRANCH  63  64
ENDBRANCH  62  63
ENDBRANCH  61  62
ENDBRANCH  58  61
ENDBRANCH  56  57
BRANCH  56  66
ATOM     66  C   UNL     1       2.430  -1.052   9.996  1.00  0.00     0.157 C 
BRANCH  66  67
ATOM     67  C   UNL     1       1.465  -0.060   9.413  1.00  0.00     0.305 C 
ATOM     68  O   UNL     1       0.319   0.149   9.780  1.00  0.00    -0.252 OA
BRANCH  67  69
ATOM     69  O   UNL     1       2.014   0.665   8.420  1.00  0.00    -0.481 OA
ATOM     70  H   UNL     1       2.677   1.235   8.864  1.00  0.00     0.296 HD
ENDBRANCH  67  69
ENDBRANCH  66  67
ENDBRANCH  56  66
ENDBRANCH  53  56
ENDBRANCH  50  52
ENDBRANCH  47  50
ENDBRANCH  45  46
BRANCH  45  71
ATOM     71  C   UNL     1      -2.634  -1.659   9.386  1.00  0.00     0.037 C 
BRANCH  71  72
ATOM     72  C   UNL     1      -2.992  -3.107   9.043  1.00  0.00     0.026 C 
BRANCH  72  73
ATOM     73  C   UNL     1      -3.407  -3.251   7.580  1.00  0.00     0.146 C 
BRANCH  73  74
ATOM     74  N   UNL     1      -4.501  -2.317   7.332  1.00  0.00    -0.254 NA
ATOM     75  C   UNL     1      -5.677  -2.801   7.174  1.00  0.00     0.185 C 
ATOM     76  N   UNL     1      -6.705  -1.967   6.945  1.00  0.00    -0.370 N 
ATOM     77  N   UNL     1      -6.073  -4.085   7.201  1.00  0.00    -0.370 N 
ATOM     78  H   UNL     1      -6.492  -0.980   6.901  1.00  0.00     0.159 HD
ATOM     79  H   UNL     1      -7.619  -2.278   6.670  1.00  0.00     0.159 HD
ATOM     80  H   UNL     1      -5.407  -4.825   7.368  1.00  0.00     0.159 HD
ATOM     81  H   UNL     1      -7.047  -4.339   7.179  1.00  0.00     0.159 HD
ENDBRANCH  73  74
ENDBRANCH  72  73
ENDBRANCH  71  72
ENDBRANCH  45  71
ENDBRANCH   3  45
TORSDOF 20
ENDMDL
MODEL 32
REMARK VINA RESULT:    -5.431      6.890     14.755
REMARK INTER + INTRA:         -21.696
REMARK INTER:                 -15.594
REMARK INTRA:                  -6.102
REMARK UNBOUND:                -6.106
REMARK SMILES CCCCCC(=O)N[C@H](CC(=O)O)C(=O)N[C@H]1C(=O)N[C@H](CCCN=C(N)N)C(=O)N[C@@H]2CC[C@H](O)N(C2=O)[C@@H](CC(C)C)C(=O)N(C)[C@@H](Cc2ccccc2)C(=O)N[C@H](C(C)C)C(=O)O[C@@H]1C
REMARK SMILES IDX 30 1 31 2 29 3 32 5 35 6 37 7 34 8 38 9 33 10 39 11 36 12
REMARK SMILES IDX 40 14 41 15 42 16 43 17 44 18 45 19 46 20 47 21 48 22 49 23
REMARK SMILES IDX 50 24 51 25 52 26 56 27 53 28 55 29 54 30 57 31 58 32 59 33
REMARK SMILES IDX 60 35 61 36 62 37 63 38 64 39 65 40 66 41 67 42 68 43 21 45
REMARK SMILES IDX 20 46 18 47 19 48 17 50 16 52 14 53 15 54 9 56 8 57 6 58
REMARK SMILES IDX 7 59 5 61 4 62 3 63 2 64 1 65 10 66 11 67 12 68 13 69 22 71
REMARK SMILES IDX 23 72 24 73 25 74 26 75 27 76 28 77
REMARK H PARENT 31 4 36 13 59 34 20 49 16 55 8 60 13 70 27 78 27 79 28 80
REMARK H PARENT 28 81
REMARK Flexibility Score:  259.900
ROOT
ATOM      1  O   UNL     1      -1.879   6.948  11.443  1.00  0.00    -0.273 OA
ATOM      2  N   UNL     1      -2.133   5.739   9.517  1.00  0.00    -0.343 N 
ATOM      3  C   UNL     1      -2.527   6.140  10.776  1.00  0.00     0.243 C 
ATOM      4  H   UNL     1      -2.698   5.084   8.992  1.00  0.00     0.164 HD
ENDROOT
BRANCH   2   5
ATOM      5  C   UNL     1      -0.853   6.173   8.967  1.00  0.00     0.171 C 
ATOM      6  C   UNL     1       0.977   8.302   9.692  1.00  0.00     0.214 C 
ATOM      7  N   UNL     1      -0.057   8.555   8.716  1.00  0.00    -0.303 N 
ATOM      8  C   UNL     1       1.452   6.858   9.704  1.00  0.00     0.057 C 
ATOM      9  C   UNL     1      -0.995   7.599   8.362  1.00  0.00     0.247 C 
ATOM     10  C   UNL     1       0.281   5.935   9.963  1.00  0.00     0.040 C 
ATOM     11  O   UNL     1      -1.930   7.850   7.590  1.00  0.00    -0.272 OA
BRANCH   6  12
ATOM     12  O   UNL     1       0.473   8.665  10.956  1.00  0.00    -0.373 OA
ATOM     13  H   UNL     1       0.670   7.924  11.568  1.00  0.00     0.213 HD
ENDBRANCH   6  12
BRANCH   7  14
ATOM     14  C   UNL     1      -0.173   9.938   8.205  1.00  0.00     0.177 C 
BRANCH  14  15
ATOM     15  C   UNL     1      -0.868  10.932   9.156  1.00  0.00     0.038 C 
BRANCH  15  16
ATOM     16  C   UNL     1      -1.810  12.009   8.575  1.00  0.00    -0.015 C 
ATOM     17  C   UNL     1      -2.627  11.491   7.388  1.00  0.00     0.007 C 
ATOM     18  C   UNL     1      -0.990  13.216   8.103  1.00  0.00     0.007 C 
ENDBRANCH  15  16
ENDBRANCH  14  15
BRANCH  14  19
ATOM     19  C   UNL     1       1.037  10.275   7.268  1.00  0.00     0.245 C 
ATOM     20  O   UNL     1       2.025  10.808   7.799  1.00  0.00    -0.272 OA
BRANCH  19  21
ATOM     21  N   UNL     1       1.016  10.115   5.893  1.00  0.00    -0.332 N 
ATOM     22  C   UNL     1      -0.159   9.803   5.100  1.00  0.00     0.147 C 
BRANCH  21  23
ATOM     23  C   UNL     1       2.300  10.263   5.156  1.00  0.00     0.178 C 
BRANCH  23  24
ATOM     24  C   UNL     1       3.061   8.944   4.913  1.00  0.00     0.070 C 
BRANCH  24  25
ATOM     25  C   UNL     1       2.244   7.673   4.887  1.00  0.00    -0.045 A 
ATOM     26  C   UNL     1       1.660   7.220   3.697  1.00  0.00     0.004 A 
ATOM     27  C   UNL     1       2.055   6.929   6.061  1.00  0.00     0.004 A 
ATOM     28  C   UNL     1       0.892   6.054   3.684  1.00  0.00     0.000 A 
ATOM     29  C   UNL     1       1.288   5.763   6.047  1.00  0.00     0.000 A 
ATOM     30  C   UNL     1       0.705   5.328   4.858  1.00  0.00     0.000 A 
ENDBRANCH  24  25
ENDBRANCH  23  24
BRANCH  23  31
ATOM     31  C   UNL     1       2.183  11.184   3.918  1.00  0.00     0.243 C 
ATOM     32  O   UNL     1       1.690  12.309   3.943  1.00  0.00    -0.273 OA
ATOM     33  N   UNL     1       2.515  10.558   2.729  1.00  0.00    -0.341 N 
ATOM     34  H   UNL     1       2.916   9.617   2.771  1.00  0.00     0.164 HD
BRANCH  33  35
ATOM     35  C   UNL     1       2.366  11.199   1.419  1.00  0.00     0.194 C 
BRANCH  35  36
ATOM     36  C   UNL     1       1.256  10.573   0.529  1.00  0.00     0.017 C 
ATOM     37  C   UNL     1      -0.144  11.028   0.977  1.00  0.00     0.010 C 
ATOM     38  C   UNL     1       1.265   9.039   0.540  1.00  0.00     0.010 C 
ENDBRANCH  35  36
BRANCH  35  39
ATOM     39  C   UNL     1       3.716  11.327   0.659  1.00  0.00     0.329 C 
ATOM     40  O   UNL     1       4.792  10.942   1.102  1.00  0.00    -0.250 OA
BRANCH  39  41
ATOM     41  O   UNL     1       3.557  11.838  -0.599  1.00  0.00    -0.458 OA
BRANCH  41  42
ATOM     42  C   UNL     1       3.697  13.273  -0.730  1.00  0.00     0.205 CG0
ATOM     43  C   UNL     1       2.381  13.809  -1.290  1.00  0.00     0.056 C 
ATOM     44  G   UNL     1       4.895  13.569  -1.655  1.00  0.00     0.000 G0
ENDBRANCH  41  42
ENDBRANCH  39  41
ENDBRANCH  35  39
ENDBRANCH  33  35
ENDBRANCH  23  31
ENDBRANCH  21  23
ENDBRANCH  19  21
ENDBRANCH  14  19
ENDBRANCH   7  14
ENDBRANCH   2   5
BRANCH   3  45
ATOM     45  C   UNL     1      -3.840   5.526  11.279  1.00  0.00     0.171 C 
BRANCH  45  46
ATOM     46  N   UNL     1      -3.457   4.559  12.299  1.00  0.00    -0.342 N 
ATOM     47  C   UNL     1      -4.133   4.434  13.487  1.00  0.00     0.247 C 
ATOM     48  O   UNL     1      -5.152   5.075  13.746  1.00  0.00    -0.273 OA
ATOM     49  H   UNL     1      -2.651   3.967  12.101  1.00  0.00     0.164 HD
BRANCH  47  50
ATOM     50  C   UNL     1      -3.511   3.451  14.489  1.00  0.00     0.212 CG0
ATOM     51  G   UNL     1      -4.644   2.925  15.392  1.00  0.00     0.000 G0
BRANCH  50  52
ATOM     52  N   UNL     1      -2.888   2.409  13.678  1.00  0.00    -0.339 N 
ATOM     53  C   UNL     1      -3.529   1.248  13.318  1.00  0.00     0.243 C 
ATOM     54  O   UNL     1      -4.663   0.973  13.698  1.00  0.00    -0.273 OA
ATOM     55  H   UNL     1      -1.910   2.528  13.424  1.00  0.00     0.164 HD
BRANCH  53  56
ATOM     56  C   UNL     1      -2.642   0.259  12.533  1.00  0.00     0.182 C 
BRANCH  56  57
ATOM     57  N   UNL     1      -1.747   0.970  11.615  1.00  0.00    -0.344 N 
ATOM     58  C   UNL     1      -2.216   1.767  10.599  1.00  0.00     0.220 C 
ATOM     59  O   UNL     1      -3.410   1.882  10.343  1.00  0.00    -0.275 OA
ATOM     60  H   UNL     1      -0.759   0.983  11.853  1.00  0.00     0.164 HD
BRANCH  58  61
ATOM     61  C   UNL     1      -1.113   2.449   9.812  1.00  0.00     0.100 C 
BRANCH  61  62
ATOM     62  C   UNL     1      -0.879   1.844   8.427  1.00  0.00     0.010 C 
BRANCH  62  63
ATOM     63  C   UNL     1      -1.085   2.828   7.269  1.00  0.00     0.000 C 
BRANCH  63  64
ATOM     64  C   UNL     1      -2.526   3.308   7.104  1.00  0.00    -0.003 C 
ATOM     65  C   UNL     1      -2.605   4.521   6.188  1.00  0.00     0.004 C 
ENDBRANCH  63  64
ENDBRANCH  62  63
ENDBRANCH  61  62
ENDBRANCH  58  61
ENDBRANCH  56  57
BRANCH  56  66
ATOM     66  C   UNL     1      -3.481  -0.799  11.818  1.00  0.00     0.157 C 
BRANCH  66  67
ATOM     67  C   UNL     1      -3.023  -2.185  12.171  1.00  0.00     0.305 C 
ATOM     68  O   UNL     1      -3.674  -3.215  12.086  1.00  0.00    -0.252 OA
BRANCH  67  69
ATOM     69  O   UNL     1      -1.737  -2.213  12.570  1.00  0.00    -0.481 OA
ATOM     70  H   UNL     1      -1.417  -3.106  12.320  1.00  0.00     0.296 HD
ENDBRANCH  67  69
ENDBRANCH  66  67
ENDBRANCH  56  66
ENDBRANCH  53  56
ENDBRANCH  50  52
ENDBRANCH  47  50
ENDBRANCH  45  46
BRANCH  45  71
ATOM     71  C   UNL     1      -4.595   4.860  10.124  1.00  0.00     0.037 C 
BRANCH  71  72
ATOM     72  C   UNL     1      -5.966   5.500   9.888  1.00  0.00     0.026 C 
BRANCH  72  73
ATOM     73  C   UNL     1      -7.041   4.861  10.765  1.00  0.00     0.146 C 
BRANCH  73  74
ATOM     74  N   UNL     1      -7.735   5.933  11.472  1.00  0.00    -0.254 NA
ATOM     75  C   UNL     1      -8.218   5.672  12.630  1.00  0.00     0.185 C 
ATOM     76  N   UNL     1      -8.861   6.638  13.306  1.00  0.00    -0.370 N 
ATOM     77  N   UNL     1      -8.184   4.518  13.319  1.00  0.00    -0.370 N 
ATOM     78  H   UNL     1      -8.939   7.538  12.854  1.00  0.00     0.159 HD
ATOM     79  H   UNL     1      -9.387   6.470  14.145  1.00  0.00     0.159 HD
ATOM     80  H   UNL     1      -7.728   3.704  12.935  1.00  0.00     0.159 HD
ATOM     81  H   UNL     1      -8.499   4.463  14.274  1.00  0.00     0.159 HD
ENDBRANCH  73  74
ENDBRANCH  72  73
ENDBRANCH  71  72
ENDBRANCH  45  71
ENDBRANCH   3  45
TORSDOF 20
ENDMDL
MODEL 33
REMARK VINA RESULT:    -5.425      6.680     15.032
REMARK INTER + INTRA:         -21.681
REMARK INTER:                 -14.869
REMARK INTRA:                  -6.812
REMARK UNBOUND:                -6.106
REMARK SMILES CCCCCC(=O)N[C@H](CC(=O)O)C(=O)N[C@H]1C(=O)N[C@H](CCCN=C(N)N)C(=O)N[C@@H]2CC[C@H](O)N(C2=O)[C@@H](CC(C)C)C(=O)N(C)[C@@H](Cc2ccccc2)C(=O)N[C@H](C(C)C)C(=O)O[C@@H]1C
REMARK SMILES IDX 30 1 31 2 29 3 32 5 35 6 37 7 34 8 38 9 33 10 39 11 36 12
REMARK SMILES IDX 40 14 41 15 42 16 43 17 44 18 45 19 46 20 47 21 48 22 49 23
REMARK SMILES IDX 50 24 51 25 52 26 56 27 53 28 55 29 54 30 57 31 58 32 59 33
REMARK SMILES IDX 60 35 61 36 62 37 63 38 64 39 65 40 66 41 67 42 68 43 21 45
REMARK SMILES IDX 20 46 18 47 19 48 17 50 16 52 14 53 15 54 9 56 8 57 6 58
REMARK SMILES IDX 7 59 5 61 4 62 3 63 2 64 1 65 10 66 11 67 12 68 13 69 22 71
REMARK SMILES IDX 23 72 24 73 25 74 26 75 27 76 28 77
REMARK H PARENT 31 4 36 13 59 34 20 49 16 55 8 60 13 70 27 78 27 79 28 80
REMARK H PARENT 28 81
REMARK Flexibility Score:  259.900
ROOT
ATOM      1  O   UNL     1       0.408   7.945   8.973  1.00  0.00    -0.273 OA
ATOM      2  N   UNL     1       1.843   6.831   7.584  1.00  0.00    -0.343 N 
ATOM      3  C   UNL     1       1.505   7.419   8.784  1.00  0.00     0.243 C 
ATOM      4  H   UNL     1       2.750   6.395   7.469  1.00  0.00     0.164 HD
ENDROOT
BRANCH   2   5
ATOM      5  C   UNL     1       0.946   6.914   6.437  1.00  0.00     0.171 C 
ATOM      6  C   UNL     1       1.281   6.274   3.629  1.00  0.00     0.214 C 
ATOM      7  N   UNL     1       1.567   7.612   4.092  1.00  0.00    -0.303 N 
ATOM      8  C   UNL     1       0.204   5.574   4.443  1.00  0.00     0.057 C 
ATOM      9  C   UNL     1       1.477   7.972   5.427  1.00  0.00     0.247 C 
ATOM     10  C   UNL     1       0.613   5.524   5.899  1.00  0.00     0.040 C 
ATOM     11  O   UNL     1       1.807   9.096   5.828  1.00  0.00    -0.272 OA
BRANCH   6  12
ATOM     12  O   UNL     1       2.482   5.540   3.667  1.00  0.00    -0.373 OA
ATOM     13  H   UNL     1       2.805   5.563   4.593  1.00  0.00     0.213 HD
ENDBRANCH   6  12
BRANCH   7  14
ATOM     14  C   UNL     1       2.109   8.564   3.099  1.00  0.00     0.177 C 
BRANCH  14  15
ATOM     15  C   UNL     1       3.613   8.414   2.799  1.00  0.00     0.038 C 
BRANCH  15  16
ATOM     16  C   UNL     1       4.632   9.292   3.560  1.00  0.00    -0.015 C 
ATOM     17  C   UNL     1       5.853   9.643   2.705  1.00  0.00     0.007 C 
ATOM     18  C   UNL     1       5.118   8.555   4.814  1.00  0.00     0.007 C 
ENDBRANCH  15  16
ENDBRANCH  14  15
BRANCH  14  19
ATOM     19  C   UNL     1       1.008   8.938   2.047  1.00  0.00     0.245 C 
ATOM     20  O   UNL     1      -0.142   9.115   2.481  1.00  0.00    -0.272 OA
BRANCH  19  21
ATOM     21  N   UNL     1       1.225   8.968   0.681  1.00  0.00    -0.332 N 
ATOM     22  C   UNL     1       1.263   7.809  -0.192  1.00  0.00     0.147 C 
BRANCH  21  23
ATOM     23  C   UNL     1       1.451  10.294   0.042  1.00  0.00     0.178 C 
BRANCH  23  24
ATOM     24  C   UNL     1       2.931  10.715  -0.066  1.00  0.00     0.070 C 
BRANCH  24  25
ATOM     25  C   UNL     1       3.276  12.127   0.348  1.00  0.00    -0.045 A 
ATOM     26  C   UNL     1       3.550  12.435   1.687  1.00  0.00     0.004 A 
ATOM     27  C   UNL     1       3.323  13.153  -0.607  1.00  0.00     0.004 A 
ATOM     28  C   UNL     1       3.852  13.745   2.064  1.00  0.00     0.000 A 
ATOM     29  C   UNL     1       3.626  14.462  -0.229  1.00  0.00     0.000 A 
ATOM     30  C   UNL     1       3.888  14.757   1.108  1.00  0.00     0.000 A 
ENDBRANCH  24  25
ENDBRANCH  23  24
BRANCH  23  31
ATOM     31  C   UNL     1       0.622  10.490  -1.250  1.00  0.00     0.243 C 
ATOM     32  O   UNL     1      -0.606  10.460  -1.290  1.00  0.00    -0.273 OA
ATOM     33  N   UNL     1       1.390  10.519  -2.401  1.00  0.00    -0.341 N 
ATOM     34  H   UNL     1       2.409  10.536  -2.305  1.00  0.00     0.164 HD
BRANCH  33  35
ATOM     35  C   UNL     1       0.812  10.577  -3.747  1.00  0.00     0.194 C 
BRANCH  35  36
ATOM     36  C   UNL     1       1.532   9.673  -4.787  1.00  0.00     0.017 C 
ATOM     37  C   UNL     1       1.101  10.021  -6.223  1.00  0.00     0.010 C 
ATOM     38  C   UNL     1       1.264   8.178  -4.576  1.00  0.00     0.010 C 
ENDBRANCH  35  36
BRANCH  35  39
ATOM     39  C   UNL     1       0.643  12.034  -4.262  1.00  0.00     0.329 C 
ATOM     40  O   UNL     1       1.577  12.775  -4.545  1.00  0.00    -0.250 OA
BRANCH  39  41
ATOM     41  O   UNL     1      -0.670  12.370  -4.449  1.00  0.00    -0.458 OA
BRANCH  41  42
ATOM     42  C   UNL     1      -0.992  13.023  -5.700  1.00  0.00     0.205 CG0
ATOM     43  C   UNL     1      -2.285  13.806  -5.484  1.00  0.00     0.056 C 
ATOM     44  G   UNL     1      -1.131  11.947  -6.795  1.00  0.00     0.000 G0
ENDBRANCH  41  42
ENDBRANCH  39  41
ENDBRANCH  35  39
ENDBRANCH  33  35
ENDBRANCH  23  31
ENDBRANCH  21  23
ENDBRANCH  19  21
ENDBRANCH  14  19
ENDBRANCH   7  14
ENDBRANCH   2   5
BRANCH   3  45
ATOM     45  C   UNL     1       2.583   7.354   9.874  1.00  0.00     0.171 C 
BRANCH  45  46
ATOM     46  N   UNL     1       1.895   6.919  11.082  1.00  0.00    -0.342 N 
ATOM     47  C   UNL     1       1.948   5.625  11.534  1.00  0.00     0.247 C 
ATOM     48  O   UNL     1       2.636   4.757  10.996  1.00  0.00    -0.273 OA
ATOM     49  H   UNL     1       1.358   7.620  11.591  1.00  0.00     0.164 HD
BRANCH  47  50
ATOM     50  C   UNL     1       1.061   5.324  12.751  1.00  0.00     0.212 CG0
ATOM     51  G   UNL     1       0.826   6.652  13.497  1.00  0.00     0.000 G0
BRANCH  50  52
ATOM     52  N   UNL     1      -0.163   4.743  12.206  1.00  0.00    -0.339 N 
ATOM     53  C   UNL     1      -1.220   5.495  11.753  1.00  0.00     0.243 C 
ATOM     54  O   UNL     1      -1.237   6.721  11.820  1.00  0.00    -0.273 OA
ATOM     55  H   UNL     1      -0.256   3.730  12.227  1.00  0.00     0.164 HD
BRANCH  53  56
ATOM     56  C   UNL     1      -2.437   4.661  11.304  1.00  0.00     0.182 C 
BRANCH  56  57
ATOM     57  N   UNL     1      -3.024   5.204  10.075  1.00  0.00    -0.344 N 
ATOM     58  C   UNL     1      -2.395   5.115   8.857  1.00  0.00     0.220 C 
ATOM     59  O   UNL     1      -1.271   4.642   8.724  1.00  0.00    -0.275 OA
ATOM     60  H   UNL     1      -3.992   5.511  10.123  1.00  0.00     0.164 HD
BRANCH  58  61
ATOM     61  C   UNL     1      -3.211   5.691   7.715  1.00  0.00     0.100 C 
BRANCH  61  62
ATOM     62  C   UNL     1      -2.600   6.948   7.094  1.00  0.00     0.010 C 
BRANCH  62  63
ATOM     63  C   UNL     1      -2.923   8.243   7.850  1.00  0.00     0.000 C 
BRANCH  63  64
ATOM     64  C   UNL     1      -3.612   9.309   7.000  1.00  0.00    -0.003 C 
ATOM     65  C   UNL     1      -2.978  10.677   7.206  1.00  0.00     0.004 C 
ENDBRANCH  63  64
ENDBRANCH  62  63
ENDBRANCH  61  62
ENDBRANCH  58  61
ENDBRANCH  56  57
BRANCH  56  66
ATOM     66  C   UNL     1      -3.467   4.527  12.425  1.00  0.00     0.157 C 
BRANCH  66  67
ATOM     67  C   UNL     1      -4.851   4.347  11.872  1.00  0.00     0.305 C 
ATOM     68  O   UNL     1      -5.740   5.185  11.835  1.00  0.00    -0.252 OA
BRANCH  67  69
ATOM     69  O   UNL     1      -5.035   3.124  11.339  1.00  0.00    -0.481 OA
ATOM     70  H   UNL     1      -4.192   2.921  10.882  1.00  0.00     0.296 HD
ENDBRANCH  67  69
ENDBRANCH  66  67
ENDBRANCH  56  66
ENDBRANCH  53  56
ENDBRANCH  50  52
ENDBRANCH  47  50
ENDBRANCH  45  46
BRANCH  45  71
ATOM     71  C   UNL     1       3.238   8.728  10.059  1.00  0.00     0.037 C 
BRANCH  71  72
ATOM     72  C   UNL     1       3.845   9.256   8.758  1.00  0.00     0.026 C 
BRANCH  72  73
ATOM     73  C   UNL     1       3.445  10.708   8.501  1.00  0.00     0.146 C 
BRANCH  73  74
ATOM     74  N   UNL     1       2.388  11.053   9.447  1.00  0.00    -0.254 NA
ATOM     75  C   UNL     1       1.192  11.155   8.998  1.00  0.00     0.185 C 
ATOM     76  N   UNL     1       0.198  11.471   9.844  1.00  0.00    -0.370 N 
ATOM     77  N   UNL     1       0.744  10.986   7.741  1.00  0.00    -0.370 N 
ATOM     78  H   UNL     1       0.451  11.623  10.810  1.00  0.00     0.159 HD
ATOM     79  H   UNL     1      -0.731  11.708   9.543  1.00  0.00     0.159 HD
ATOM     80  H   UNL     1       1.381  10.742   6.998  1.00  0.00     0.159 HD
ATOM     81  H   UNL     1      -0.240  10.979   7.528  1.00  0.00     0.159 HD
ENDBRANCH  73  74
ENDBRANCH  72  73
ENDBRANCH  71  72
ENDBRANCH  45  71
ENDBRANCH   3  45
TORSDOF 20
ENDMDL
MODEL 34
REMARK VINA RESULT:    -5.305      7.868     13.428
REMARK INTER + INTRA:         -21.335
REMARK INTER:                 -14.287
REMARK INTRA:                  -7.048
REMARK UNBOUND:                -6.106
REMARK SMILES CCCCCC(=O)N[C@H](CC(=O)O)C(=O)N[C@H]1C(=O)N[C@H](CCCN=C(N)N)C(=O)N[C@@H]2CC[C@H](O)N(C2=O)[C@@H](CC(C)C)C(=O)N(C)[C@@H](Cc2ccccc2)C(=O)N[C@H](C(C)C)C(=O)O[C@@H]1C
REMARK SMILES IDX 30 1 31 2 29 3 32 5 35 6 37 7 34 8 38 9 33 10 39 11 36 12
REMARK SMILES IDX 40 14 41 15 42 16 43 17 44 18 45 19 46 20 47 21 48 22 49 23
REMARK SMILES IDX 50 24 51 25 52 26 56 27 53 28 55 29 54 30 57 31 58 32 59 33
REMARK SMILES IDX 60 35 61 36 62 37 63 38 64 39 65 40 66 41 67 42 68 43 21 45
REMARK SMILES IDX 20 46 18 47 19 48 17 50 16 52 14 53 15 54 9 56 8 57 6 58
REMARK SMILES IDX 7 59 5 61 4 62 3 63 2 64 1 65 10 66 11 67 12 68 13 69 22 71
REMARK SMILES IDX 23 72 24 73 25 74 26 75 27 76 28 77
REMARK H PARENT 31 4 36 13 59 34 20 49 16 55 8 60 13 70 27 78 27 79 28 80
REMARK H PARENT 28 81
REMARK Flexibility Score:  259.900
ROOT
ATOM      1  O   UNL     1      -4.315  10.159  10.281  1.00  0.00    -0.273 OA
ATOM      2  N   UNL     1      -2.265  11.047   9.791  1.00  0.00    -0.343 N 
ATOM      3  C   UNL     1      -3.445  10.420   9.450  1.00  0.00     0.243 C 
ATOM      4  H   UNL     1      -1.578  11.259   9.078  1.00  0.00     0.164 HD
ENDROOT
BRANCH   2   5
ATOM      5  C   UNL     1      -1.947  11.323  11.187  1.00  0.00     0.171 C 
ATOM      6  C   UNL     1       0.346  12.542  12.476  1.00  0.00     0.214 C 
ATOM      7  N   UNL     1       0.318  11.111  12.281  1.00  0.00    -0.303 N 
ATOM      8  C   UNL     1      -1.036  13.152  12.653  1.00  0.00     0.057 C 
ATOM      9  C   UNL     1      -0.722  10.471  11.627  1.00  0.00     0.247 C 
ATOM     10  C   UNL     1      -1.897  12.827  11.452  1.00  0.00     0.040 C 
ATOM     11  O   UNL     1      -0.698   9.257  11.387  1.00  0.00    -0.272 OA
BRANCH   6  12
ATOM     12  O   UNL     1       0.999  13.116  11.367  1.00  0.00    -0.373 OA
ATOM     13  H   UNL     1       1.333  12.376  10.816  1.00  0.00     0.213 HD
ENDBRANCH   6  12
BRANCH   7  14
ATOM     14  C   UNL     1       1.526  10.357  12.678  1.00  0.00     0.177 C 
BRANCH  14  15
ATOM     15  C   UNL     1       2.834  10.809  12.001  1.00  0.00     0.038 C 
BRANCH  15  16
ATOM     16  C   UNL     1       3.143  10.350  10.559  1.00  0.00    -0.015 C 
ATOM     17  C   UNL     1       4.293   9.340  10.501  1.00  0.00     0.007 C 
ATOM     18  C   UNL     1       3.524  11.562   9.699  1.00  0.00     0.007 C 
ENDBRANCH  15  16
ENDBRANCH  14  15
BRANCH  14  19
ATOM     19  C   UNL     1       1.395   9.864  14.161  1.00  0.00     0.245 C 
ATOM     20  O   UNL     1       1.263   8.641  14.333  1.00  0.00    -0.272 OA
BRANCH  19  21
ATOM     21  N   UNL     1       1.307  10.712  15.251  1.00  0.00    -0.332 N 
ATOM     22  C   UNL     1       0.087  11.041  15.966  1.00  0.00     0.147 C 
BRANCH  21  23
ATOM     23  C   UNL     1       2.560  11.355  15.734  1.00  0.00     0.178 C 
BRANCH  23  24
ATOM     24  C   UNL     1       2.588  12.892  15.606  1.00  0.00     0.070 C 
BRANCH  24  25
ATOM     25  C   UNL     1       3.418  13.474  14.485  1.00  0.00    -0.045 A 
ATOM     26  C   UNL     1       4.613  12.861  14.085  1.00  0.00     0.004 A 
ATOM     27  C   UNL     1       3.004  14.644  13.832  1.00  0.00     0.004 A 
ATOM     28  C   UNL     1       5.383  13.415  13.060  1.00  0.00     0.000 A 
ATOM     29  C   UNL     1       3.775  15.195  12.807  1.00  0.00     0.000 A 
ATOM     30  C   UNL     1       4.966  14.582  12.424  1.00  0.00     0.000 A 
ENDBRANCH  24  25
ENDBRANCH  23  24
BRANCH  23  31
ATOM     31  C   UNL     1       3.031  10.808  17.103  1.00  0.00     0.243 C 
ATOM     32  O   UNL     1       2.763   9.684  17.522  1.00  0.00    -0.273 OA
ATOM     33  N   UNL     1       3.630  11.764  17.905  1.00  0.00    -0.341 N 
ATOM     34  H   UNL     1       3.822  12.684  17.502  1.00  0.00     0.164 HD
BRANCH  33  35
ATOM     35  C   UNL     1       4.046  11.502  19.286  1.00  0.00     0.194 C 
BRANCH  35  36
ATOM     36  C   UNL     1       3.682  12.636  20.285  1.00  0.00     0.017 C 
ATOM     37  C   UNL     1       2.761  12.121  21.405  1.00  0.00     0.010 C 
ATOM     38  C   UNL     1       2.974  13.823  19.620  1.00  0.00     0.010 C 
ENDBRANCH  35  36
BRANCH  35  39
ATOM     39  C   UNL     1       5.542  11.094  19.392  1.00  0.00     0.329 C 
ATOM     40  O   UNL     1       6.135  10.435  18.546  1.00  0.00    -0.250 OA
BRANCH  39  41
ATOM     41  O   UNL     1       6.149  11.626  20.495  1.00  0.00    -0.458 OA
BRANCH  41  42
ATOM     42  C   UNL     1       6.889  10.702  21.329  1.00  0.00     0.205 CG0
ATOM     43  C   UNL     1       5.885  10.033  22.266  1.00  0.00     0.056 C 
ATOM     44  G   UNL     1       7.974  11.488  22.091  1.00  0.00     0.000 G0
ENDBRANCH  41  42
ENDBRANCH  39  41
ENDBRANCH  35  39
ENDBRANCH  33  35
ENDBRANCH  23  31
ENDBRANCH  21  23
ENDBRANCH  19  21
ENDBRANCH  14  19
ENDBRANCH   7  14
ENDBRANCH   2   5
BRANCH   3  45
ATOM     45  C   UNL     1      -3.607  10.090   7.961  1.00  0.00     0.171 C 
BRANCH  45  46
ATOM     46  N   UNL     1      -5.017  10.302   7.662  1.00  0.00    -0.342 N 
ATOM     47  C   UNL     1      -5.457  10.687   6.420  1.00  0.00     0.247 C 
ATOM     48  O   UNL     1      -4.704  10.810   5.453  1.00  0.00    -0.273 OA
ATOM     49  H   UNL     1      -5.681  10.156   8.420  1.00  0.00     0.164 HD
BRANCH  47  50
ATOM     50  C   UNL     1      -6.960  10.982   6.326  1.00  0.00     0.212 CG0
ATOM     51  G   UNL     1      -7.507  10.234   5.094  1.00  0.00     0.000 G0
BRANCH  50  52
ATOM     52  N   UNL     1      -7.529  10.514   7.586  1.00  0.00    -0.339 N 
ATOM     53  C   UNL     1      -8.620   9.682   7.660  1.00  0.00     0.243 C 
ATOM     54  O   UNL     1      -9.237   9.310   6.665  1.00  0.00    -0.273 OA
ATOM     55  H   UNL     1      -7.130  10.877   8.449  1.00  0.00     0.164 HD
BRANCH  53  56
ATOM     56  C   UNL     1      -9.093   9.393   9.099  1.00  0.00     0.182 C 
BRANCH  56  57
ATOM     57  N   UNL     1      -8.202  10.019  10.081  1.00  0.00    -0.344 N 
ATOM     58  C   UNL     1      -8.620  11.028  10.915  1.00  0.00     0.220 C 
ATOM     59  O   UNL     1      -9.740  11.524  10.847  1.00  0.00    -0.275 OA
ATOM     60  H   UNL     1      -7.303   9.572  10.239  1.00  0.00     0.164 HD
BRANCH  58  61
ATOM     61  C   UNL     1      -7.550  11.485  11.889  1.00  0.00     0.100 C 
BRANCH  61  62
ATOM     62  C   UNL     1      -7.144  12.949  11.716  1.00  0.00     0.010 C 
BRANCH  62  63
ATOM     63  C   UNL     1      -5.630  13.170  11.600  1.00  0.00     0.000 C 
BRANCH  63  64
ATOM     64  C   UNL     1      -5.175  13.684  10.235  1.00  0.00    -0.003 C 
ATOM     65  C   UNL     1      -6.239  13.454   9.172  1.00  0.00     0.004 C 
ENDBRANCH  63  64
ENDBRANCH  62  63
ENDBRANCH  61  62
ENDBRANCH  58  61
ENDBRANCH  56  57
BRANCH  56  66
ATOM     66  C   UNL     1      -9.257   7.893   9.344  1.00  0.00     0.157 C 
BRANCH  66  67
ATOM     67  C   UNL     1      -8.346   7.418  10.438  1.00  0.00     0.305 C 
ATOM     68  O   UNL     1      -7.189   7.044  10.318  1.00  0.00    -0.252 OA
BRANCH  67  69
ATOM     69  O   UNL     1      -8.925   7.487  11.652  1.00  0.00    -0.481 OA
ATOM     70  H   UNL     1      -9.552   6.734  11.673  1.00  0.00     0.296 HD
ENDBRANCH  67  69
ENDBRANCH  66  67
ENDBRANCH  56  66
ENDBRANCH  53  56
ENDBRANCH  50  52
ENDBRANCH  47  50
ENDBRANCH  45  46
BRANCH  45  71
ATOM     71  C   UNL     1      -3.182   8.643   7.685  1.00  0.00     0.037 C 
BRANCH  71  72
ATOM     72  C   UNL     1      -2.140   8.552   6.568  1.00  0.00     0.026 C 
BRANCH  72  73
ATOM     73  C   UNL     1      -1.155   9.718   6.624  1.00  0.00     0.146 C 
BRANCH  73  74
ATOM     74  N   UNL     1      -1.001  10.239   5.269  1.00  0.00    -0.254 NA
ATOM     75  C   UNL     1      -1.410  11.432   5.036  1.00  0.00     0.185 C 
ATOM     76  N   UNL     1      -1.282  11.939   3.799  1.00  0.00    -0.370 N 
ATOM     77  N   UNL     1      -1.981  12.309   5.880  1.00  0.00    -0.370 N 
ATOM     78  H   UNL     1      -0.868  11.340   3.100  1.00  0.00     0.159 HD
ATOM     79  H   UNL     1      -1.706  12.802   3.508  1.00  0.00     0.159 HD
ATOM     80  H   UNL     1      -2.137  12.065   6.846  1.00  0.00     0.159 HD
ATOM     81  H   UNL     1      -2.156  13.263   5.610  1.00  0.00     0.159 HD
ENDBRANCH  73  74
ENDBRANCH  72  73
ENDBRANCH  71  72
ENDBRANCH  45  71
ENDBRANCH   3  45
TORSDOF 20
ENDMDL
MODEL 35
REMARK VINA RESULT:    -5.271      5.930     16.022
REMARK INTER + INTRA:         -21.238
REMARK INTER:                 -17.578
REMARK INTRA:                  -3.660
REMARK UNBOUND:                -6.106
REMARK SMILES CCCCCC(=O)N[C@H](CC(=O)O)C(=O)N[C@H]1C(=O)N[C@H](CCCN=C(N)N)C(=O)N[C@@H]2CC[C@H](O)N(C2=O)[C@@H](CC(C)C)C(=O)N(C)[C@@H](Cc2ccccc2)C(=O)N[C@H](C(C)C)C(=O)O[C@@H]1C
REMARK SMILES IDX 30 1 31 2 29 3 32 5 35 6 37 7 34 8 38 9 33 10 39 11 36 12
REMARK SMILES IDX 40 14 41 15 42 16 43 17 44 18 45 19 46 20 47 21 48 22 49 23
REMARK SMILES IDX 50 24 51 25 52 26 56 27 53 28 55 29 54 30 57 31 58 32 59 33
REMARK SMILES IDX 60 35 61 36 62 37 63 38 64 39 65 40 66 41 67 42 68 43 21 45
REMARK SMILES IDX 20 46 18 47 19 48 17 50 16 52 14 53 15 54 9 56 8 57 6 58
REMARK SMILES IDX 7 59 5 61 4 62 3 63 2 64 1 65 10 66 11 67 12 68 13 69 22 71
REMARK SMILES IDX 23 72 24 73 25 74 26 75 27 76 28 77
REMARK H PARENT 31 4 36 13 59 34 20 49 16 55 8 60 13 70 27 78 27 79 28 80
REMARK H PARENT 28 81
REMARK Flexibility Score:  259.900
ROOT
ATOM      1  O   UNL     1       0.276   5.480   7.419  1.00  0.00    -0.273 OA
ATOM      2  N   UNL     1       0.364   7.743   7.096  1.00  0.00    -0.343 N 
ATOM      3  C   UNL     1      -0.151   6.605   7.680  1.00  0.00     0.243 C 
ATOM      4  H   UNL     1      -0.002   8.653   7.345  1.00  0.00     0.164 HD
ENDROOT
BRANCH   2   5
ATOM      5  C   UNL     1       1.370   7.646   6.043  1.00  0.00     0.171 C 
ATOM      6  C   UNL     1       3.192   9.581   4.884  1.00  0.00     0.214 C 
ATOM      7  N   UNL     1       1.886   9.394   4.296  1.00  0.00    -0.303 N 
ATOM      8  C   UNL     1       3.739   8.325   5.545  1.00  0.00     0.057 C 
ATOM      9  C   UNL     1       0.949   8.524   4.830  1.00  0.00     0.247 C 
ATOM     10  C   UNL     1       2.776   7.844   6.608  1.00  0.00     0.040 C 
ATOM     11  O   UNL     1      -0.198   8.433   4.372  1.00  0.00    -0.272 OA
BRANCH   6  12
ATOM     12  O   UNL     1       3.096  10.629   5.821  1.00  0.00    -0.373 OA
ATOM     13  H   UNL     1       3.263  10.239   6.706  1.00  0.00     0.213 HD
ENDBRANCH   6  12
BRANCH   7  14
ATOM     14  C   UNL     1       1.523  10.283   3.173  1.00  0.00     0.177 C 
BRANCH  14  15
ATOM     15  C   UNL     1       0.787  11.577   3.572  1.00  0.00     0.038 C 
BRANCH  15  16
ATOM     16  C   UNL     1      -0.495  11.988   2.815  1.00  0.00    -0.015 C 
ATOM     17  C   UNL     1      -1.191  10.795   2.154  1.00  0.00     0.007 C 
ATOM     18  C   UNL     1      -0.148  13.007   1.722  1.00  0.00     0.007 C 
ENDBRANCH  15  16
ENDBRANCH  14  15
BRANCH  14  19
ATOM     19  C   UNL     1       2.576  10.158   2.018  1.00  0.00     0.245 C 
ATOM     20  O   UNL     1       3.464  11.025   1.975  1.00  0.00    -0.272 OA
BRANCH  19  21
ATOM     21  N   UNL     1       2.500   9.220   1.004  1.00  0.00    -0.332 N 
ATOM     22  C   UNL     1       2.542   7.780   1.183  1.00  0.00     0.147 C 
BRANCH  21  23
ATOM     23  C   UNL     1       2.375   9.715  -0.395  1.00  0.00     0.178 C 
BRANCH  23  24
ATOM     24  C   UNL     1       0.939  10.074  -0.827  1.00  0.00     0.070 C 
BRANCH  24  25
ATOM     25  C   UNL     1       0.650  10.090  -2.310  1.00  0.00    -0.045 A 
ATOM     26  C   UNL     1       0.766   8.924  -3.076  1.00  0.00     0.004 A 
ATOM     27  C   UNL     1       0.264  11.282  -2.943  1.00  0.00     0.004 A 
ATOM     28  C   UNL     1       0.514   8.951  -4.450  1.00  0.00     0.000 A 
ATOM     29  C   UNL     1       0.012  11.307  -4.315  1.00  0.00     0.000 A 
ATOM     30  C   UNL     1       0.139  10.142  -5.068  1.00  0.00     0.000 A 
ENDBRANCH  24  25
ENDBRANCH  23  24
BRANCH  23  31
ATOM     31  C   UNL     1       3.447  10.769  -0.760  1.00  0.00     0.243 C 
ATOM     32  O   UNL     1       4.632  10.507  -0.949  1.00  0.00    -0.273 OA
ATOM     33  N   UNL     1       2.992  12.074  -0.674  1.00  0.00    -0.341 N 
ATOM     34  H   UNL     1       1.995  12.230  -0.508  1.00  0.00     0.164 HD
BRANCH  33  35
ATOM     35  C   UNL     1       3.863  13.238  -0.860  1.00  0.00     0.194 C 
BRANCH  35  36
ATOM     36  C   UNL     1       3.401  14.507  -0.088  1.00  0.00     0.017 C 
ATOM     37  C   UNL     1       4.073  15.774  -0.644  1.00  0.00     0.010 C 
ATOM     38  C   UNL     1       3.707  14.445   1.413  1.00  0.00     0.010 C 
ENDBRANCH  35  36
BRANCH  35  39
ATOM     39  C   UNL     1       4.145  13.541  -2.358  1.00  0.00     0.329 C 
ATOM     40  O   UNL     1       3.276  13.614  -3.219  1.00  0.00    -0.250 OA
BRANCH  39  41
ATOM     41  O   UNL     1       5.466  13.803  -2.596  1.00  0.00    -0.458 OA
BRANCH  41  42
ATOM     42  C   UNL     1       5.764  14.556  -3.796  1.00  0.00     0.205 CG0
ATOM     43  C   UNL     1       7.172  14.165  -4.240  1.00  0.00     0.056 C 
ATOM     44  G   UNL     1       5.643  16.060  -3.476  1.00  0.00     0.000 G0
ENDBRANCH  41  42
ENDBRANCH  39  41
ENDBRANCH  35  39
ENDBRANCH  33  35
ENDBRANCH  23  31
ENDBRANCH  21  23
ENDBRANCH  19  21
ENDBRANCH  14  19
ENDBRANCH   7  14
ENDBRANCH   2   5
BRANCH   3  45
ATOM     45  C   UNL     1      -1.279   6.841   8.693  1.00  0.00     0.171 C 
BRANCH  45  46
ATOM     46  N   UNL     1      -1.045   5.889   9.771  1.00  0.00    -0.342 N 
ATOM     47  C   UNL     1      -1.437   6.130  11.064  1.00  0.00     0.247 C 
ATOM     48  O   UNL     1      -2.077   7.129  11.393  1.00  0.00    -0.273 OA
ATOM     49  H   UNL     1      -0.568   5.022   9.531  1.00  0.00     0.164 HD
BRANCH  47  50
ATOM     50  C   UNL     1      -0.996   5.072  12.085  1.00  0.00     0.212 CG0
ATOM     51  G   UNL     1      -0.597   5.809  13.379  1.00  0.00     0.000 G0
BRANCH  50  52
ATOM     52  N   UNL     1      -2.147   4.190  12.255  1.00  0.00    -0.339 N 
ATOM     53  C   UNL     1      -2.442   3.158  11.397  1.00  0.00     0.243 C 
ATOM     54  O   UNL     1      -1.785   2.931  10.385  1.00  0.00    -0.273 OA
ATOM     55  H   UNL     1      -2.794   4.397  13.013  1.00  0.00     0.164 HD
BRANCH  53  56
ATOM     56  C   UNL     1      -3.755   2.420  11.730  1.00  0.00     0.182 C 
BRANCH  56  57
ATOM     57  N   UNL     1      -4.917   3.288  11.512  1.00  0.00    -0.344 N 
ATOM     58  C   UNL     1      -5.353   4.185  12.455  1.00  0.00     0.220 C 
ATOM     59  O   UNL     1      -4.851   4.272  13.570  1.00  0.00    -0.275 OA
ATOM     60  H   UNL     1      -5.297   3.320  10.569  1.00  0.00     0.164 HD
BRANCH  58  61
ATOM     61  C   UNL     1      -6.534   5.018  11.992  1.00  0.00     0.100 C 
BRANCH  61  62
ATOM     62  C   UNL     1      -6.411   5.514  10.551  1.00  0.00     0.010 C 
BRANCH  62  63
ATOM     63  C   UNL     1      -7.744   5.925   9.913  1.00  0.00     0.000 C 
BRANCH  63  64
ATOM     64  C   UNL     1      -8.137   7.380  10.164  1.00  0.00    -0.003 C 
ATOM     65  C   UNL     1      -9.235   7.831   9.212  1.00  0.00     0.004 C 
ENDBRANCH  63  64
ENDBRANCH  62  63
ENDBRANCH  61  62
ENDBRANCH  58  61
ENDBRANCH  56  57
BRANCH  56  66
ATOM     66  C   UNL     1      -3.727   1.839  13.143  1.00  0.00     0.157 C 
BRANCH  66  67
ATOM     67  C   UNL     1      -2.875   0.604  13.206  1.00  0.00     0.305 C 
ATOM     68  O   UNL     1      -3.105  -0.473  12.677  1.00  0.00    -0.252 OA
BRANCH  67  69
ATOM     69  O   UNL     1      -1.737   0.802  13.897  1.00  0.00    -0.481 OA
ATOM     70  H   UNL     1      -1.055   0.296  13.407  1.00  0.00     0.296 HD
ENDBRANCH  67  69
ENDBRANCH  66  67
ENDBRANCH  56  66
ENDBRANCH  53  56
ENDBRANCH  50  52
ENDBRANCH  47  50
ENDBRANCH  45  46
BRANCH  45  71
ATOM     71  C   UNL     1      -2.645   6.622   8.032  1.00  0.00     0.037 C 
BRANCH  71  72
ATOM     72  C   UNL     1      -3.579   7.818   8.231  1.00  0.00     0.026 C 
BRANCH  72  73
ATOM     73  C   UNL     1      -3.006   9.087   7.605  1.00  0.00     0.146 C 
BRANCH  73  74
ATOM     74  N   UNL     1      -3.894  10.194   7.947  1.00  0.00    -0.254 NA
ATOM     75  C   UNL     1      -4.572  10.732   7.001  1.00  0.00     0.185 C 
ATOM     76  N   UNL     1      -5.399  11.752   7.285  1.00  0.00    -0.370 N 
ATOM     77  N   UNL     1      -4.592  10.422   5.693  1.00  0.00    -0.370 N 
ATOM     78  H   UNL     1      -5.438  12.055   8.248  1.00  0.00     0.159 HD
ATOM     79  H   UNL     1      -5.848  12.313   6.582  1.00  0.00     0.159 HD
ATOM     80  H   UNL     1      -4.022   9.671   5.335  1.00  0.00     0.159 HD
ATOM     81  H   UNL     1      -5.255  10.840   5.061  1.00  0.00     0.159 HD
ENDBRANCH  73  74
ENDBRANCH  72  73
ENDBRANCH  71  72
ENDBRANCH  45  71
ENDBRANCH   3  45
TORSDOF 20
ENDMDL
MODEL 36
REMARK VINA RESULT:    -5.221      4.344     13.011
REMARK INTER + INTRA:         -21.095
REMARK INTER:                 -14.927
REMARK INTRA:                  -6.168
REMARK UNBOUND:                -6.106
REMARK SMILES CCCCCC(=O)N[C@H](CC(=O)O)C(=O)N[C@H]1C(=O)N[C@H](CCCN=C(N)N)C(=O)N[C@@H]2CC[C@H](O)N(C2=O)[C@@H](CC(C)C)C(=O)N(C)[C@@H](Cc2ccccc2)C(=O)N[C@H](C(C)C)C(=O)O[C@@H]1C
REMARK SMILES IDX 30 1 31 2 29 3 32 5 35 6 37 7 34 8 38 9 33 10 39 11 36 12
REMARK SMILES IDX 40 14 41 15 42 16 43 17 44 18 45 19 46 20 47 21 48 22 49 23
REMARK SMILES IDX 50 24 51 25 52 26 56 27 53 28 55 29 54 30 57 31 58 32 59 33
REMARK SMILES IDX 60 35 61 36 62 37 63 38 64 39 65 40 66 41 67 42 68 43 21 45
REMARK SMILES IDX 20 46 18 47 19 48 17 50 16 52 14 53 15 54 9 56 8 57 6 58
REMARK SMILES IDX 7 59 5 61 4 62 3 63 2 64 1 65 10 66 11 67 12 68 13 69 22 71
REMARK SMILES IDX 23 72 24 73 25 74 26 75 27 76 28 77
REMARK H PARENT 31 4 36 13 59 34 20 49 16 55 8 60 13 70 27 78 27 79 28 80
REMARK H PARENT 28 81
REMARK Flexibility Score:  259.900
ROOT
ATOM      1  O   UNL     1      -1.266   9.985   3.244  1.00  0.00    -0.273 OA
ATOM      2  N   UNL     1      -0.921  11.617   4.808  1.00  0.00    -0.343 N 
ATOM      3  C   UNL     1      -1.721  10.752   4.092  1.00  0.00     0.243 C 
ATOM      4  H   UNL     1      -1.327  12.224   5.509  1.00  0.00     0.164 HD
ENDROOT
BRANCH   2   5
ATOM      5  C   UNL     1       0.500  11.741   4.500  1.00  0.00     0.171 C 
ATOM      6  C   UNL     1       2.223  10.389   2.600  1.00  0.00     0.214 C 
ATOM      7  N   UNL     1       2.084   9.858   3.936  1.00  0.00    -0.303 N 
ATOM      8  C   UNL     1       2.059  11.899   2.533  1.00  0.00     0.057 C 
ATOM      9  C   UNL     1       1.239  10.425   4.876  1.00  0.00     0.247 C 
ATOM     10  C   UNL     1       0.709  12.293   3.090  1.00  0.00     0.040 C 
ATOM     11  O   UNL     1       1.059   9.914   5.990  1.00  0.00    -0.272 OA
BRANCH   6  12
ATOM     12  O   UNL     1       1.268   9.753   1.783  1.00  0.00    -0.373 OA
ATOM     13  H   UNL     1       1.177   8.833   2.110  1.00  0.00     0.213 HD
ENDBRANCH   6  12
BRANCH   7  14
ATOM     14  C   UNL     1       2.773   8.583   4.226  1.00  0.00     0.177 C 
BRANCH  14  15
ATOM     15  C   UNL     1       2.908   7.623   3.028  1.00  0.00     0.038 C 
BRANCH  15  16
ATOM     16  C   UNL     1       1.679   6.812   2.560  1.00  0.00    -0.015 C 
ATOM     17  C   UNL     1       1.032   6.022   3.701  1.00  0.00     0.007 C 
ATOM     18  C   UNL     1       2.097   5.822   1.466  1.00  0.00     0.007 C 
ENDBRANCH  15  16
ENDBRANCH  14  15
BRANCH  14  19
ATOM     19  C   UNL     1       3.848   8.789   5.349  1.00  0.00     0.245 C 
ATOM     20  O   UNL     1       4.679   9.695   5.168  1.00  0.00    -0.272 OA
BRANCH  19  21
ATOM     21  N   UNL     1       3.983   7.961   6.449  1.00  0.00    -0.332 N 
ATOM     22  C   UNL     1       4.811   8.231   7.611  1.00  0.00     0.147 C 
BRANCH  21  23
ATOM     23  C   UNL     1       3.231   6.676   6.448  1.00  0.00     0.178 C 
BRANCH  23  24
ATOM     24  C   UNL     1       4.113   5.411   6.456  1.00  0.00     0.070 C 
BRANCH  24  25
ATOM     25  C   UNL     1       4.533   4.857   5.114  1.00  0.00    -0.045 A 
ATOM     26  C   UNL     1       3.853   3.776   4.539  1.00  0.00     0.004 A 
ATOM     27  C   UNL     1       5.619   5.418   4.425  1.00  0.00     0.004 A 
ATOM     28  C   UNL     1       4.258   3.259   3.307  1.00  0.00     0.000 A 
ATOM     29  C   UNL     1       6.022   4.901   3.193  1.00  0.00     0.000 A 
ATOM     30  C   UNL     1       5.343   3.820   2.636  1.00  0.00     0.000 A 
ENDBRANCH  24  25
ENDBRANCH  23  24
BRANCH  23  31
ATOM     31  C   UNL     1       2.062   6.660   7.462  1.00  0.00     0.243 C 
ATOM     32  O   UNL     1       2.210   6.678   8.681  1.00  0.00    -0.273 OA
ATOM     33  N   UNL     1       0.826   6.437   6.878  1.00  0.00    -0.341 N 
ATOM     34  H   UNL     1       0.767   6.427   5.857  1.00  0.00     0.164 HD
BRANCH  33  35
ATOM     35  C   UNL     1      -0.405   6.265   7.655  1.00  0.00     0.194 C 
BRANCH  35  36
ATOM     36  C   UNL     1      -0.971   4.817   7.636  1.00  0.00     0.017 C 
ATOM     37  C   UNL     1      -1.038   4.262   6.202  1.00  0.00     0.010 C 
ATOM     38  C   UNL     1      -2.378   4.710   8.236  1.00  0.00     0.010 C 
ENDBRANCH  35  36
BRANCH  35  39
ATOM     39  C   UNL     1      -1.490   7.317   7.295  1.00  0.00     0.329 C 
ATOM     40  O   UNL     1      -1.908   7.512   6.159  1.00  0.00    -0.250 OA
BRANCH  39  41
ATOM     41  O   UNL     1      -1.994   7.944   8.401  1.00  0.00    -0.458 OA
BRANCH  41  42
ATOM     42  C   UNL     1      -1.955   9.392   8.391  1.00  0.00     0.205 CG0
ATOM     43  C   UNL     1      -1.364   9.839   9.726  1.00  0.00     0.056 C 
ATOM     44  G   UNL     1      -3.386   9.920   8.172  1.00  0.00     0.000 G0
ENDBRANCH  41  42
ENDBRANCH  39  41
ENDBRANCH  35  39
ENDBRANCH  33  35
ENDBRANCH  23  31
ENDBRANCH  21  23
ENDBRANCH  19  21
ENDBRANCH  14  19
ENDBRANCH   7  14
ENDBRANCH   2   5
BRANCH   3  45
ATOM     45  C   UNL     1      -3.214  10.798   4.442  1.00  0.00     0.171 C 
BRANCH  45  46
ATOM     46  N   UNL     1      -3.338  10.127   5.729  1.00  0.00    -0.342 N 
ATOM     47  C   UNL     1      -3.391  10.815   6.916  1.00  0.00     0.247 C 
ATOM     48  O   UNL     1      -3.412  12.044   6.975  1.00  0.00    -0.273 OA
ATOM     49  H   UNL     1      -3.381   9.110   5.722  1.00  0.00     0.164 HD
BRANCH  47  50
ATOM     50  C   UNL     1      -3.396   9.937   8.176  1.00  0.00     0.212 CG0
ATOM     51  G   UNL     1      -1.964   9.403   8.378  1.00  0.00     0.000 G0
BRANCH  50  52
ATOM     52  N   UNL     1      -3.844  10.811   9.257  1.00  0.00    -0.339 N 
ATOM     53  C   UNL     1      -5.047  10.658   9.902  1.00  0.00     0.243 C 
ATOM     54  O   UNL     1      -5.867   9.802   9.580  1.00  0.00    -0.273 OA
ATOM     55  H   UNL     1      -3.257  11.608   9.495  1.00  0.00     0.164 HD
BRANCH  53  56
ATOM     56  C   UNL     1      -5.341  11.751  10.949  1.00  0.00     0.182 C 
BRANCH  56  57
ATOM     57  N   UNL     1      -6.764  12.106  10.955  1.00  0.00    -0.344 N 
ATOM     58  C   UNL     1      -7.655  11.561  11.847  1.00  0.00     0.220 C 
ATOM     59  O   UNL     1      -7.340  10.689  12.650  1.00  0.00    -0.275 OA
ATOM     60  H   UNL     1      -7.044  12.895  10.378  1.00  0.00     0.164 HD
BRANCH  58  61
ATOM     61  C   UNL     1      -9.060  12.116  11.709  1.00  0.00     0.100 C 
BRANCH  61  62
ATOM     62  C   UNL     1     -10.094  11.076  11.279  1.00  0.00     0.010 C 
BRANCH  62  63
ATOM     63  C   UNL     1      -9.662  10.219  10.082  1.00  0.00     0.000 C 
BRANCH  63  64
ATOM     64  C   UNL     1      -9.447   8.743  10.414  1.00  0.00    -0.003 C 
ATOM     65  C   UNL     1      -9.087   7.942   9.171  1.00  0.00     0.004 C 
ENDBRANCH  63  64
ENDBRANCH  62  63
ENDBRANCH  61  62
ENDBRANCH  58  61
ENDBRANCH  56  57
BRANCH  56  66
ATOM     66  C   UNL     1      -4.443  12.972  10.752  1.00  0.00     0.157 C 
BRANCH  66  67
ATOM     67  C   UNL     1      -5.092  13.984   9.852  1.00  0.00     0.305 C 
ATOM     68  O   UNL     1      -5.345  15.148  10.122  1.00  0.00    -0.252 OA
BRANCH  67  69
ATOM     69  O   UNL     1      -5.345  13.491   8.625  1.00  0.00    -0.481 OA
ATOM     70  H   UNL     1      -5.415  12.521   8.755  1.00  0.00     0.296 HD
ENDBRANCH  67  69
ENDBRANCH  66  67
ENDBRANCH  56  66
ENDBRANCH  53  56
ENDBRANCH  50  52
ENDBRANCH  47  50
ENDBRANCH  45  46
BRANCH  45  71
ATOM     71  C   UNL     1      -4.038  10.096   3.357  1.00  0.00     0.037 C 
BRANCH  71  72
ATOM     72  C   UNL     1      -5.522  10.012   3.724  1.00  0.00     0.026 C 
BRANCH  72  73
ATOM     73  C   UNL     1      -6.314  11.172   3.124  1.00  0.00     0.146 C 
BRANCH  73  74
ATOM     74  N   UNL     1      -7.041  11.825   4.208  1.00  0.00    -0.254 NA
ATOM     75  C   UNL     1      -8.214  11.391   4.489  1.00  0.00     0.185 C 
ATOM     76  N   UNL     1      -8.907  11.970   5.482  1.00  0.00    -0.370 N 
ATOM     77  N   UNL     1      -8.903  10.388   3.917  1.00  0.00    -0.370 N 
ATOM     78  H   UNL     1      -8.463  12.740   5.962  1.00  0.00     0.159 HD
ATOM     79  H   UNL     1      -9.878  11.783   5.662  1.00  0.00     0.159 HD
ATOM     80  H   UNL     1      -8.504   9.858   3.157  1.00  0.00     0.159 HD
ATOM     81  H   UNL     1      -9.774  10.060   4.300  1.00  0.00     0.159 HD
ENDBRANCH  73  74
ENDBRANCH  72  73
ENDBRANCH  71  72
ENDBRANCH  45  71
ENDBRANCH   3  45
TORSDOF 20
ENDMDL
MODEL 37
REMARK VINA RESULT:    -5.189      7.120     13.129
REMARK INTER + INTRA:         -21.002
REMARK INTER:                 -16.099
REMARK INTRA:                  -4.904
REMARK UNBOUND:                -6.106
REMARK SMILES CCCCCC(=O)N[C@H](CC(=O)O)C(=O)N[C@H]1C(=O)N[C@H](CCCN=C(N)N)C(=O)N[C@@H]2CC[C@H](O)N(C2=O)[C@@H](CC(C)C)C(=O)N(C)[C@@H](Cc2ccccc2)C(=O)N[C@H](C(C)C)C(=O)O[C@@H]1C
REMARK SMILES IDX 30 1 31 2 29 3 32 5 35 6 37 7 34 8 38 9 33 10 39 11 36 12
REMARK SMILES IDX 40 14 41 15 42 16 43 17 44 18 45 19 46 20 47 21 48 22 49 23
REMARK SMILES IDX 50 24 51 25 52 26 56 27 53 28 55 29 54 30 57 31 58 32 59 33
REMARK SMILES IDX 60 35 61 36 62 37 63 38 64 39 65 40 66 41 67 42 68 43 21 45
REMARK SMILES IDX 20 46 18 47 19 48 17 50 16 52 14 53 15 54 9 56 8 57 6 58
REMARK SMILES IDX 7 59 5 61 4 62 3 63 2 64 1 65 10 66 11 67 12 68 13 69 22 71
REMARK SMILES IDX 23 72 24 73 25 74 26 75 27 76 28 77
REMARK H PARENT 31 4 36 13 59 34 20 49 16 55 8 60 13 70 27 78 27 79 28 80
REMARK H PARENT 28 81
REMARK Flexibility Score:  259.900
ROOT
ATOM      1  O   UNL     1      -5.176  11.979  10.083  1.00  0.00    -0.273 OA
ATOM      2  N   UNL     1      -3.218  12.291   8.943  1.00  0.00    -0.343 N 
ATOM      3  C   UNL     1      -4.468  11.735   9.105  1.00  0.00     0.243 C 
ATOM      4  H   UNL     1      -2.670  12.079   8.119  1.00  0.00     0.164 HD
ENDROOT
BRANCH   2   5
ATOM      5  C   UNL     1      -2.627  13.109   9.997  1.00  0.00     0.171 C 
ATOM      6  C   UNL     1      -0.080  14.475  10.229  1.00  0.00     0.214 C 
ATOM      7  N   UNL     1      -0.205  13.119  10.710  1.00  0.00    -0.303 N 
ATOM      8  C   UNL     1      -1.376  15.267  10.317  1.00  0.00     0.057 C 
ATOM      9  C   UNL     1      -1.378  12.392  10.584  1.00  0.00     0.247 C 
ATOM     10  C   UNL     1      -2.463  14.558   9.540  1.00  0.00     0.040 C 
ATOM     11  O   UNL     1      -1.451  11.202  10.920  1.00  0.00    -0.272 OA
BRANCH   6  12
ATOM     12  O   UNL     1       0.372  14.419   8.896  1.00  0.00    -0.373 OA
ATOM     13  H   UNL     1       0.934  13.618   8.817  1.00  0.00     0.213 HD
ENDBRANCH   6  12
BRANCH   7  14
ATOM     14  C   UNL     1       1.023  12.472  11.218  1.00  0.00     0.177 C 
BRANCH  14  15
ATOM     15  C   UNL     1       2.252  12.580  10.295  1.00  0.00     0.038 C 
BRANCH  15  16
ATOM     16  C   UNL     1       2.473  11.518   9.195  1.00  0.00    -0.015 C 
ATOM     17  C   UNL     1       1.458  10.375   9.274  1.00  0.00     0.007 C 
ATOM     18  C   UNL     1       3.880  10.922   9.326  1.00  0.00     0.007 C 
ENDBRANCH  15  16
ENDBRANCH  14  15
BRANCH  14  19
ATOM     19  C   UNL     1       1.058  12.526  12.784  1.00  0.00     0.245 C 
ATOM     20  O   UNL     1       0.979  13.651  13.307  1.00  0.00    -0.272 OA
BRANCH  19  21
ATOM     21  N   UNL     1       1.281  11.423  13.590  1.00  0.00    -0.332 N 
ATOM     22  C   UNL     1       1.873  10.170  13.157  1.00  0.00     0.147 C 
BRANCH  21  23
ATOM     23  C   UNL     1       0.875  11.512  15.019  1.00  0.00     0.178 C 
BRANCH  23  24
ATOM     24  C   UNL     1      -0.610  11.193  15.290  1.00  0.00     0.070 C 
BRANCH  24  25
ATOM     25  C   UNL     1      -1.180  11.643  16.615  1.00  0.00    -0.045 A 
ATOM     26  C   UNL     1      -0.927  12.931  17.105  1.00  0.00     0.004 A 
ATOM     27  C   UNL     1      -1.971  10.770  17.378  1.00  0.00     0.004 A 
ATOM     28  C   UNL     1      -1.444  13.333  18.338  1.00  0.00     0.000 A 
ATOM     29  C   UNL     1      -2.487  11.174  18.610  1.00  0.00     0.000 A 
ATOM     30  C   UNL     1      -2.221  12.455  19.090  1.00  0.00     0.000 A 
ENDBRANCH  24  25
ENDBRANCH  23  24
BRANCH  23  31
ATOM     31  C   UNL     1       1.875  10.818  15.975  1.00  0.00     0.243 C 
ATOM     32  O   UNL     1       1.712   9.693  16.441  1.00  0.00    -0.273 OA
ATOM     33  N   UNL     1       2.890  11.652  16.413  1.00  0.00    -0.341 N 
ATOM     34  H   UNL     1       2.971  12.581  15.993  1.00  0.00     0.164 HD
BRANCH  33  35
ATOM     35  C   UNL     1       3.881  11.245  17.414  1.00  0.00     0.194 C 
BRANCH  35  36
ATOM     36  C   UNL     1       3.729  11.961  18.786  1.00  0.00     0.017 C 
ATOM     37  C   UNL     1       3.879  10.970  19.953  1.00  0.00     0.010 C 
ATOM     38  C   UNL     1       2.377  12.666  18.953  1.00  0.00     0.010 C 
ENDBRANCH  35  36
BRANCH  35  39
ATOM     39  C   UNL     1       5.338  11.322  16.877  1.00  0.00     0.329 C 
ATOM     40  O   UNL     1       5.717  12.126  16.033  1.00  0.00    -0.250 OA
BRANCH  39  41
ATOM     41  O   UNL     1       6.174  10.449  17.516  1.00  0.00    -0.458 OA
BRANCH  41  42
ATOM     42  C   UNL     1       7.570  10.828  17.580  1.00  0.00     0.205 CG0
ATOM     43  C   UNL     1       8.375   9.555  17.830  1.00  0.00     0.056 C 
ATOM     44  G   UNL     1       7.746  11.867  18.705  1.00  0.00     0.000 G0
ENDBRANCH  41  42
ENDBRANCH  39  41
ENDBRANCH  35  39
ENDBRANCH  33  35
ENDBRANCH  23  31
ENDBRANCH  21  23
ENDBRANCH  19  21
ENDBRANCH  14  19
ENDBRANCH   7  14
ENDBRANCH   2   5
BRANCH   3  45
ATOM     45  C   UNL     1      -4.927  10.808   7.971  1.00  0.00     0.171 C 
BRANCH  45  46
ATOM     46  N   UNL     1      -6.361  11.029   7.837  1.00  0.00    -0.342 N 
ATOM     47  C   UNL     1      -6.953  11.305   6.631  1.00  0.00     0.247 C 
ATOM     48  O   UNL     1      -6.332  11.316   5.568  1.00  0.00    -0.273 OA
ATOM     49  H   UNL     1      -6.921  10.973   8.686  1.00  0.00     0.164 HD
BRANCH  47  50
ATOM     50  C   UNL     1      -8.452  11.631   6.703  1.00  0.00     0.212 CG0
ATOM     51  G   UNL     1      -9.115  11.066   5.431  1.00  0.00     0.000 G0
BRANCH  50  52
ATOM     52  N   UNL     1      -8.929  11.001   7.931  1.00  0.00    -0.339 N 
ATOM     53  C   UNL     1      -9.880  11.563   8.749  1.00  0.00     0.243 C 
ATOM     54  O   UNL     1     -10.366  12.670   8.535  1.00  0.00    -0.273 OA
ATOM     55  H   UNL     1      -8.483  10.133   8.222  1.00  0.00     0.164 HD
BRANCH  53  56
ATOM     56  C   UNL     1     -10.160  10.755  10.032  1.00  0.00     0.182 C 
BRANCH  56  57
ATOM     57  N   UNL     1      -9.877   9.331   9.830  1.00  0.00    -0.344 N 
ATOM     58  C   UNL     1      -8.632   8.791  10.044  1.00  0.00     0.220 C 
ATOM     59  O   UNL     1      -7.657   9.470  10.347  1.00  0.00    -0.275 OA
ATOM     60  H   UNL     1     -10.675   8.719   9.680  1.00  0.00     0.164 HD
BRANCH  58  61
ATOM     61  C   UNL     1      -8.583   7.289   9.831  1.00  0.00     0.100 C 
BRANCH  61  62
ATOM     62  C   UNL     1      -8.106   6.507  11.055  1.00  0.00     0.010 C 
BRANCH  62  63
ATOM     63  C   UNL     1      -7.237   5.289  10.722  1.00  0.00     0.000 C 
BRANCH  63  64
ATOM     64  C   UNL     1      -7.669   4.000  11.420  1.00  0.00    -0.003 C 
ATOM     65  C   UNL     1      -7.676   4.164  12.933  1.00  0.00     0.004 C 
ENDBRANCH  63  64
ENDBRANCH  62  63
ENDBRANCH  61  62
ENDBRANCH  58  61
ENDBRANCH  56  57
BRANCH  56  66
ATOM     66  C   UNL     1     -11.579  10.994  10.546  1.00  0.00     0.157 C 
BRANCH  66  67
ATOM     67  C   UNL     1     -11.700  10.631  11.997  1.00  0.00     0.305 C 
ATOM     68  O   UNL     1     -11.849  11.399  12.935  1.00  0.00    -0.252 OA
BRANCH  67  69
ATOM     69  O   UNL     1     -11.681   9.299  12.195  1.00  0.00    -0.481 OA
ATOM     70  H   UNL     1     -10.954   9.151  12.836  1.00  0.00     0.296 HD
ENDBRANCH  67  69
ENDBRANCH  66  67
ENDBRANCH  56  66
ENDBRANCH  53  56
ENDBRANCH  50  52
ENDBRANCH  47  50
ENDBRANCH  45  46
BRANCH  45  71
ATOM     71  C   UNL     1      -4.608   9.349   8.314  1.00  0.00     0.037 C 
BRANCH  71  72
ATOM     72  C   UNL     1      -3.115   9.039   8.182  1.00  0.00     0.026 C 
BRANCH  72  73
ATOM     73  C   UNL     1      -2.609   9.312   6.768  1.00  0.00     0.146 C 
BRANCH  73  74
ATOM     74  N   UNL     1      -1.504  10.261   6.865  1.00  0.00    -0.254 NA
ATOM     75  C   UNL     1      -1.524  11.286   6.094  1.00  0.00     0.185 C 
ATOM     76  N   UNL     1      -0.522  12.177   6.161  1.00  0.00    -0.370 N 
ATOM     77  N   UNL     1      -2.442  11.633   5.175  1.00  0.00    -0.370 N 
ATOM     78  H   UNL     1       0.216  11.987   6.823  1.00  0.00     0.159 HD
ATOM     79  H   UNL     1      -0.397  12.919   5.496  1.00  0.00     0.159 HD
ATOM     80  H   UNL     1      -3.256  11.057   5.018  1.00  0.00     0.159 HD
ATOM     81  H   UNL     1      -2.411  12.525   4.709  1.00  0.00     0.159 HD
ENDBRANCH  73  74
ENDBRANCH  72  73
ENDBRANCH  71  72
ENDBRANCH  45  71
ENDBRANCH   3  45
TORSDOF 20
ENDMDL
MODEL 38
REMARK VINA RESULT:    -5.137      7.141     13.883
REMARK INTER + INTRA:         -20.854
REMARK INTER:                 -13.804
REMARK INTRA:                  -7.050
REMARK UNBOUND:                -6.106
REMARK SMILES CCCCCC(=O)N[C@H](CC(=O)O)C(=O)N[C@H]1C(=O)N[C@H](CCCN=C(N)N)C(=O)N[C@@H]2CC[C@H](O)N(C2=O)[C@@H](CC(C)C)C(=O)N(C)[C@@H](Cc2ccccc2)C(=O)N[C@H](C(C)C)C(=O)O[C@@H]1C
REMARK SMILES IDX 30 1 31 2 29 3 32 5 35 6 37 7 34 8 38 9 33 10 39 11 36 12
REMARK SMILES IDX 40 14 41 15 42 16 43 17 44 18 45 19 46 20 47 21 48 22 49 23
REMARK SMILES IDX 50 24 51 25 52 26 56 27 53 28 55 29 54 30 57 31 58 32 59 33
REMARK SMILES IDX 60 35 61 36 62 37 63 38 64 39 65 40 66 41 67 42 68 43 21 45
REMARK SMILES IDX 20 46 18 47 19 48 17 50 16 52 14 53 15 54 9 56 8 57 6 58
REMARK SMILES IDX 7 59 5 61 4 62 3 63 2 64 1 65 10 66 11 67 12 68 13 69 22 71
REMARK SMILES IDX 23 72 24 73 25 74 26 75 27 76 28 77
REMARK H PARENT 31 4 36 13 59 34 20 49 16 55 8 60 13 70 27 78 27 79 28 80
REMARK H PARENT 28 81
REMARK Flexibility Score:  259.900
ROOT
ATOM      1  O   UNL     1      -2.089   8.085   5.762  1.00  0.00    -0.273 OA
ATOM      2  N   UNL     1      -2.322   9.946   7.071  1.00  0.00    -0.343 N 
ATOM      3  C   UNL     1      -2.068   8.605   6.878  1.00  0.00     0.243 C 
ATOM      4  H   UNL     1      -2.281  10.342   8.002  1.00  0.00     0.164 HD
ENDROOT
BRANCH   2   5
ATOM      5  C   UNL     1      -2.747  10.789   5.959  1.00  0.00     0.171 C 
ATOM      6  C   UNL     1      -3.013  10.300   3.114  1.00  0.00     0.214 C 
ATOM      7  N   UNL     1      -1.766  10.812   3.633  1.00  0.00    -0.303 N 
ATOM      8  C   UNL     1      -4.225  10.730   3.926  1.00  0.00     0.057 C 
ATOM      9  C   UNL     1      -1.555  11.020   4.987  1.00  0.00     0.247 C 
ATOM     10  C   UNL     1      -4.062  10.288   5.364  1.00  0.00     0.040 C 
ATOM     11  O   UNL     1      -0.456  11.376   5.432  1.00  0.00    -0.272 OA
BRANCH   6  12
ATOM     12  O   UNL     1      -2.919   8.895   3.077  1.00  0.00    -0.373 OA
ATOM     13  H   UNL     1      -1.991   8.675   2.847  1.00  0.00     0.213 HD
ENDBRANCH   6  12
BRANCH   7  14
ATOM     14  C   UNL     1      -0.655  10.972   2.672  1.00  0.00     0.177 C 
BRANCH  14  15
ATOM     15  C   UNL     1      -0.274  12.429   2.346  1.00  0.00     0.038 C 
BRANCH  15  16
ATOM     16  C   UNL     1      -0.456  12.960   0.907  1.00  0.00    -0.015 C 
ATOM     17  C   UNL     1      -1.278  12.009   0.033  1.00  0.00     0.007 C 
ATOM     18  C   UNL     1       0.916  13.153   0.248  1.00  0.00     0.007 C 
ENDBRANCH  15  16
ENDBRANCH  14  15
BRANCH  14  19
ATOM     19  C   UNL     1       0.353   9.779   2.802  1.00  0.00     0.245 C 
ATOM     20  O   UNL     1      -0.100   8.710   3.247  1.00  0.00    -0.272 OA
BRANCH  19  21
ATOM     21  N   UNL     1       1.711   9.886   2.560  1.00  0.00    -0.332 N 
ATOM     22  C   UNL     1       2.584  10.914   3.098  1.00  0.00     0.147 C 
BRANCH  21  23
ATOM     23  C   UNL     1       2.340   8.876   1.665  1.00  0.00     0.178 C 
BRANCH  23  24
ATOM     24  C   UNL     1       3.006   9.458   0.401  1.00  0.00     0.070 C 
BRANCH  24  25
ATOM     25  C   UNL     1       2.112   9.721  -0.788  1.00  0.00    -0.045 A 
ATOM     26  C   UNL     1       0.948   8.968  -0.992  1.00  0.00     0.004 A 
ATOM     27  C   UNL     1       2.440  10.724  -1.712  1.00  0.00     0.004 A 
ATOM     28  C   UNL     1       0.137   9.205  -2.103  1.00  0.00     0.000 A 
ATOM     29  C   UNL     1       1.628  10.961  -2.822  1.00  0.00     0.000 A 
ATOM     30  C   UNL     1       0.478  10.199  -3.018  1.00  0.00     0.000 A 
ENDBRANCH  24  25
ENDBRANCH  23  24
BRANCH  23  31
ATOM     31  C   UNL     1       3.194   7.839   2.432  1.00  0.00     0.243 C 
ATOM     32  O   UNL     1       4.376   8.004   2.725  1.00  0.00    -0.273 OA
ATOM     33  N   UNL     1       2.562   6.618   2.602  1.00  0.00    -0.341 N 
ATOM     34  H   UNL     1       1.578   6.540   2.333  1.00  0.00     0.164 HD
BRANCH  33  35
ATOM     35  C   UNL     1       3.223   5.452   3.194  1.00  0.00     0.194 C 
BRANCH  35  36
ATOM     36  C   UNL     1       2.742   4.090   2.620  1.00  0.00     0.017 C 
ATOM     37  C   UNL     1       3.582   3.668   1.402  1.00  0.00     0.010 C 
ATOM     38  C   UNL     1       1.272   4.104   2.181  1.00  0.00     0.010 C 
ENDBRANCH  35  36
BRANCH  35  39
ATOM     39  C   UNL     1       3.189   5.471   4.748  1.00  0.00     0.329 C 
ATOM     40  O   UNL     1       3.940   6.145   5.443  1.00  0.00    -0.250 OA
BRANCH  39  41
ATOM     41  O   UNL     1       2.167   4.716   5.255  1.00  0.00    -0.458 OA
BRANCH  41  42
ATOM     42  C   UNL     1       1.955   4.802   6.685  1.00  0.00     0.205 CG0
ATOM     43  C   UNL     1       2.615   3.578   7.316  1.00  0.00     0.056 C 
ATOM     44  G   UNL     1       0.438   4.860   6.954  1.00  0.00     0.000 G0
ENDBRANCH  41  42
ENDBRANCH  39  41
ENDBRANCH  35  39
ENDBRANCH  33  35
ENDBRANCH  23  31
ENDBRANCH  21  23
ENDBRANCH  19  21
ENDBRANCH  14  19
ENDBRANCH   7  14
ENDBRANCH   2   5
BRANCH   3  45
ATOM     45  C   UNL     1      -1.737   7.809   8.148  1.00  0.00     0.171 C 
BRANCH  45  46
ATOM     46  N   UNL     1      -1.246   6.517   7.686  1.00  0.00    -0.342 N 
ATOM     47  C   UNL     1       0.092   6.228   7.594  1.00  0.00     0.247 C 
ATOM     48  O   UNL     1       0.971   7.008   7.961  1.00  0.00    -0.273 OA
ATOM     49  H   UNL     1      -1.942   5.821   7.425  1.00  0.00     0.164 HD
BRANCH  47  50
ATOM     50  C   UNL     1       0.421   4.864   6.970  1.00  0.00     0.212 CG0
ATOM     51  G   UNL     1       1.937   4.831   6.691  1.00  0.00     0.000 G0
BRANCH  50  52
ATOM     52  N   UNL     1      -0.007   3.873   7.953  1.00  0.00    -0.339 N 
ATOM     53  C   UNL     1      -1.252   3.293   7.949  1.00  0.00     0.243 C 
ATOM     54  O   UNL     1      -2.125   3.605   7.144  1.00  0.00    -0.273 OA
ATOM     55  H   UNL     1       0.633   3.654   8.714  1.00  0.00     0.164 HD
BRANCH  53  56
ATOM     56  C   UNL     1      -1.505   2.341   9.135  1.00  0.00     0.182 C 
BRANCH  56  57
ATOM     57  N   UNL     1      -1.863   3.089  10.344  1.00  0.00    -0.344 N 
ATOM     58  C   UNL     1      -2.805   2.639  11.237  1.00  0.00     0.220 C 
ATOM     59  O   UNL     1      -3.463   1.621  11.050  1.00  0.00    -0.275 OA
ATOM     60  H   UNL     1      -1.274   3.881  10.587  1.00  0.00     0.164 HD
BRANCH  58  61
ATOM     61  C   UNL     1      -2.972   3.544  12.443  1.00  0.00     0.100 C 
BRANCH  61  62
ATOM     62  C   UNL     1      -4.230   4.411  12.394  1.00  0.00     0.010 C 
BRANCH  62  63
ATOM     63  C   UNL     1      -5.524   3.626  12.144  1.00  0.00     0.000 C 
BRANCH  63  64
ATOM     64  C   UNL     1      -6.167   3.058  13.409  1.00  0.00    -0.003 C 
ATOM     65  C   UNL     1      -5.868   1.574  13.565  1.00  0.00     0.004 C 
ENDBRANCH  63  64
ENDBRANCH  62  63
ENDBRANCH  61  62
ENDBRANCH  58  61
ENDBRANCH  56  57
BRANCH  56  66
ATOM     66  C   UNL     1      -0.319   1.406   9.366  1.00  0.00     0.157 C 
BRANCH  66  67
ATOM     67  C   UNL     1       0.367   1.709  10.667  1.00  0.00     0.305 C 
ATOM     68  O   UNL     1       0.260   1.089  11.714  1.00  0.00    -0.252 OA
BRANCH  67  69
ATOM     69  O   UNL     1       1.204   2.760  10.572  1.00  0.00    -0.481 OA
ATOM     70  H   UNL     1       0.779   3.468  11.100  1.00  0.00     0.296 HD
ENDBRANCH  67  69
ENDBRANCH  66  67
ENDBRANCH  56  66
ENDBRANCH  53  56
ENDBRANCH  50  52
ENDBRANCH  47  50
ENDBRANCH  45  46
BRANCH  45  71
ATOM     71  C   UNL     1      -2.985   7.660   9.025  1.00  0.00     0.037 C 
BRANCH  71  72
ATOM     72  C   UNL     1      -2.819   6.563  10.080  1.00  0.00     0.026 C 
BRANCH  72  73
ATOM     73  C   UNL     1      -1.779   6.949  11.130  1.00  0.00     0.146 C 
BRANCH  73  74
ATOM     74  N   UNL     1      -0.677   5.996  11.039  1.00  0.00    -0.254 NA
ATOM     75  C   UNL     1       0.518   6.461  11.018  1.00  0.00     0.185 C 
ATOM     76  N   UNL     1       1.552   5.609  10.936  1.00  0.00    -0.370 N 
ATOM     77  N   UNL     1       0.927   7.741  11.070  1.00  0.00    -0.370 N 
ATOM     78  H   UNL     1       1.332   4.625  10.885  1.00  0.00     0.159 HD
ATOM     79  H   UNL     1       2.499   5.903  10.770  1.00  0.00     0.159 HD
ATOM     80  H   UNL     1       0.257   8.492  11.138  1.00  0.00     0.159 HD
ATOM     81  H   UNL     1       1.900   7.981  11.164  1.00  0.00     0.159 HD
ENDBRANCH  73  74
ENDBRANCH  72  73
ENDBRANCH  71  72
ENDBRANCH  45  71
ENDBRANCH   3  45
TORSDOF 20
ENDMDL
MODEL 39
REMARK VINA RESULT:    -5.129      5.413     13.967
REMARK INTER + INTRA:         -20.829
REMARK INTER:                 -15.309
REMARK INTRA:                  -5.521
REMARK UNBOUND:                -6.106
REMARK SMILES CCCCCC(=O)N[C@H](CC(=O)O)C(=O)N[C@H]1C(=O)N[C@H](CCCN=C(N)N)C(=O)N[C@@H]2CC[C@H](O)N(C2=O)[C@@H](CC(C)C)C(=O)N(C)[C@@H](Cc2ccccc2)C(=O)N[C@H](C(C)C)C(=O)O[C@@H]1C
REMARK SMILES IDX 30 1 31 2 29 3 32 5 35 6 37 7 34 8 38 9 33 10 39 11 36 12
REMARK SMILES IDX 40 14 41 15 42 16 43 17 44 18 45 19 46 20 47 21 48 22 49 23
REMARK SMILES IDX 50 24 51 25 52 26 56 27 53 28 55 29 54 30 57 31 58 32 59 33
REMARK SMILES IDX 60 35 61 36 62 37 63 38 64 39 65 40 66 41 67 42 68 43 21 45
REMARK SMILES IDX 20 46 18 47 19 48 17 50 16 52 14 53 15 54 9 56 8 57 6 58
REMARK SMILES IDX 7 59 5 61 4 62 3 63 2 64 1 65 10 66 11 67 12 68 13 69 22 71
REMARK SMILES IDX 23 72 24 73 25 74 26 75 27 76 28 77
REMARK H PARENT 31 4 36 13 59 34 20 49 16 55 8 60 13 70 27 78 27 79 28 80
REMARK H PARENT 28 81
REMARK Flexibility Score:  259.900
ROOT
ATOM      1  O   UNL     1      -5.400   9.489   9.877  1.00  0.00    -0.273 OA
ATOM      2  N   UNL     1      -3.495  10.579   9.232  1.00  0.00    -0.343 N 
ATOM      3  C   UNL     1      -4.841  10.529   9.525  1.00  0.00     0.243 C 
ATOM      4  H   UNL     1      -3.066  11.455   8.960  1.00  0.00     0.164 HD
ENDROOT
BRANCH   2   5
ATOM      5  C   UNL     1      -2.694   9.360   9.211  1.00  0.00     0.171 C 
ATOM      6  C   UNL     1       0.027   8.812   8.376  1.00  0.00     0.214 C 
ATOM      7  N   UNL     1      -1.049   8.675   7.423  1.00  0.00    -0.303 N 
ATOM      8  C   UNL     1      -0.397   8.529   9.808  1.00  0.00     0.057 C 
ATOM      9  C   UNL     1      -2.365   8.969   7.742  1.00  0.00     0.247 C 
ATOM     10  C   UNL     1      -1.531   9.452  10.198  1.00  0.00     0.040 C 
ATOM     11  O   UNL     1      -3.269   8.933   6.897  1.00  0.00    -0.272 OA
BRANCH   6  12
ATOM     12  O   UNL     1       0.538  10.120   8.262  1.00  0.00    -0.373 OA
ATOM     13  H   UNL     1      -0.048  10.605   7.642  1.00  0.00     0.213 HD
ENDBRANCH   6  12
BRANCH   7  14
ATOM     14  C   UNL     1      -0.676   8.343   6.032  1.00  0.00     0.177 C 
BRANCH  14  15
ATOM     15  C   UNL     1      -0.822   9.497   5.020  1.00  0.00     0.038 C 
BRANCH  15  16
ATOM     16  C   UNL     1      -0.402  10.926   5.430  1.00  0.00    -0.015 C 
ATOM     17  C   UNL     1      -1.605  11.828   5.720  1.00  0.00     0.007 C 
ATOM     18  C   UNL     1       0.419  11.568   4.305  1.00  0.00     0.007 C 
ENDBRANCH  15  16
ENDBRANCH  14  15
BRANCH  14  19
ATOM     19  C   UNL     1       0.460   7.263   6.016  1.00  0.00     0.245 C 
ATOM     20  O   UNL     1       0.186   6.157   6.511  1.00  0.00    -0.272 OA
BRANCH  19  21
ATOM     21  N   UNL     1       1.754   7.510   5.593  1.00  0.00    -0.332 N 
ATOM     22  C   UNL     1       2.440   8.787   5.680  1.00  0.00     0.147 C 
BRANCH  21  23
ATOM     23  C   UNL     1       2.514   6.383   4.986  1.00  0.00     0.178 C 
BRANCH  23  24
ATOM     24  C   UNL     1       2.610   6.423   3.447  1.00  0.00     0.070 C 
BRANCH  24  25
ATOM     25  C   UNL     1       2.380   5.125   2.709  1.00  0.00    -0.045 A 
ATOM     26  C   UNL     1       3.424   4.500   2.015  1.00  0.00     0.004 A 
ATOM     27  C   UNL     1       1.110   4.529   2.704  1.00  0.00     0.004 A 
ATOM     28  C   UNL     1       3.199   3.309   1.321  1.00  0.00     0.000 A 
ATOM     29  C   UNL     1       0.887   3.339   2.011  1.00  0.00     0.000 A 
ATOM     30  C   UNL     1       1.931   2.731   1.317  1.00  0.00     0.000 A 
ENDBRANCH  24  25
ENDBRANCH  23  24
BRANCH  23  31
ATOM     31  C   UNL     1       3.849   6.093   5.714  1.00  0.00     0.243 C 
ATOM     32  O   UNL     1       3.943   5.902   6.924  1.00  0.00    -0.273 OA
ATOM     33  N   UNL     1       4.964   6.251   4.909  1.00  0.00    -0.341 N 
ATOM     34  H   UNL     1       4.821   6.415   3.910  1.00  0.00     0.164 HD
BRANCH  33  35
ATOM     35  C   UNL     1       6.335   6.145   5.414  1.00  0.00     0.194 C 
BRANCH  35  36
ATOM     36  C   UNL     1       7.018   7.514   5.691  1.00  0.00     0.017 C 
ATOM     37  C   UNL     1       7.095   7.806   7.199  1.00  0.00     0.010 C 
ATOM     38  C   UNL     1       6.295   8.694   5.031  1.00  0.00     0.010 C 
ENDBRANCH  35  36
BRANCH  35  39
ATOM     39  C   UNL     1       7.225   5.219   4.538  1.00  0.00     0.329 C 
ATOM     40  O   UNL     1       6.935   4.064   4.247  1.00  0.00    -0.250 OA
BRANCH  39  41
ATOM     41  O   UNL     1       8.329   5.865   4.055  1.00  0.00    -0.458 OA
BRANCH  41  42
ATOM     42  C   UNL     1       9.562   5.105   4.042  1.00  0.00     0.205 CG0
ATOM     43  C   UNL     1      10.257   5.346   5.381  1.00  0.00     0.056 C 
ATOM     44  G   UNL     1      10.413   5.569   2.844  1.00  0.00     0.000 G0
ENDBRANCH  41  42
ENDBRANCH  39  41
ENDBRANCH  35  39
ENDBRANCH  33  35
ENDBRANCH  23  31
ENDBRANCH  21  23
ENDBRANCH  19  21
ENDBRANCH  14  19
ENDBRANCH   7  14
ENDBRANCH   2   5
BRANCH   3  45
ATOM     45  C   UNL     1      -5.590  11.863   9.405  1.00  0.00     0.171 C 
BRANCH  45  46
ATOM     46  N   UNL     1      -6.611  11.650   8.388  1.00  0.00    -0.342 N 
ATOM     47  C   UNL     1      -7.946  11.859   8.630  1.00  0.00     0.247 C 
ATOM     48  O   UNL     1      -8.370  12.308   9.695  1.00  0.00    -0.273 OA
ATOM     49  H   UNL     1      -6.298  11.332   7.473  1.00  0.00     0.164 HD
BRANCH  47  50
ATOM     50  C   UNL     1      -8.884  11.464   7.481  1.00  0.00     0.212 CG0
ATOM     51  G   UNL     1     -10.169  12.305   7.617  1.00  0.00     0.000 G0
BRANCH  50  52
ATOM     52  N   UNL     1      -8.139  11.742   6.256  1.00  0.00    -0.339 N 
ATOM     53  C   UNL     1      -8.555  11.339   5.010  1.00  0.00     0.243 C 
ATOM     54  O   UNL     1      -9.565  10.663   4.836  1.00  0.00    -0.273 OA
ATOM     55  H   UNL     1      -7.236  12.203   6.346  1.00  0.00     0.164 HD
BRANCH  53  56
ATOM     56  C   UNL     1      -7.561  11.672   3.879  1.00  0.00     0.182 C 
BRANCH  56  57
ATOM     57  N   UNL     1      -8.264  12.157   2.687  1.00  0.00    -0.344 N 
ATOM     58  C   UNL     1      -8.452  13.494   2.436  1.00  0.00     0.220 C 
ATOM     59  O   UNL     1      -8.112  14.371   3.223  1.00  0.00    -0.275 OA
ATOM     60  H   UNL     1      -8.470  11.472   1.964  1.00  0.00     0.164 HD
BRANCH  58  61
ATOM     61  C   UNL     1      -9.151  13.766   1.117  1.00  0.00     0.100 C 
BRANCH  61  62
ATOM     62  C   UNL     1      -8.530  14.910   0.315  1.00  0.00     0.010 C 
BRANCH  62  63
ATOM     63  C   UNL     1      -8.459  14.650  -1.195  1.00  0.00     0.000 C 
BRANCH  63  64
ATOM     64  C   UNL     1      -7.306  13.742  -1.621  1.00  0.00    -0.003 C 
ATOM     65  C   UNL     1      -7.362  13.435  -3.111  1.00  0.00     0.004 C 
ENDBRANCH  63  64
ENDBRANCH  62  63
ENDBRANCH  61  62
ENDBRANCH  58  61
ENDBRANCH  56  57
BRANCH  56  66
ATOM     66  C   UNL     1      -6.648  10.487   3.568  1.00  0.00     0.157 C 
BRANCH  66  67
ATOM     67  C   UNL     1      -5.309  10.643   4.229  1.00  0.00     0.305 C 
ATOM     68  O   UNL     1      -4.233  10.809   3.675  1.00  0.00    -0.252 OA
BRANCH  67  69
ATOM     69  O   UNL     1      -5.398  10.636   5.573  1.00  0.00    -0.481 OA
ATOM     70  H   UNL     1      -4.546  11.010   5.882  1.00  0.00     0.296 HD
ENDBRANCH  67  69
ENDBRANCH  66  67
ENDBRANCH  56  66
ENDBRANCH  53  56
ENDBRANCH  50  52
ENDBRANCH  47  50
ENDBRANCH  45  46
BRANCH  45  71
ATOM     71  C   UNL     1      -4.623  12.984   9.009  1.00  0.00     0.037 C 
BRANCH  71  72
ATOM     72  C   UNL     1      -4.383  13.969  10.157  1.00  0.00     0.026 C 
BRANCH  72  73
ATOM     73  C   UNL     1      -3.103  14.775   9.945  1.00  0.00     0.146 C 
BRANCH  73  74
ATOM     74  N   UNL     1      -2.192  13.964   9.143  1.00  0.00    -0.254 NA
ATOM     75  C   UNL     1      -1.160  13.472   9.723  1.00  0.00     0.185 C 
ATOM     76  N   UNL     1      -0.303  12.721   9.012  1.00  0.00    -0.370 N 
ATOM     77  N   UNL     1      -0.772  13.594  11.005  1.00  0.00    -0.370 N 
ATOM     78  H   UNL     1      -0.517  12.585   8.034  1.00  0.00     0.159 HD
ATOM     79  H   UNL     1       0.593  12.426   9.357  1.00  0.00     0.159 HD
ATOM     80  H   UNL     1      -1.323  14.129  11.659  1.00  0.00     0.159 HD
ATOM     81  H   UNL     1      -0.000  13.065  11.376  1.00  0.00     0.159 HD
ENDBRANCH  73  74
ENDBRANCH  72  73
ENDBRANCH  71  72
ENDBRANCH  45  71
ENDBRANCH   3  45
TORSDOF 20
ENDMDL
MODEL 40
REMARK VINA RESULT:    -5.125      6.188     15.713
REMARK INTER + INTRA:         -20.819
REMARK INTER:                 -16.957
REMARK INTRA:                  -3.862
REMARK UNBOUND:                -6.106
REMARK SMILES CCCCCC(=O)N[C@H](CC(=O)O)C(=O)N[C@H]1C(=O)N[C@H](CCCN=C(N)N)C(=O)N[C@@H]2CC[C@H](O)N(C2=O)[C@@H](CC(C)C)C(=O)N(C)[C@@H](Cc2ccccc2)C(=O)N[C@H](C(C)C)C(=O)O[C@@H]1C
REMARK SMILES IDX 30 1 31 2 29 3 32 5 35 6 37 7 34 8 38 9 33 10 39 11 36 12
REMARK SMILES IDX 40 14 41 15 42 16 43 17 44 18 45 19 46 20 47 21 48 22 49 23
REMARK SMILES IDX 50 24 51 25 52 26 56 27 53 28 55 29 54 30 57 31 58 32 59 33
REMARK SMILES IDX 60 35 61 36 62 37 63 38 64 39 65 40 66 41 67 42 68 43 21 45
REMARK SMILES IDX 20 46 18 47 19 48 17 50 16 52 14 53 15 54 9 56 8 57 6 58
REMARK SMILES IDX 7 59 5 61 4 62 3 63 2 64 1 65 10 66 11 67 12 68 13 69 22 71
REMARK SMILES IDX 23 72 24 73 25 74 26 75 27 76 28 77
REMARK H PARENT 31 4 36 13 59 34 20 49 16 55 8 60 13 70 27 78 27 79 28 80
REMARK H PARENT 28 81
REMARK Flexibility Score:  259.900
ROOT
ATOM      1  O   UNL     1      -0.200   7.314   6.766  1.00  0.00    -0.273 OA
ATOM      2  N   UNL     1      -0.575   9.497   6.194  1.00  0.00    -0.343 N 
ATOM      3  C   UNL     1      -0.831   8.359   6.929  1.00  0.00     0.243 C 
ATOM      4  H   UNL     1      -1.104  10.343   6.366  1.00  0.00     0.164 HD
ENDROOT
BRANCH   2   5
ATOM      5  C   UNL     1       0.388   9.472   5.098  1.00  0.00     0.171 C 
ATOM      6  C   UNL     1       1.367  11.522   3.297  1.00  0.00     0.214 C 
ATOM      7  N   UNL     1       0.215  10.737   2.920  1.00  0.00    -0.303 N 
ATOM      8  C   UNL     1       2.341  10.770   4.191  1.00  0.00     0.057 C 
ATOM      9  C   UNL     1      -0.335   9.777   3.755  1.00  0.00     0.247 C 
ATOM     10  C   UNL     1       1.629  10.295   5.439  1.00  0.00     0.040 C 
ATOM     11  O   UNL     1      -1.373   9.170   3.461  1.00  0.00    -0.272 OA
BRANCH   6  12
ATOM     12  O   UNL     1       0.903  12.685   3.942  1.00  0.00    -0.373 OA
ATOM     13  H   UNL     1       1.237  12.654   4.865  1.00  0.00     0.213 HD
ENDBRANCH   6  12
BRANCH   7  14
ATOM     14  C   UNL     1      -0.457  11.098   1.654  1.00  0.00     0.177 C 
BRANCH  14  15
ATOM     15  C   UNL     1      -1.745  11.930   1.809  1.00  0.00     0.038 C 
BRANCH  15  16
ATOM     16  C   UNL     1      -2.887  11.765   0.782  1.00  0.00    -0.015 C 
ATOM     17  C   UNL     1      -3.942  10.753   1.239  1.00  0.00     0.007 C 
ATOM     18  C   UNL     1      -2.313  11.288  -0.559  1.00  0.00     0.007 C 
ENDBRANCH  15  16
ENDBRANCH  14  15
BRANCH  14  19
ATOM     19  C   UNL     1       0.598  11.265   0.507  1.00  0.00     0.245 C 
ATOM     20  O   UNL     1       0.816  12.423   0.112  1.00  0.00    -0.272 OA
BRANCH  19  21
ATOM     21  N   UNL     1       1.198  10.206  -0.149  1.00  0.00    -0.332 N 
ATOM     22  C   UNL     1       1.267   8.841   0.342  1.00  0.00     0.147 C 
BRANCH  21  23
ATOM     23  C   UNL     1       1.841  10.476  -1.465  1.00  0.00     0.178 C 
BRANCH  23  24
ATOM     24  C   UNL     1       0.866  10.888  -2.587  1.00  0.00     0.070 C 
BRANCH  24  25
ATOM     25  C   UNL     1       1.140  10.345  -3.970  1.00  0.00    -0.045 A 
ATOM     26  C   UNL     1       0.654  11.001  -5.108  1.00  0.00     0.004 A 
ATOM     27  C   UNL     1       1.884   9.166  -4.133  1.00  0.00     0.004 A 
ATOM     28  C   UNL     1       0.897  10.484  -6.382  1.00  0.00     0.000 A 
ATOM     29  C   UNL     1       2.127   8.651  -5.407  1.00  0.00     0.000 A 
ATOM     30  C   UNL     1       1.630   9.309  -6.531  1.00  0.00     0.000 A 
ENDBRANCH  24  25
ENDBRANCH  23  24
BRANCH  23  31
ATOM     31  C   UNL     1       3.109  11.354  -1.348  1.00  0.00     0.243 C 
ATOM     32  O   UNL     1       4.156  10.983  -0.824  1.00  0.00    -0.273 OA
ATOM     33  N   UNL     1       2.906  12.672  -1.723  1.00  0.00    -0.341 N 
ATOM     34  H   UNL     1       2.010  12.922  -2.149  1.00  0.00     0.164 HD
BRANCH  33  35
ATOM     35  C   UNL     1       3.931  13.709  -1.584  1.00  0.00     0.194 C 
BRANCH  35  36
ATOM     36  C   UNL     1       3.506  14.906  -0.687  1.00  0.00     0.017 C 
ATOM     37  C   UNL     1       4.393  16.137  -0.939  1.00  0.00     0.010 C 
ATOM     38  C   UNL     1       3.575  14.590   0.813  1.00  0.00     0.010 C 
ENDBRANCH  35  36
BRANCH  35  39
ATOM     39  C   UNL     1       4.492  14.183  -2.954  1.00  0.00     0.329 C 
ATOM     40  O   UNL     1       3.794  14.531  -3.899  1.00  0.00    -0.250 OA
BRANCH  39  41
ATOM     41  O   UNL     1       5.858  14.250  -2.961  1.00  0.00    -0.458 OA
BRANCH  41  42
ATOM     42  C   UNL     1       6.477  14.588  -4.226  1.00  0.00     0.205 CG0
ATOM     43  C   UNL     1       7.788  13.810  -4.312  1.00  0.00     0.056 C 
ATOM     44  G   UNL     1       6.693  16.114  -4.275  1.00  0.00     0.000 G0
ENDBRANCH  41  42
ENDBRANCH  39  41
ENDBRANCH  35  39
ENDBRANCH  33  35
ENDBRANCH  23  31
ENDBRANCH  21  23
ENDBRANCH  19  21
ENDBRANCH  14  19
ENDBRANCH   7  14
ENDBRANCH   2   5
BRANCH   3  45
ATOM     45  C   UNL     1      -1.942   8.491   7.978  1.00  0.00     0.171 C 
BRANCH  45  46
ATOM     46  N   UNL     1      -1.705   7.422   8.940  1.00  0.00    -0.342 N 
ATOM     47  C   UNL     1      -2.134   7.494  10.241  1.00  0.00     0.247 C 
ATOM     48  O   UNL     1      -2.811   8.429  10.671  1.00  0.00    -0.273 OA
ATOM     49  H   UNL     1      -1.197   6.604   8.610  1.00  0.00     0.164 HD
BRANCH  47  50
ATOM     50  C   UNL     1      -1.685   6.332  11.138  1.00  0.00     0.212 CG0
ATOM     51  G   UNL     1      -2.596   6.323  12.382  1.00  0.00     0.000 G0
BRANCH  50  52
ATOM     52  N   UNL     1      -1.819   5.132  10.317  1.00  0.00    -0.339 N 
ATOM     53  C   UNL     1      -0.882   4.127  10.289  1.00  0.00     0.243 C 
ATOM     54  O   UNL     1       0.171   4.187  10.917  1.00  0.00    -0.273 OA
ATOM     55  H   UNL     1      -2.618   5.075   9.689  1.00  0.00     0.164 HD
BRANCH  53  56
ATOM     56  C   UNL     1      -1.198   3.002   9.282  1.00  0.00     0.182 C 
BRANCH  56  57
ATOM     57  N   UNL     1      -1.572   1.765   9.975  1.00  0.00    -0.344 N 
ATOM     58  C   UNL     1      -2.807   1.588  10.550  1.00  0.00     0.220 C 
ATOM     59  O   UNL     1      -3.654   2.475  10.589  1.00  0.00    -0.275 OA
ATOM     60  H   UNL     1      -0.942   0.974   9.878  1.00  0.00     0.164 HD
BRANCH  58  61
ATOM     61  C   UNL     1      -2.995   0.211  11.160  1.00  0.00     0.100 C 
BRANCH  61  62
ATOM     62  C   UNL     1      -3.247  -0.889  10.129  1.00  0.00     0.010 C 
BRANCH  62  63
ATOM     63  C   UNL     1      -4.727  -1.247   9.942  1.00  0.00     0.000 C 
BRANCH  63  64
ATOM     64  C   UNL     1      -5.422  -1.722  11.217  1.00  0.00    -0.003 C 
ATOM     65  C   UNL     1      -4.801  -3.008  11.742  1.00  0.00     0.004 C 
ENDBRANCH  63  64
ENDBRANCH  62  63
ENDBRANCH  61  62
ENDBRANCH  58  61
ENDBRANCH  56  57
BRANCH  56  66
ATOM     66  C   UNL     1      -0.046   2.788   8.302  1.00  0.00     0.157 C 
BRANCH  66  67
ATOM     67  C   UNL     1       0.763   1.577   8.669  1.00  0.00     0.305 C 
ATOM     68  O   UNL     1       0.805   0.515   8.068  1.00  0.00    -0.252 OA
BRANCH  67  69
ATOM     69  O   UNL     1       1.527   1.784   9.758  1.00  0.00    -0.481 OA
ATOM     70  H   UNL     1       1.848   0.892  10.011  1.00  0.00     0.296 HD
ENDBRANCH  67  69
ENDBRANCH  66  67
ENDBRANCH  56  66
ENDBRANCH  53  56
ENDBRANCH  50  52
ENDBRANCH  47  50
ENDBRANCH  45  46
BRANCH  45  71
ATOM     71  C   UNL     1      -3.319   8.362   7.317  1.00  0.00     0.037 C 
BRANCH  71  72
ATOM     72  C   UNL     1      -3.985   9.724   7.103  1.00  0.00     0.026 C 
BRANCH  72  73
ATOM     73  C   UNL     1      -4.052  10.525   8.402  1.00  0.00     0.146 C 
BRANCH  73  74
ATOM     74  N   UNL     1      -3.278  11.748   8.213  1.00  0.00    -0.254 NA
ATOM     75  C   UNL     1      -3.921  12.848   8.069  1.00  0.00     0.185 C 
ATOM     76  N   UNL     1      -3.237  13.990   7.894  1.00  0.00    -0.370 N 
ATOM     77  N   UNL     1      -5.249  13.055   8.065  1.00  0.00    -0.370 N 
ATOM     78  H   UNL     1      -2.229  13.922   7.877  1.00  0.00     0.159 HD
ATOM     79  H   UNL     1      -3.668  14.859   7.632  1.00  0.00     0.159 HD
ATOM     80  H   UNL     1      -5.890  12.286   8.190  1.00  0.00     0.159 HD
ATOM     81  H   UNL     1      -5.639  13.984   8.059  1.00  0.00     0.159 HD
ENDBRANCH  73  74
ENDBRANCH  72  73
ENDBRANCH  71  72
ENDBRANCH  45  71
ENDBRANCH   3  45
TORSDOF 20
ENDMDL
MODEL 41
REMARK VINA RESULT:    -5.124      5.717     14.043
REMARK INTER + INTRA:         -20.816
REMARK INTER:                 -15.680
REMARK INTRA:                  -5.136
REMARK UNBOUND:                -6.106
REMARK SMILES CCCCCC(=O)N[C@H](CC(=O)O)C(=O)N[C@H]1C(=O)N[C@H](CCCN=C(N)N)C(=O)N[C@@H]2CC[C@H](O)N(C2=O)[C@@H](CC(C)C)C(=O)N(C)[C@@H](Cc2ccccc2)C(=O)N[C@H](C(C)C)C(=O)O[C@@H]1C
REMARK SMILES IDX 30 1 31 2 29 3 32 5 35 6 37 7 34 8 38 9 33 10 39 11 36 12
REMARK SMILES IDX 40 14 41 15 42 16 43 17 44 18 45 19 46 20 47 21 48 22 49 23
REMARK SMILES IDX 50 24 51 25 52 26 56 27 53 28 55 29 54 30 57 31 58 32 59 33
REMARK SMILES IDX 60 35 61 36 62 37 63 38 64 39 65 40 66 41 67 42 68 43 21 45
REMARK SMILES IDX 20 46 18 47 19 48 17 50 16 52 14 53 15 54 9 56 8 57 6 58
REMARK SMILES IDX 7 59 5 61 4 62 3 63 2 64 1 65 10 66 11 67 12 68 13 69 22 71
REMARK SMILES IDX 23 72 24 73 25 74 26 75 27 76 28 77
REMARK H PARENT 31 4 36 13 59 34 20 49 16 55 8 60 13 70 27 78 27 79 28 80
REMARK H PARENT 28 81
REMARK Flexibility Score:  259.900
ROOT
ATOM      1  O   UNL     1      -2.946   8.986  10.058  1.00  0.00    -0.273 OA
ATOM      2  N   UNL     1      -3.744   9.464   7.968  1.00  0.00    -0.343 N 
ATOM      3  C   UNL     1      -3.775   9.551   9.343  1.00  0.00     0.243 C 
ATOM      4  H   UNL     1      -4.433   9.955   7.412  1.00  0.00     0.164 HD
ENDROOT
BRANCH   2   5
ATOM      5  C   UNL     1      -2.786   8.589   7.301  1.00  0.00     0.171 C 
ATOM      6  C   UNL     1      -0.303   7.370   8.169  1.00  0.00     0.214 C 
ATOM      7  N   UNL     1      -0.273   8.664   7.529  1.00  0.00    -0.303 N 
ATOM      8  C   UNL     1      -1.454   6.494   7.702  1.00  0.00     0.057 C 
ATOM      9  C   UNL     1      -1.426   9.325   7.136  1.00  0.00     0.247 C 
ATOM     10  C   UNL     1      -2.769   7.203   7.944  1.00  0.00     0.040 C 
ATOM     11  O   UNL     1      -1.398  10.470   6.666  1.00  0.00    -0.272 OA
BRANCH   6  12
ATOM     12  O   UNL     1      -0.377   7.581   9.561  1.00  0.00    -0.373 OA
ATOM     13  H   UNL     1      -1.328   7.569   9.803  1.00  0.00     0.213 HD
ENDBRANCH   6  12
BRANCH   7  14
ATOM     14  C   UNL     1       1.040   9.337   7.436  1.00  0.00     0.177 C 
BRANCH  14  15
ATOM     15  C   UNL     1       1.444  10.161   8.674  1.00  0.00     0.038 C 
BRANCH  15  16
ATOM     16  C   UNL     1       2.482   9.589   9.665  1.00  0.00    -0.015 C 
ATOM     17  C   UNL     1       1.944   9.516  11.097  1.00  0.00     0.007 C 
ATOM     18  C   UNL     1       3.738  10.470   9.667  1.00  0.00     0.007 C 
ENDBRANCH  15  16
ENDBRANCH  14  15
BRANCH  14  19
ATOM     19  C   UNL     1       2.020   8.495   6.548  1.00  0.00     0.245 C 
ATOM     20  O   UNL     1       1.516   7.594   5.857  1.00  0.00    -0.272 OA
BRANCH  19  21
ATOM     21  N   UNL     1       3.397   8.627   6.581  1.00  0.00    -0.332 N 
ATOM     22  C   UNL     1       4.157   9.689   5.946  1.00  0.00     0.147 C 
BRANCH  21  23
ATOM     23  C   UNL     1       4.178   7.595   7.317  1.00  0.00     0.178 C 
BRANCH  23  24
ATOM     24  C   UNL     1       3.330   6.467   7.940  1.00  0.00     0.070 C 
BRANCH  24  25
ATOM     25  C   UNL     1       3.440   6.269   9.434  1.00  0.00    -0.045 A 
ATOM     26  C   UNL     1       4.589   6.667  10.129  1.00  0.00     0.004 A 
ATOM     27  C   UNL     1       2.388   5.675  10.148  1.00  0.00     0.004 A 
ATOM     28  C   UNL     1       4.689   6.465  11.507  1.00  0.00     0.000 A 
ATOM     29  C   UNL     1       2.489   5.475  11.526  1.00  0.00     0.000 A 
ATOM     30  C   UNL     1       3.641   5.867  12.203  1.00  0.00     0.000 A 
ENDBRANCH  24  25
ENDBRANCH  23  24
BRANCH  23  31
ATOM     31  C   UNL     1       5.429   7.117   6.542  1.00  0.00     0.243 C 
ATOM     32  O   UNL     1       6.546   7.612   6.669  1.00  0.00    -0.273 OA
ATOM     33  N   UNL     1       5.145   6.198   5.547  1.00  0.00    -0.341 N 
ATOM     34  H   UNL     1       4.194   5.825   5.487  1.00  0.00     0.164 HD
BRANCH  33  35
ATOM     35  C   UNL     1       6.155   5.697   4.610  1.00  0.00     0.194 C 
BRANCH  35  36
ATOM     36  C   UNL     1       5.603   5.376   3.193  1.00  0.00     0.017 C 
ATOM     37  C   UNL     1       4.409   6.279   2.840  1.00  0.00     0.010 C 
ATOM     38  C   UNL     1       5.139   3.922   3.040  1.00  0.00     0.010 C 
ENDBRANCH  35  36
BRANCH  35  39
ATOM     39  C   UNL     1       6.978   4.515   5.194  1.00  0.00     0.329 C 
ATOM     40  O   UNL     1       6.541   3.711   6.010  1.00  0.00    -0.250 OA
BRANCH  39  41
ATOM     41  O   UNL     1       8.221   4.417   4.631  1.00  0.00    -0.458 OA
BRANCH  41  42
ATOM     42  C   UNL     1       9.342   4.436   5.546  1.00  0.00     0.205 CG0
ATOM     43  C   UNL     1       9.558   5.888   5.970  1.00  0.00     0.056 C 
ATOM     44  G   UNL     1      10.571   3.842   4.829  1.00  0.00     0.000 G0
ENDBRANCH  41  42
ENDBRANCH  39  41
ENDBRANCH  35  39
ENDBRANCH  33  35
ENDBRANCH  23  31
ENDBRANCH  21  23
ENDBRANCH  19  21
ENDBRANCH  14  19
ENDBRANCH   7  14
ENDBRANCH   2   5
BRANCH   3  45
ATOM     45  C   UNL     1      -4.900  10.420   9.921  1.00  0.00     0.171 C 
BRANCH  45  46
ATOM     46  N   UNL     1      -6.073  10.138   9.106  1.00  0.00    -0.342 N 
ATOM     47  C   UNL     1      -7.313   9.914   9.651  1.00  0.00     0.247 C 
ATOM     48  O   UNL     1      -7.538  10.006  10.858  1.00  0.00    -0.273 OA
ATOM     49  H   UNL     1      -5.943  10.109   8.096  1.00  0.00     0.164 HD
BRANCH  47  50
ATOM     50  C   UNL     1      -8.401   9.510   8.647  1.00  0.00     0.212 CG0
ATOM     51  G   UNL     1      -9.750  10.026   9.187  1.00  0.00     0.000 G0
BRANCH  50  52
ATOM     52  N   UNL     1      -8.013  10.128   7.382  1.00  0.00    -0.339 N 
ATOM     53  C   UNL     1      -8.900  10.760   6.545  1.00  0.00     0.243 C 
ATOM     54  O   UNL     1     -10.106  10.809   6.774  1.00  0.00    -0.273 OA
ATOM     55  H   UNL     1      -7.045  10.023   7.082  1.00  0.00     0.164 HD
BRANCH  53  56
ATOM     56  C   UNL     1      -8.274  11.258   5.227  1.00  0.00     0.182 C 
BRANCH  56  57
ATOM     57  N   UNL     1      -9.311  11.589   4.244  1.00  0.00    -0.344 N 
ATOM     58  C   UNL     1      -9.125  12.540   3.270  1.00  0.00     0.220 C 
ATOM     59  O   UNL     1      -8.112  13.227   3.199  1.00  0.00    -0.275 OA
ATOM     60  H   UNL     1     -10.121  10.976   4.205  1.00  0.00     0.164 HD
BRANCH  58  61
ATOM     61  C   UNL     1     -10.307  12.675   2.328  1.00  0.00     0.100 C 
BRANCH  61  62
ATOM     62  C   UNL     1     -11.472  11.743   2.664  1.00  0.00     0.010 C 
BRANCH  62  63
ATOM     63  C   UNL     1     -12.707  11.938   1.775  1.00  0.00     0.000 C 
BRANCH  63  64
ATOM     64  C   UNL     1     -12.860  13.351   1.214  1.00  0.00    -0.003 C 
ATOM     65  C   UNL     1     -13.801  14.188   2.068  1.00  0.00     0.004 C 
ENDBRANCH  63  64
ENDBRANCH  62  63
ENDBRANCH  61  62
ENDBRANCH  58  61
ENDBRANCH  56  57
BRANCH  56  66
ATOM     66  C   UNL     1      -7.257  10.259   4.678  1.00  0.00     0.157 C 
BRANCH  66  67
ATOM     67  C   UNL     1      -5.852  10.686   4.993  1.00  0.00     0.305 C 
ATOM     68  O   UNL     1      -5.373  10.871   6.101  1.00  0.00    -0.252 OA
BRANCH  67  69
ATOM     69  O   UNL     1      -5.095  10.809   3.886  1.00  0.00    -0.481 OA
ATOM     70  H   UNL     1      -4.689  11.699   3.959  1.00  0.00     0.296 HD
ENDBRANCH  67  69
ENDBRANCH  66  67
ENDBRANCH  56  66
ENDBRANCH  53  56
ENDBRANCH  50  52
ENDBRANCH  47  50
ENDBRANCH  45  46
BRANCH  45  71
ATOM     71  C   UNL     1      -4.513  11.902   9.863  1.00  0.00     0.037 C 
BRANCH  71  72
ATOM     72  C   UNL     1      -5.107  12.698  11.028  1.00  0.00     0.026 C 
BRANCH  72  73
ATOM     73  C   UNL     1      -4.177  13.826  11.468  1.00  0.00     0.146 C 
BRANCH  73  74
ATOM     74  N   UNL     1      -4.746  15.085  10.996  1.00  0.00    -0.254 NA
ATOM     75  C   UNL     1      -4.235  15.617   9.948  1.00  0.00     0.185 C 
ATOM     76  N   UNL     1      -4.738  16.775   9.489  1.00  0.00    -0.370 N 
ATOM     77  N   UNL     1      -3.217  15.178   9.188  1.00  0.00    -0.370 N 
ATOM     78  H   UNL     1      -5.504  17.179  10.009  1.00  0.00     0.159 HD
ATOM     79  H   UNL     1      -4.302  17.320   8.767  1.00  0.00     0.159 HD
ATOM     80  H   UNL     1      -2.744  14.316   9.411  1.00  0.00     0.159 HD
ATOM     81  H   UNL     1      -2.978  15.624   8.317  1.00  0.00     0.159 HD
ENDBRANCH  73  74
ENDBRANCH  72  73
ENDBRANCH  71  72
ENDBRANCH  45  71
ENDBRANCH   3  45
TORSDOF 20
ENDMDL
MODEL 42
REMARK VINA RESULT:    -5.114      6.719     13.639
REMARK INTER + INTRA:         -20.787
REMARK INTER:                 -16.042
REMARK INTRA:                  -4.745
REMARK UNBOUND:                -6.106
REMARK SMILES CCCCCC(=O)N[C@H](CC(=O)O)C(=O)N[C@H]1C(=O)N[C@H](CCCN=C(N)N)C(=O)N[C@@H]2CC[C@H](O)N(C2=O)[C@@H](CC(C)C)C(=O)N(C)[C@@H](Cc2ccccc2)C(=O)N[C@H](C(C)C)C(=O)O[C@@H]1C
REMARK SMILES IDX 30 1 31 2 29 3 32 5 35 6 37 7 34 8 38 9 33 10 39 11 36 12
REMARK SMILES IDX 40 14 41 15 42 16 43 17 44 18 45 19 46 20 47 21 48 22 49 23
REMARK SMILES IDX 50 24 51 25 52 26 56 27 53 28 55 29 54 30 57 31 58 32 59 33
REMARK SMILES IDX 60 35 61 36 62 37 63 38 64 39 65 40 66 41 67 42 68 43 21 45
REMARK SMILES IDX 20 46 18 47 19 48 17 50 16 52 14 53 15 54 9 56 8 57 6 58
REMARK SMILES IDX 7 59 5 61 4 62 3 63 2 64 1 65 10 66 11 67 12 68 13 69 22 71
REMARK SMILES IDX 23 72 24 73 25 74 26 75 27 76 28 77
REMARK H PARENT 31 4 36 13 59 34 20 49 16 55 8 60 13 70 27 78 27 79 28 80
REMARK H PARENT 28 81
REMARK Flexibility Score:  259.900
ROOT
ATOM      1  O   UNL     1      -3.671   9.899  10.632  1.00  0.00    -0.273 OA
ATOM      2  N   UNL     1      -4.159   9.640   8.413  1.00  0.00    -0.343 N 
ATOM      3  C   UNL     1      -4.342  10.219   9.650  1.00  0.00     0.243 C 
ATOM      4  H   UNL     1      -4.719   9.939   7.624  1.00  0.00     0.164 HD
ENDROOT
BRANCH   2   5
ATOM      5  C   UNL     1      -3.232   8.526   8.244  1.00  0.00     0.171 C 
ATOM      6  C   UNL     1      -1.315   7.279  10.025  1.00  0.00     0.214 C 
ATOM      7  N   UNL     1      -0.891   8.367   9.175  1.00  0.00    -0.303 N 
ATOM      8  C   UNL     1      -2.443   6.453   9.428  1.00  0.00     0.057 C 
ATOM      9  C   UNL     1      -1.767   9.040   8.339  1.00  0.00     0.247 C 
ATOM     10  C   UNL     1      -3.628   7.345   9.128  1.00  0.00     0.040 C 
ATOM     11  O   UNL     1      -1.416  10.027   7.678  1.00  0.00    -0.272 OA
BRANCH   6  12
ATOM     12  O   UNL     1      -1.707   7.827  11.262  1.00  0.00    -0.373 OA
ATOM     13  H   UNL     1      -2.684   7.915  11.241  1.00  0.00     0.213 HD
ENDBRANCH   6  12
BRANCH   7  14
ATOM     14  C   UNL     1       0.499   8.843   9.337  1.00  0.00     0.177 C 
BRANCH  14  15
ATOM     15  C   UNL     1       0.839   9.414  10.727  1.00  0.00     0.038 C 
BRANCH  15  16
ATOM     16  C   UNL     1       0.851  10.944  10.939  1.00  0.00    -0.015 C 
ATOM     17  C   UNL     1      -0.493  11.474  11.448  1.00  0.00     0.007 C 
ATOM     18  C   UNL     1       1.175  11.649   9.615  1.00  0.00     0.007 C 
ENDBRANCH  15  16
ENDBRANCH  14  15
BRANCH  14  19
ATOM     19  C   UNL     1       1.470   7.999   8.441  1.00  0.00     0.245 C 
ATOM     20  O   UNL     1       0.947   7.174   7.674  1.00  0.00    -0.272 OA
BRANCH  19  21
ATOM     21  N   UNL     1       2.849   8.047   8.541  1.00  0.00    -0.332 N 
ATOM     22  C   UNL     1       3.747   8.613   7.550  1.00  0.00     0.147 C 
BRANCH  21  23
ATOM     23  C   UNL     1       3.479   7.462   9.757  1.00  0.00     0.178 C 
BRANCH  23  24
ATOM     24  C   UNL     1       3.094   5.996  10.042  1.00  0.00     0.070 C 
BRANCH  24  25
ATOM     25  C   UNL     1       2.320   5.723  11.311  1.00  0.00    -0.045 A 
ATOM     26  C   UNL     1       2.688   6.326  12.520  1.00  0.00     0.004 A 
ATOM     27  C   UNL     1       1.220   4.852  11.295  1.00  0.00     0.004 A 
ATOM     28  C   UNL     1       1.978   6.055  13.692  1.00  0.00     0.000 A 
ATOM     29  C   UNL     1       0.510   4.583  12.466  1.00  0.00     0.000 A 
ATOM     30  C   UNL     1       0.892   5.182  13.664  1.00  0.00     0.000 A 
ENDBRANCH  24  25
ENDBRANCH  23  24
BRANCH  23  31
ATOM     31  C   UNL     1       4.992   7.770   9.860  1.00  0.00     0.243 C 
ATOM     32  O   UNL     1       5.451   8.809  10.328  1.00  0.00    -0.273 OA
ATOM     33  N   UNL     1       5.790   6.847   9.206  1.00  0.00    -0.341 N 
ATOM     34  H   UNL     1       5.349   6.004   8.831  1.00  0.00     0.164 HD
BRANCH  33  35
ATOM     35  C   UNL     1       7.241   6.999   9.071  1.00  0.00     0.194 C 
BRANCH  35  36
ATOM     36  C   UNL     1       7.796   6.593   7.676  1.00  0.00     0.017 C 
ATOM     37  C   UNL     1       8.408   7.800   6.945  1.00  0.00     0.010 C 
ATOM     38  C   UNL     1       6.729   5.990   6.754  1.00  0.00     0.010 C 
ENDBRANCH  35  36
BRANCH  35  39
ATOM     39  C   UNL     1       8.024   6.317  10.228  1.00  0.00     0.329 C 
ATOM     40  O   UNL     1       7.766   5.202  10.666  1.00  0.00    -0.250 OA
BRANCH  39  41
ATOM     41  O   UNL     1       9.091   7.063  10.645  1.00  0.00    -0.458 OA
BRANCH  41  42
ATOM     42  C   UNL     1       9.794   6.579  11.815  1.00  0.00     0.205 CG0
ATOM     43  C   UNL     1       9.314   7.404  13.007  1.00  0.00     0.056 C 
ATOM     44  G   UNL     1      11.309   6.721  11.571  1.00  0.00     0.000 G0
ENDBRANCH  41  42
ENDBRANCH  39  41
ENDBRANCH  35  39
ENDBRANCH  33  35
ENDBRANCH  23  31
ENDBRANCH  21  23
ENDBRANCH  19  21
ENDBRANCH  14  19
ENDBRANCH   7  14
ENDBRANCH   2   5
BRANCH   3  45
ATOM     45  C   UNL     1      -5.424  11.305   9.714  1.00  0.00     0.171 C 
BRANCH  45  46
ATOM     46  N   UNL     1      -6.530  10.807   8.907  1.00  0.00    -0.342 N 
ATOM     47  C   UNL     1      -7.563  10.081   9.442  1.00  0.00     0.247 C 
ATOM     48  O   UNL     1      -7.670   9.860  10.649  1.00  0.00    -0.273 OA
ATOM     49  H   UNL     1      -6.510  11.017   7.911  1.00  0.00     0.164 HD
BRANCH  47  50
ATOM     50  C   UNL     1      -8.572   9.535   8.421  1.00  0.00     0.212 CG0
ATOM     51  G   UNL     1      -9.972  10.024   8.840  1.00  0.00     0.000 G0
BRANCH  50  52
ATOM     52  N   UNL     1      -8.140  10.059   7.129  1.00  0.00    -0.339 N 
ATOM     53  C   UNL     1      -8.986  10.687   6.247  1.00  0.00     0.243 C 
ATOM     54  O   UNL     1     -10.189  10.809   6.457  1.00  0.00    -0.273 OA
ATOM     55  H   UNL     1      -7.176   9.890   6.848  1.00  0.00     0.164 HD
BRANCH  53  56
ATOM     56  C   UNL     1      -8.322  11.078   4.911  1.00  0.00     0.182 C 
BRANCH  56  57
ATOM     57  N   UNL     1      -9.324  11.237   3.852  1.00  0.00    -0.344 N 
ATOM     58  C   UNL     1      -9.489  12.415   3.165  1.00  0.00     0.220 C 
ATOM     59  O   UNL     1      -8.863  13.434   3.437  1.00  0.00    -0.275 OA
ATOM     60  H   UNL     1      -9.790  10.393   3.529  1.00  0.00     0.164 HD
BRANCH  58  61
ATOM     61  C   UNL     1     -10.541  12.334   2.075  1.00  0.00     0.100 C 
BRANCH  61  62
ATOM     62  C   UNL     1     -11.955  12.086   2.601  1.00  0.00     0.010 C 
BRANCH  62  63
ATOM     63  C   UNL     1     -13.066  12.637   1.698  1.00  0.00     0.000 C 
BRANCH  63  64
ATOM     64  C   UNL     1     -12.894  14.107   1.318  1.00  0.00    -0.003 C 
ATOM     65  C   UNL     1     -14.109  14.930   1.720  1.00  0.00     0.004 C 
ENDBRANCH  63  64
ENDBRANCH  62  63
ENDBRANCH  61  62
ENDBRANCH  58  61
ENDBRANCH  56  57
BRANCH  56  66
ATOM     66  C   UNL     1      -7.224  10.090   4.521  1.00  0.00     0.157 C 
BRANCH  66  67
ATOM     67  C   UNL     1      -5.865  10.618   4.882  1.00  0.00     0.305 C 
ATOM     68  O   UNL     1      -5.435  10.828   6.007  1.00  0.00    -0.252 OA
BRANCH  67  69
ATOM     69  O   UNL     1      -5.086  10.809   3.801  1.00  0.00    -0.481 OA
ATOM     70  H   UNL     1      -5.518  10.294   3.087  1.00  0.00     0.296 HD
ENDBRANCH  67  69
ENDBRANCH  66  67
ENDBRANCH  56  66
ENDBRANCH  53  56
ENDBRANCH  50  52
ENDBRANCH  47  50
ENDBRANCH  45  46
BRANCH  45  71
ATOM     71  C   UNL     1      -4.881  12.632   9.172  1.00  0.00     0.037 C 
BRANCH  71  72
ATOM     72  C   UNL     1      -3.504  12.970   9.750  1.00  0.00     0.026 C 
BRANCH  72  73
ATOM     73  C   UNL     1      -3.541  14.259  10.568  1.00  0.00     0.146 C 
BRANCH  73  74
ATOM     74  N   UNL     1      -3.753  15.369   9.643  1.00  0.00    -0.254 NA
ATOM     75  C   UNL     1      -4.523  16.322  10.018  1.00  0.00     0.185 C 
ATOM     76  N   UNL     1      -4.737  17.357   9.190  1.00  0.00    -0.370 N 
ATOM     77  N   UNL     1      -5.191  16.463  11.177  1.00  0.00    -0.370 N 
ATOM     78  H   UNL     1      -4.277  17.327   8.291  1.00  0.00     0.159 HD
ATOM     79  H   UNL     1      -5.435  18.062   9.353  1.00  0.00     0.159 HD
ATOM     80  H   UNL     1      -5.121  15.761  11.898  1.00  0.00     0.159 HD
ATOM     81  H   UNL     1      -5.677  17.314  11.406  1.00  0.00     0.159 HD
ENDBRANCH  73  74
ENDBRANCH  72  73
ENDBRANCH  71  72
ENDBRANCH  45  71
ENDBRANCH   3  45
TORSDOF 20
ENDMDL
MODEL 43
REMARK VINA RESULT:    -5.091      8.138     14.261
REMARK INTER + INTRA:         -20.720
REMARK INTER:                 -15.405
REMARK INTRA:                  -5.315
REMARK UNBOUND:                -6.106
REMARK SMILES CCCCCC(=O)N[C@H](CC(=O)O)C(=O)N[C@H]1C(=O)N[C@H](CCCN=C(N)N)C(=O)N[C@@H]2CC[C@H](O)N(C2=O)[C@@H](CC(C)C)C(=O)N(C)[C@@H](Cc2ccccc2)C(=O)N[C@H](C(C)C)C(=O)O[C@@H]1C
REMARK SMILES IDX 30 1 31 2 29 3 32 5 35 6 37 7 34 8 38 9 33 10 39 11 36 12
REMARK SMILES IDX 40 14 41 15 42 16 43 17 44 18 45 19 46 20 47 21 48 22 49 23
REMARK SMILES IDX 50 24 51 25 52 26 56 27 53 28 55 29 54 30 57 31 58 32 59 33
REMARK SMILES IDX 60 35 61 36 62 37 63 38 64 39 65 40 66 41 67 42 68 43 21 45
REMARK SMILES IDX 20 46 18 47 19 48 17 50 16 52 14 53 15 54 9 56 8 57 6 58
REMARK SMILES IDX 7 59 5 61 4 62 3 63 2 64 1 65 10 66 11 67 12 68 13 69 22 71
REMARK SMILES IDX 23 72 24 73 25 74 26 75 27 76 28 77
REMARK H PARENT 31 4 36 13 59 34 20 49 16 55 8 60 13 70 27 78 27 79 28 80
REMARK H PARENT 28 81
REMARK Flexibility Score:  259.900
ROOT
ATOM      1  O   UNL     1      -1.901  10.552   9.852  1.00  0.00    -0.273 OA
ATOM      2  N   UNL     1      -1.190   9.123   8.214  1.00  0.00    -0.343 N 
ATOM      3  C   UNL     1      -1.997  10.130   8.699  1.00  0.00     0.243 C 
ATOM      4  H   UNL     1      -1.288   8.811   7.255  1.00  0.00     0.164 HD
ENDROOT
BRANCH   2   5
ATOM      5  C   UNL     1      -0.259   8.427   9.095  1.00  0.00     0.171 C 
ATOM      6  C   UNL     1       1.315   6.014   8.778  1.00  0.00     0.214 C 
ATOM      7  N   UNL     1      -0.011   5.928   9.344  1.00  0.00    -0.303 N 
ATOM      8  C   UNL     1       2.007   7.338   9.065  1.00  0.00     0.057 C 
ATOM      9  C   UNL     1      -0.835   7.033   9.476  1.00  0.00     0.247 C 
ATOM     10  C   UNL     1       1.164   8.480   8.541  1.00  0.00     0.040 C 
ATOM     11  O   UNL     1      -2.001   6.938   9.881  1.00  0.00    -0.272 OA
BRANCH   6  12
ATOM     12  O   UNL     1       1.205   5.806   7.389  1.00  0.00    -0.373 OA
ATOM     13  H   UNL     1       1.570   6.604   6.950  1.00  0.00     0.213 HD
ENDBRANCH   6  12
BRANCH   7  14
ATOM     14  C   UNL     1      -0.523   4.575   9.648  1.00  0.00     0.177 C 
BRANCH  14  15
ATOM     15  C   UNL     1      -1.386   3.936   8.542  1.00  0.00     0.038 C 
BRANCH  15  16
ATOM     16  C   UNL     1      -2.850   3.548   8.848  1.00  0.00    -0.015 C 
ATOM     17  C   UNL     1      -3.856   4.434   8.107  1.00  0.00     0.007 C 
ATOM     18  C   UNL     1      -3.116   3.674  10.353  1.00  0.00     0.007 C 
ENDBRANCH  15  16
ENDBRANCH  14  15
BRANCH  14  19
ATOM     19  C   UNL     1       0.486   3.806  10.569  1.00  0.00     0.245 C 
ATOM     20  O   UNL     1       0.745   4.322  11.669  1.00  0.00    -0.272 OA
BRANCH  19  21
ATOM     21  N   UNL     1       1.171   2.668  10.181  1.00  0.00    -0.332 N 
ATOM     22  C   UNL     1       2.006   2.550   8.999  1.00  0.00     0.147 C 
BRANCH  21  23
ATOM     23  C   UNL     1       1.042   1.453  11.032  1.00  0.00     0.178 C 
BRANCH  23  24
ATOM     24  C   UNL     1       0.172   0.332  10.428  1.00  0.00     0.070 C 
BRANCH  24  25
ATOM     25  C   UNL     1      -1.279   0.286  10.846  1.00  0.00    -0.045 A 
ATOM     26  C   UNL     1      -2.271  -0.134   9.950  1.00  0.00     0.004 A 
ATOM     27  C   UNL     1      -1.655   0.669  12.143  1.00  0.00     0.004 A 
ATOM     28  C   UNL     1      -3.612  -0.157  10.339  1.00  0.00     0.000 A 
ATOM     29  C   UNL     1      -2.995   0.643  12.530  1.00  0.00     0.000 A 
ATOM     30  C   UNL     1      -3.974   0.233  11.627  1.00  0.00     0.000 A 
ENDBRANCH  24  25
ENDBRANCH  23  24
BRANCH  23  31
ATOM     31  C   UNL     1       2.392   0.983  11.623  1.00  0.00     0.243 C 
ATOM     32  O   UNL     1       3.174   1.719  12.220  1.00  0.00    -0.273 OA
ATOM     33  N   UNL     1       2.736  -0.308  11.260  1.00  0.00    -0.341 N 
ATOM     34  H   UNL     1       2.045  -0.871  10.758  1.00  0.00     0.164 HD
BRANCH  33  35
ATOM     35  C   UNL     1       4.022  -0.919  11.605  1.00  0.00     0.194 C 
BRANCH  35  36
ATOM     36  C   UNL     1       4.337  -0.919  13.128  1.00  0.00     0.017 C 
ATOM     37  C   UNL     1       5.644  -1.672  13.428  1.00  0.00     0.010 C 
ATOM     38  C   UNL     1       3.231  -1.564  13.973  1.00  0.00     0.010 C 
ENDBRANCH  35  36
BRANCH  35  39
ATOM     39  C   UNL     1       5.200  -0.346  10.769  1.00  0.00     0.329 C 
ATOM     40  O   UNL     1       5.830   0.661  11.072  1.00  0.00    -0.250 OA
BRANCH  39  41
ATOM     41  O   UNL     1       5.514  -1.139   9.700  1.00  0.00    -0.458 OA
BRANCH  41  42
ATOM     42  C   UNL     1       6.692  -1.969   9.842  1.00  0.00     0.205 CG0
ATOM     43  C   UNL     1       7.720  -1.475   8.826  1.00  0.00     0.056 C 
ATOM     44  G   UNL     1       6.290  -3.438   9.606  1.00  0.00     0.000 G0
ENDBRANCH  41  42
ENDBRANCH  39  41
ENDBRANCH  35  39
ENDBRANCH  33  35
ENDBRANCH  23  31
ENDBRANCH  21  23
ENDBRANCH  19  21
ENDBRANCH  14  19
ENDBRANCH   7  14
ENDBRANCH   2   5
BRANCH   3  45
ATOM     45  C   UNL     1      -3.007  10.703   7.697  1.00  0.00     0.171 C 
BRANCH  45  46
ATOM     46  N   UNL     1      -4.006  11.398   8.498  1.00  0.00    -0.342 N 
ATOM     47  C   UNL     1      -4.164  12.760   8.459  1.00  0.00     0.247 C 
ATOM     48  O   UNL     1      -3.527  13.485   7.694  1.00  0.00    -0.273 OA
ATOM     49  H   UNL     1      -4.594  10.829   9.104  1.00  0.00     0.164 HD
BRANCH  47  50
ATOM     50  C   UNL     1      -5.179  13.326   9.463  1.00  0.00     0.212 CG0
ATOM     51  G   UNL     1      -5.316  14.837   9.187  1.00  0.00     0.000 G0
BRANCH  50  52
ATOM     52  N   UNL     1      -6.414  12.582   9.229  1.00  0.00    -0.339 N 
ATOM     53  C   UNL     1      -7.338  12.324  10.212  1.00  0.00     0.243 C 
ATOM     54  O   UNL     1      -7.169  12.654  11.383  1.00  0.00    -0.273 OA
ATOM     55  H   UNL     1      -6.559  12.185   8.303  1.00  0.00     0.164 HD
BRANCH  53  56
ATOM     56  C   UNL     1      -8.519  11.448   9.749  1.00  0.00     0.182 C 
BRANCH  56  57
ATOM     57  N   UNL     1      -8.565  11.357   8.286  1.00  0.00    -0.344 N 
ATOM     58  C   UNL     1      -8.645  10.155   7.625  1.00  0.00     0.220 C 
ATOM     59  O   UNL     1      -8.610   9.075   8.205  1.00  0.00    -0.275 OA
ATOM     60  H   UNL     1      -8.698  12.225   7.774  1.00  0.00     0.164 HD
BRANCH  58  61
ATOM     61  C   UNL     1      -8.739  10.303   6.118  1.00  0.00     0.100 C 
BRANCH  61  62
ATOM     62  C   UNL     1      -7.412  10.660   5.449  1.00  0.00     0.010 C 
BRANCH  62  63
ATOM     63  C   UNL     1      -7.363  10.353   3.947  1.00  0.00     0.000 C 
BRANCH  63  64
ATOM     64  C   UNL     1      -6.079  10.808   3.255  1.00  0.00    -0.003 C 
ATOM     65  C   UNL     1      -5.488   9.698   2.397  1.00  0.00     0.004 C 
ENDBRANCH  63  64
ENDBRANCH  62  63
ENDBRANCH  61  62
ENDBRANCH  58  61
ENDBRANCH  56  57
BRANCH  56  66
ATOM     66  C   UNL     1      -9.842  11.934  10.337  1.00  0.00     0.157 C 
BRANCH  66  67
ATOM     67  C   UNL     1     -11.006  11.193   9.745  1.00  0.00     0.305 C 
ATOM     68  O   UNL     1     -11.713  11.559   8.819  1.00  0.00    -0.252 OA
BRANCH  67  69
ATOM     69  O   UNL     1     -11.193   9.990  10.321  1.00  0.00    -0.481 OA
ATOM     70  H   UNL     1     -11.770  10.169  11.093  1.00  0.00     0.296 HD
ENDBRANCH  67  69
ENDBRANCH  66  67
ENDBRANCH  56  66
ENDBRANCH  53  56
ENDBRANCH  50  52
ENDBRANCH  47  50
ENDBRANCH  45  46
BRANCH  45  71
ATOM     71  C   UNL     1      -3.632   9.577   6.866  1.00  0.00     0.037 C 
BRANCH  71  72
ATOM     72  C   UNL     1      -3.269   9.686   5.383  1.00  0.00     0.026 C 
BRANCH  72  73
ATOM     73  C   UNL     1      -2.261  10.806   5.134  1.00  0.00     0.146 C 
BRANCH  73  74
ATOM     74  N   UNL     1      -2.491  11.324   3.789  1.00  0.00    -0.254 NA
ATOM     75  C   UNL     1      -1.900  10.740   2.813  1.00  0.00     0.185 C 
ATOM     76  N   UNL     1      -2.093  11.193   1.563  1.00  0.00    -0.370 N 
ATOM     77  N   UNL     1      -1.068   9.685   2.838  1.00  0.00    -0.370 N 
ATOM     78  H   UNL     1      -2.702  11.992   1.455  1.00  0.00     0.159 HD
ATOM     79  H   UNL     1      -1.557  10.882   0.773  1.00  0.00     0.159 HD
ATOM     80  H   UNL     1      -0.833   9.237   3.711  1.00  0.00     0.159 HD
ATOM     81  H   UNL     1      -0.753   9.239   1.992  1.00  0.00     0.159 HD
ENDBRANCH  73  74
ENDBRANCH  72  73
ENDBRANCH  71  72
ENDBRANCH  45  71
ENDBRANCH   3  45
TORSDOF 20
ENDMDL
MODEL 44
REMARK VINA RESULT:    -5.086      6.877     15.324
REMARK INTER + INTRA:         -20.705
REMARK INTER:                 -15.859
REMARK INTRA:                  -4.846
REMARK UNBOUND:                -6.106
REMARK SMILES CCCCCC(=O)N[C@H](CC(=O)O)C(=O)N[C@H]1C(=O)N[C@H](CCCN=C(N)N)C(=O)N[C@@H]2CC[C@H](O)N(C2=O)[C@@H](CC(C)C)C(=O)N(C)[C@@H](Cc2ccccc2)C(=O)N[C@H](C(C)C)C(=O)O[C@@H]1C
REMARK SMILES IDX 30 1 31 2 29 3 32 5 35 6 37 7 34 8 38 9 33 10 39 11 36 12
REMARK SMILES IDX 40 14 41 15 42 16 43 17 44 18 45 19 46 20 47 21 48 22 49 23
REMARK SMILES IDX 50 24 51 25 52 26 56 27 53 28 55 29 54 30 57 31 58 32 59 33
REMARK SMILES IDX 60 35 61 36 62 37 63 38 64 39 65 40 66 41 67 42 68 43 21 45
REMARK SMILES IDX 20 46 18 47 19 48 17 50 16 52 14 53 15 54 9 56 8 57 6 58
REMARK SMILES IDX 7 59 5 61 4 62 3 63 2 64 1 65 10 66 11 67 12 68 13 69 22 71
REMARK SMILES IDX 23 72 24 73 25 74 26 75 27 76 28 77
REMARK H PARENT 31 4 36 13 59 34 20 49 16 55 8 60 13 70 27 78 27 79 28 80
REMARK H PARENT 28 81
REMARK Flexibility Score:  259.900
ROOT
ATOM      1  O   UNL     1      -0.782   8.233   9.069  1.00  0.00    -0.273 OA
ATOM      2  N   UNL     1       1.063   7.808   7.786  1.00  0.00    -0.343 N 
ATOM      3  C   UNL     1       0.440   8.116   8.977  1.00  0.00     0.243 C 
ATOM      4  H   UNL     1       2.070   7.705   7.751  1.00  0.00     0.164 HD
ENDROOT
BRANCH   2   5
ATOM      5  C   UNL     1       0.297   7.726   6.547  1.00  0.00     0.171 C 
ATOM      6  C   UNL     1       0.891   6.603   3.942  1.00  0.00     0.214 C 
ATOM      7  N   UNL     1       1.199   7.989   4.205  1.00  0.00    -0.303 N 
ATOM      8  C   UNL     1      -0.302   6.091   4.733  1.00  0.00     0.057 C 
ATOM      9  C   UNL     1       0.988   8.575   5.442  1.00  0.00     0.247 C 
ATOM     10  C   UNL     1      -0.052   6.276   6.214  1.00  0.00     0.040 C 
ATOM     11  O   UNL     1       1.334   9.738   5.685  1.00  0.00    -0.272 OA
BRANCH   6  12
ATOM     12  O   UNL     1       2.040   5.843   4.236  1.00  0.00    -0.373 OA
ATOM     13  H   UNL     1       2.339   6.109   5.132  1.00  0.00     0.213 HD
ENDBRANCH   6  12
BRANCH   7  14
ATOM     14  C   UNL     1       1.893   8.736   3.135  1.00  0.00     0.177 C 
BRANCH  14  15
ATOM     15  C   UNL     1       3.368   8.348   2.914  1.00  0.00     0.038 C 
BRANCH  15  16
ATOM     16  C   UNL     1       4.456   8.930   3.844  1.00  0.00    -0.015 C 
ATOM     17  C   UNL     1       5.840   8.942   3.189  1.00  0.00     0.007 C 
ATOM     18  C   UNL     1       4.539   8.097   5.130  1.00  0.00     0.007 C 
ENDBRANCH  15  16
ENDBRANCH  14  15
BRANCH  14  19
ATOM     19  C   UNL     1       0.882   9.134   2.005  1.00  0.00     0.245 C 
ATOM     20  O   UNL     1      -0.274   9.418   2.363  1.00  0.00    -0.272 OA
BRANCH  19  21
ATOM     21  N   UNL     1       1.173   9.077   0.654  1.00  0.00    -0.332 N 
ATOM     22  C   UNL     1       1.287   7.862  -0.133  1.00  0.00     0.147 C 
BRANCH  21  23
ATOM     23  C   UNL     1       1.402  10.362  -0.064  1.00  0.00     0.178 C 
BRANCH  23  24
ATOM     24  C   UNL     1       2.880  10.793  -0.160  1.00  0.00     0.070 C 
BRANCH  24  25
ATOM     25  C   UNL     1       3.219  12.193   0.297  1.00  0.00    -0.045 A 
ATOM     26  C   UNL     1       3.220  13.263  -0.608  1.00  0.00     0.004 A 
ATOM     27  C   UNL     1       3.544  12.441   1.639  1.00  0.00     0.004 A 
ATOM     28  C   UNL     1       3.551  14.551  -0.182  1.00  0.00     0.000 A 
ATOM     29  C   UNL     1       3.874  13.729   2.064  1.00  0.00     0.000 A 
ATOM     30  C   UNL     1       3.880  14.782   1.152  1.00  0.00     0.000 A 
ENDBRANCH  24  25
ENDBRANCH  23  24
BRANCH  23  31
ATOM     31  C   UNL     1       0.606  10.465  -1.387  1.00  0.00     0.243 C 
ATOM     32  O   UNL     1      -0.620  10.431  -1.455  1.00  0.00    -0.273 OA
ATOM     33  N   UNL     1       1.404  10.412  -2.517  1.00  0.00    -0.341 N 
ATOM     34  H   UNL     1       2.419  10.436  -2.397  1.00  0.00     0.164 HD
BRANCH  33  35
ATOM     35  C   UNL     1       0.859  10.373  -3.878  1.00  0.00     0.194 C 
BRANCH  35  36
ATOM     36  C   UNL     1       1.609   9.404  -4.834  1.00  0.00     0.017 C 
ATOM     37  C   UNL     1       1.276   9.702  -6.306  1.00  0.00     0.010 C 
ATOM     38  C   UNL     1       1.279   7.928  -4.579  1.00  0.00     0.010 C 
ENDBRANCH  35  36
BRANCH  35  39
ATOM     39  C   UNL     1       0.698  11.790  -4.497  1.00  0.00     0.329 C 
ATOM     40  O   UNL     1       1.626  12.568  -4.681  1.00  0.00    -0.250 OA
BRANCH  39  41
ATOM     41  O   UNL     1      -0.586  12.040  -4.895  1.00  0.00    -0.458 OA
BRANCH  41  42
ATOM     42  C   UNL     1      -0.742  12.783  -6.127  1.00  0.00     0.205 CG0
ATOM     43  C   UNL     1      -1.498  14.067  -5.791  1.00  0.00     0.056 C 
ATOM     44  G   UNL     1      -1.498  11.902  -7.142  1.00  0.00     0.000 G0
ENDBRANCH  41  42
ENDBRANCH  39  41
ENDBRANCH  35  39
ENDBRANCH  33  35
ENDBRANCH  23  31
ENDBRANCH  21  23
ENDBRANCH  19  21
ENDBRANCH  14  19
ENDBRANCH   7  14
ENDBRANCH   2   5
BRANCH   3  45
ATOM     45  C   UNL     1       1.374   8.280  10.183  1.00  0.00     0.171 C 
BRANCH  45  46
ATOM     46  N   UNL     1       0.776   7.494  11.254  1.00  0.00    -0.342 N 
ATOM     47  C   UNL     1       1.396   6.396  11.796  1.00  0.00     0.247 C 
ATOM     48  O   UNL     1       2.529   6.039  11.470  1.00  0.00    -0.273 OA
ATOM     49  H   UNL     1      -0.138   7.788  11.594  1.00  0.00     0.164 HD
BRANCH  47  50
ATOM     50  C   UNL     1       0.562   5.620  12.825  1.00  0.00     0.212 CG0
ATOM     51  G   UNL     1      -0.303   6.642  13.591  1.00  0.00     0.000 G0
BRANCH  50  52
ATOM     52  N   UNL     1      -0.225   4.665  12.050  1.00  0.00    -0.339 N 
ATOM     53  C   UNL     1      -1.487   4.932  11.577  1.00  0.00     0.243 C 
ATOM     54  O   UNL     1      -2.075   5.982  11.818  1.00  0.00    -0.273 OA
ATOM     55  H   UNL     1       0.165   3.734  11.911  1.00  0.00     0.164 HD
BRANCH  53  56
ATOM     56  C   UNL     1      -2.153   3.740  10.860  1.00  0.00     0.182 C 
BRANCH  56  57
ATOM     57  N   UNL     1      -3.076   3.036  11.756  1.00  0.00    -0.344 N 
ATOM     58  C   UNL     1      -2.650   2.382  12.886  1.00  0.00     0.220 C 
ATOM     59  O   UNL     1      -1.466   2.277  13.185  1.00  0.00    -0.275 OA
ATOM     60  H   UNL     1      -4.070   3.183  11.601  1.00  0.00     0.164 HD
BRANCH  58  61
ATOM     61  C   UNL     1      -3.783   1.775  13.692  1.00  0.00     0.100 C 
BRANCH  61  62
ATOM     62  C   UNL     1      -4.873   2.777  14.075  1.00  0.00     0.010 C 
BRANCH  62  63
ATOM     63  C   UNL     1      -6.224   2.524  13.394  1.00  0.00     0.000 C 
BRANCH  63  64
ATOM     64  C   UNL     1      -7.009   3.794  13.067  1.00  0.00    -0.003 C 
ATOM     65  C   UNL     1      -7.737   3.670  11.736  1.00  0.00     0.004 C 
ENDBRANCH  63  64
ENDBRANCH  62  63
ENDBRANCH  61  62
ENDBRANCH  58  61
ENDBRANCH  56  57
BRANCH  56  66
ATOM     66  C   UNL     1      -1.114   2.801  10.249  1.00  0.00     0.157 C 
BRANCH  66  67
ATOM     67  C   UNL     1      -1.586   2.249   8.935  1.00  0.00     0.305 C 
ATOM     68  O   UNL     1      -1.633   1.072   8.610  1.00  0.00    -0.252 OA
BRANCH  67  69
ATOM     69  O   UNL     1      -2.028   3.211   8.105  1.00  0.00    -0.481 OA
ATOM     70  H   UNL     1      -1.503   4.006   8.340  1.00  0.00     0.296 HD
ENDBRANCH  67  69
ENDBRANCH  66  67
ENDBRANCH  56  66
ENDBRANCH  53  56
ENDBRANCH  50  52
ENDBRANCH  47  50
ENDBRANCH  45  46
BRANCH  45  71
ATOM     71  C   UNL     1       1.495   9.759  10.567  1.00  0.00     0.037 C 
BRANCH  71  72
ATOM     72  C   UNL     1       2.225  10.574   9.497  1.00  0.00     0.026 C 
BRANCH  72  73
ATOM     73  C   UNL     1       1.390  11.766   9.034  1.00  0.00     0.146 C 
BRANCH  73  74
ATOM     74  N   UNL     1      -0.009  11.350   9.010  1.00  0.00    -0.254 NA
ATOM     75  C   UNL     1      -0.664  11.513   7.921  1.00  0.00     0.185 C 
ATOM     76  N   UNL     1      -1.953  11.138   7.868  1.00  0.00    -0.370 N 
ATOM     77  N   UNL     1      -0.246  12.028   6.752  1.00  0.00    -0.370 N 
ATOM     78  H   UNL     1      -2.350  10.746   8.710  1.00  0.00     0.159 HD
ATOM     79  H   UNL     1      -2.565  11.365   7.104  1.00  0.00     0.159 HD
ATOM     80  H   UNL     1       0.705  12.349   6.643  1.00  0.00     0.159 HD
ATOM     81  H   UNL     1      -0.820  11.999   5.926  1.00  0.00     0.159 HD
ENDBRANCH  73  74
ENDBRANCH  72  73
ENDBRANCH  71  72
ENDBRANCH  45  71
ENDBRANCH   3  45
TORSDOF 20
ENDMDL
MODEL 45
REMARK VINA RESULT:    -5.061      6.522     10.208
REMARK INTER + INTRA:         -20.636
REMARK INTER:                 -12.871
REMARK INTRA:                  -7.765
REMARK UNBOUND:                -6.106
REMARK SMILES CCCCCC(=O)N[C@H](CC(=O)O)C(=O)N[C@H]1C(=O)N[C@H](CCCN=C(N)N)C(=O)N[C@@H]2CC[C@H](O)N(C2=O)[C@@H](CC(C)C)C(=O)N(C)[C@@H](Cc2ccccc2)C(=O)N[C@H](C(C)C)C(=O)O[C@@H]1C
REMARK SMILES IDX 30 1 31 2 29 3 32 5 35 6 37 7 34 8 38 9 33 10 39 11 36 12
REMARK SMILES IDX 40 14 41 15 42 16 43 17 44 18 45 19 46 20 47 21 48 22 49 23
REMARK SMILES IDX 50 24 51 25 52 26 56 27 53 28 55 29 54 30 57 31 58 32 59 33
REMARK SMILES IDX 60 35 61 36 62 37 63 38 64 39 65 40 66 41 67 42 68 43 21 45
REMARK SMILES IDX 20 46 18 47 19 48 17 50 16 52 14 53 15 54 9 56 8 57 6 58
REMARK SMILES IDX 7 59 5 61 4 62 3 63 2 64 1 65 10 66 11 67 12 68 13 69 22 71
REMARK SMILES IDX 23 72 24 73 25 74 26 75 27 76 28 77
REMARK H PARENT 31 4 36 13 59 34 20 49 16 55 8 60 13 70 27 78 27 79 28 80
REMARK H PARENT 28 81
REMARK Flexibility Score:  259.900
ROOT
ATOM      1  O   UNL     1       5.050   7.375   5.494  1.00  0.00    -0.273 OA
ATOM      2  N   UNL     1       3.397   5.808   5.281  1.00  0.00    -0.343 N 
ATOM      3  C   UNL     1       4.258   6.759   4.779  1.00  0.00     0.243 C 
ATOM      4  H   UNL     1       2.770   5.311   4.661  1.00  0.00     0.164 HD
ENDROOT
BRANCH   2   5
ATOM      5  C   UNL     1       3.306   5.574   6.719  1.00  0.00     0.171 C 
ATOM      6  C   UNL     1       1.656   3.809   8.320  1.00  0.00     0.214 C 
ATOM      7  N   UNL     1       1.197   5.149   8.039  1.00  0.00    -0.303 N 
ATOM      8  C   UNL     1       3.171   3.691   8.380  1.00  0.00     0.057 C 
ATOM      9  C   UNL     1       1.912   6.026   7.239  1.00  0.00     0.247 C 
ATOM     10  C   UNL     1       3.773   4.163   7.075  1.00  0.00     0.040 C 
ATOM     11  O   UNL     1       1.471   7.141   6.932  1.00  0.00    -0.272 OA
BRANCH   6  12
ATOM     12  O   UNL     1       1.135   2.958   7.326  1.00  0.00    -0.373 OA
ATOM     13  H   UNL     1       1.797   2.248   7.179  1.00  0.00     0.213 HD
ENDBRANCH   6  12
BRANCH   7  14
ATOM     14  C   UNL     1      -0.153   5.511   8.521  1.00  0.00     0.177 C 
BRANCH  14  15
ATOM     15  C   UNL     1      -1.305   4.671   7.937  1.00  0.00     0.038 C 
BRANCH  15  16
ATOM     16  C   UNL     1      -2.670   5.340   7.661  1.00  0.00    -0.015 C 
ATOM     17  C   UNL     1      -2.529   6.807   7.246  1.00  0.00     0.007 C 
ATOM     18  C   UNL     1      -3.541   5.279   8.923  1.00  0.00     0.007 C 
ENDBRANCH  15  16
ENDBRANCH  14  15
BRANCH  14  19
ATOM     19  C   UNL     1      -0.078   6.050   9.992  1.00  0.00     0.245 C 
ATOM     20  O   UNL     1      -0.381   5.253  10.895  1.00  0.00    -0.272 OA
BRANCH  19  21
ATOM     21  N   UNL     1       0.191   7.367  10.317  1.00  0.00    -0.332 N 
ATOM     22  C   UNL     1       1.309   7.825  11.122  1.00  0.00     0.147 C 
BRANCH  21  23
ATOM     23  C   UNL     1      -0.744   8.413   9.816  1.00  0.00     0.178 C 
BRANCH  23  24
ATOM     24  C   UNL     1      -1.957   8.685  10.728  1.00  0.00     0.070 C 
BRANCH  24  25
ATOM     25  C   UNL     1      -3.026   9.610  10.194  1.00  0.00    -0.045 A 
ATOM     26  C   UNL     1      -3.989   9.147   9.289  1.00  0.00     0.004 A 
ATOM     27  C   UNL     1      -3.065  10.954  10.597  1.00  0.00     0.004 A 
ATOM     28  C   UNL     1      -4.963  10.012   8.786  1.00  0.00     0.000 A 
ATOM     29  C   UNL     1      -4.040  11.817  10.095  1.00  0.00     0.000 A 
ATOM     30  C   UNL     1      -4.986  11.346   9.187  1.00  0.00     0.000 A 
ENDBRANCH  24  25
ENDBRANCH  23  24
BRANCH  23  31
ATOM     31  C   UNL     1      -0.015   9.678   9.305  1.00  0.00     0.243 C 
ATOM     32  O   UNL     1       0.363  10.594  10.032  1.00  0.00    -0.273 OA
ATOM     33  N   UNL     1       0.013   9.781   7.925  1.00  0.00    -0.341 N 
ATOM     34  H   UNL     1      -0.322   8.988   7.372  1.00  0.00     0.164 HD
BRANCH  33  35
ATOM     35  C   UNL     1       0.545  10.952   7.222  1.00  0.00     0.194 C 
BRANCH  35  36
ATOM     36  C   UNL     1      -0.544  11.951   6.737  1.00  0.00     0.017 C 
ATOM     37  C   UNL     1      -0.768  13.075   7.763  1.00  0.00     0.010 C 
ATOM     38  C   UNL     1      -1.902  11.287   6.481  1.00  0.00     0.010 C 
ENDBRANCH  35  36
BRANCH  35  39
ATOM     39  C   UNL     1       1.529  10.568   6.081  1.00  0.00     0.329 C 
ATOM     40  O   UNL     1       2.702  10.265   6.261  1.00  0.00    -0.250 OA
BRANCH  39  41
ATOM     41  O   UNL     1       0.916  10.522   4.859  1.00  0.00    -0.458 OA
BRANCH  41  42
ATOM     42  C   UNL     1       1.704  10.967   3.730  1.00  0.00     0.205 CG0
ATOM     43  C   UNL     1       1.071  12.259   3.216  1.00  0.00     0.056 C 
ATOM     44  G   UNL     1       1.712   9.852   2.666  1.00  0.00     0.000 G0
ENDBRANCH  41  42
ENDBRANCH  39  41
ENDBRANCH  35  39
ENDBRANCH  33  35
ENDBRANCH  23  31
ENDBRANCH  21  23
ENDBRANCH  19  21
ENDBRANCH  14  19
ENDBRANCH   7  14
ENDBRANCH   2   5
BRANCH   3  45
ATOM     45  C   UNL     1       4.178   6.984   3.263  1.00  0.00     0.171 C 
BRANCH  45  46
ATOM     46  N   UNL     1       2.988   7.797   3.048  1.00  0.00    -0.342 N 
ATOM     47  C   UNL     1       3.055   9.125   2.712  1.00  0.00     0.247 C 
ATOM     48  O   UNL     1       4.119   9.707   2.496  1.00  0.00    -0.273 OA
ATOM     49  H   UNL     1       2.085   7.340   3.161  1.00  0.00     0.164 HD
BRANCH  47  50
ATOM     50  C   UNL     1       1.703   9.849   2.649  1.00  0.00     0.212 CG0
ATOM     51  G   UNL     1       1.721  10.966   3.711  1.00  0.00     0.000 G0
BRANCH  50  52
ATOM     52  N   UNL     1       1.594  10.354   1.283  1.00  0.00    -0.339 N 
ATOM     53  C   UNL     1       1.239   9.569   0.213  1.00  0.00     0.243 C 
ATOM     54  O   UNL     1       1.036   8.362   0.316  1.00  0.00    -0.273 OA
ATOM     55  H   UNL     1       1.859  11.323   1.114  1.00  0.00     0.164 HD
BRANCH  53  56
ATOM     56  C   UNL     1       1.276  10.302  -1.143  1.00  0.00     0.182 C 
BRANCH  56  57
ATOM     57  N   UNL     1       1.369  11.753  -0.955  1.00  0.00    -0.344 N 
ATOM     58  C   UNL     1       2.553  12.438  -1.085  1.00  0.00     0.220 C 
ATOM     59  O   UNL     1       3.624  11.877  -1.295  1.00  0.00    -0.275 OA
ATOM     60  H   UNL     1       0.494  12.265  -0.881  1.00  0.00     0.164 HD
BRANCH  58  61
ATOM     61  C   UNL     1       2.404  13.937  -0.905  1.00  0.00     0.100 C 
BRANCH  61  62
ATOM     62  C   UNL     1       3.729  14.698  -0.955  1.00  0.00     0.010 C 
BRANCH  62  63
ATOM     63  C   UNL     1       3.992  15.414  -2.286  1.00  0.00     0.000 C 
BRANCH  63  64
ATOM     64  C   UNL     1       5.135  16.426  -2.238  1.00  0.00    -0.003 C 
ATOM     65  C   UNL     1       6.052  16.287  -3.445  1.00  0.00     0.004 C 
ENDBRANCH  63  64
ENDBRANCH  62  63
ENDBRANCH  61  62
ENDBRANCH  58  61
ENDBRANCH  56  57
BRANCH  56  66
ATOM     66  C   UNL     1       0.091   9.910  -2.024  1.00  0.00     0.157 C 
BRANCH  66  67
ATOM     67  C   UNL     1      -0.690  11.118  -2.455  1.00  0.00     0.305 C 
ATOM     68  O   UNL     1      -1.675  11.588  -1.907  1.00  0.00    -0.252 OA
BRANCH  67  69
ATOM     69  O   UNL     1      -0.154  11.714  -3.538  1.00  0.00    -0.481 OA
ATOM     70  H   UNL     1      -0.918  11.898  -4.125  1.00  0.00     0.296 HD
ENDBRANCH  67  69
ENDBRANCH  66  67
ENDBRANCH  56  66
ENDBRANCH  53  56
ENDBRANCH  50  52
ENDBRANCH  47  50
ENDBRANCH  45  46
BRANCH  45  71
ATOM     71  C   UNL     1       4.085   5.641   2.529  1.00  0.00     0.037 C 
BRANCH  71  72
ATOM     72  C   UNL     1       2.899   5.594   1.563  1.00  0.00     0.026 C 
BRANCH  72  73
ATOM     73  C   UNL     1       1.719   4.830   2.161  1.00  0.00     0.146 C 
BRANCH  73  74
ATOM     74  N   UNL     1       0.926   5.774   2.943  1.00  0.00    -0.254 NA
ATOM     75  C   UNL     1       0.249   5.314   3.929  1.00  0.00     0.185 C 
ATOM     76  N   UNL     1      -0.490   6.158   4.668  1.00  0.00    -0.370 N 
ATOM     77  N   UNL     1       0.152   4.048   4.370  1.00  0.00    -0.370 N 
ATOM     78  H   UNL     1      -0.479   7.131   4.398  1.00  0.00     0.159 HD
ATOM     79  H   UNL     1      -1.154   5.854   5.358  1.00  0.00     0.159 HD
ATOM     80  H   UNL     1       0.657   3.304   3.913  1.00  0.00     0.159 HD
ATOM     81  H   UNL     1      -0.323   3.823   5.229  1.00  0.00     0.159 HD
ENDBRANCH  73  74
ENDBRANCH  72  73
ENDBRANCH  71  72
ENDBRANCH  45  71
ENDBRANCH   3  45
TORSDOF 20
ENDMDL
MODEL 46
REMARK VINA RESULT:    -5.019      9.428     14.056
REMARK INTER + INTRA:         -20.515
REMARK INTER:                 -15.053
REMARK INTRA:                  -5.461
REMARK UNBOUND:                -6.106
REMARK SMILES CCCCCC(=O)N[C@H](CC(=O)O)C(=O)N[C@H]1C(=O)N[C@H](CCCN=C(N)N)C(=O)N[C@@H]2CC[C@H](O)N(C2=O)[C@@H](CC(C)C)C(=O)N(C)[C@@H](Cc2ccccc2)C(=O)N[C@H](C(C)C)C(=O)O[C@@H]1C
REMARK SMILES IDX 30 1 31 2 29 3 32 5 35 6 37 7 34 8 38 9 33 10 39 11 36 12
REMARK SMILES IDX 40 14 41 15 42 16 43 17 44 18 45 19 46 20 47 21 48 22 49 23
REMARK SMILES IDX 50 24 51 25 52 26 56 27 53 28 55 29 54 30 57 31 58 32 59 33
REMARK SMILES IDX 60 35 61 36 62 37 63 38 64 39 65 40 66 41 67 42 68 43 21 45
REMARK SMILES IDX 20 46 18 47 19 48 17 50 16 52 14 53 15 54 9 56 8 57 6 58
REMARK SMILES IDX 7 59 5 61 4 62 3 63 2 64 1 65 10 66 11 67 12 68 13 69 22 71
REMARK SMILES IDX 23 72 24 73 25 74 26 75 27 76 28 77
REMARK H PARENT 31 4 36 13 59 34 20 49 16 55 8 60 13 70 27 78 27 79 28 80
REMARK H PARENT 28 81
REMARK Flexibility Score:  259.900
ROOT
ATOM      1  O   UNL     1      -1.865   9.673  10.888  1.00  0.00    -0.273 OA
ATOM      2  N   UNL     1      -0.793   7.757  10.246  1.00  0.00    -0.343 N 
ATOM      3  C   UNL     1      -1.451   8.941   9.989  1.00  0.00     0.243 C 
ATOM      4  H   UNL     1      -0.454   7.187   9.481  1.00  0.00     0.164 HD
ENDROOT
BRANCH   2   5
ATOM      5  C   UNL     1      -0.665   7.261  11.612  1.00  0.00     0.171 C 
ATOM      6  C   UNL     1       0.486   4.843  12.724  1.00  0.00     0.214 C 
ATOM      7  N   UNL     1      -0.913   4.865  12.368  1.00  0.00    -0.303 N 
ATOM      8  C   UNL     1       1.021   6.202  13.149  1.00  0.00     0.057 C 
ATOM      9  C   UNL     1      -1.515   5.970  11.786  1.00  0.00     0.247 C 
ATOM     10  C   UNL     1       0.801   7.209  12.041  1.00  0.00     0.040 C 
ATOM     11  O   UNL     1      -2.692   5.951  11.405  1.00  0.00    -0.272 OA
BRANCH   6  12
ATOM     12  O   UNL     1       1.205   4.357  11.613  1.00  0.00    -0.373 OA
ATOM     13  H   UNL     1       0.856   3.462  11.415  1.00  0.00     0.213 HD
ENDBRANCH   6  12
BRANCH   7  14
ATOM     14  C   UNL     1      -1.662   3.599  12.515  1.00  0.00     0.177 C 
BRANCH  14  15
ATOM     15  C   UNL     1      -2.925   3.681  13.394  1.00  0.00     0.038 C 
BRANCH  15  16
ATOM     16  C   UNL     1      -4.132   2.769  13.080  1.00  0.00    -0.015 C 
ATOM     17  C   UNL     1      -5.171   3.461  12.194  1.00  0.00     0.007 C 
ATOM     18  C   UNL     1      -4.817   2.349  14.386  1.00  0.00     0.007 C 
ENDBRANCH  15  16
ENDBRANCH  14  15
BRANCH  14  19
ATOM     19  C   UNL     1      -1.513   2.727  11.220  1.00  0.00     0.245 C 
ATOM     20  O   UNL     1      -1.990   3.195  10.173  1.00  0.00    -0.272 OA
BRANCH  19  21
ATOM     21  N   UNL     1      -0.993   1.445  11.210  1.00  0.00    -0.332 N 
ATOM     22  C   UNL     1       0.340   1.081  10.763  1.00  0.00     0.147 C 
BRANCH  21  23
ATOM     23  C   UNL     1      -1.866   0.336  11.683  1.00  0.00     0.178 C 
BRANCH  23  24
ATOM     24  C   UNL     1      -2.391  -0.593  10.569  1.00  0.00     0.070 C 
BRANCH  24  25
ATOM     25  C   UNL     1      -3.866  -0.919  10.582  1.00  0.00    -0.045 A 
ATOM     26  C   UNL     1      -4.443  -1.679   9.557  1.00  0.00     0.004 A 
ATOM     27  C   UNL     1      -4.683  -0.457  11.625  1.00  0.00     0.004 A 
ATOM     28  C   UNL     1      -5.810  -1.961   9.568  1.00  0.00     0.000 A 
ATOM     29  C   UNL     1      -6.050  -0.740  11.635  1.00  0.00     0.000 A 
ATOM     30  C   UNL     1      -6.613  -1.490  10.605  1.00  0.00     0.000 A 
ENDBRANCH  24  25
ENDBRANCH  23  24
BRANCH  23  31
ATOM     31  C   UNL     1      -1.297  -0.393  12.924  1.00  0.00     0.243 C 
ATOM     32  O   UNL     1      -1.362   0.048  14.069  1.00  0.00    -0.273 OA
ATOM     33  N   UNL     1      -0.538  -1.508  12.611  1.00  0.00    -0.341 N 
ATOM     34  H   UNL     1      -0.518  -1.824  11.638  1.00  0.00     0.164 HD
BRANCH  33  35
ATOM     35  C   UNL     1       0.194  -2.283  13.616  1.00  0.00     0.194 C 
BRANCH  35  36
ATOM     36  C   UNL     1       1.708  -1.942  13.702  1.00  0.00     0.017 C 
ATOM     37  C   UNL     1       2.508  -2.666  12.605  1.00  0.00     0.010 C 
ATOM     38  C   UNL     1       2.337  -2.315  15.050  1.00  0.00     0.010 C 
ENDBRANCH  35  36
BRANCH  35  39
ATOM     39  C   UNL     1      -0.049  -3.813  13.486  1.00  0.00     0.329 C 
ATOM     40  O   UNL     1      -0.126  -4.579  14.439  1.00  0.00    -0.250 OA
BRANCH  39  41
ATOM     41  O   UNL     1      -0.256  -4.198  12.190  1.00  0.00    -0.458 OA
BRANCH  41  42
ATOM     42  C   UNL     1      -0.491  -5.609  11.970  1.00  0.00     0.205 CG0
ATOM     43  C   UNL     1      -1.985  -5.785  11.707  1.00  0.00     0.056 C 
ATOM     44  G   UNL     1      -0.016  -6.386  13.213  1.00  0.00     0.000 G0
ENDBRANCH  41  42
ENDBRANCH  39  41
ENDBRANCH  35  39
ENDBRANCH  33  35
ENDBRANCH  23  31
ENDBRANCH  21  23
ENDBRANCH  19  21
ENDBRANCH  14  19
ENDBRANCH   7  14
ENDBRANCH   2   5
BRANCH   3  45
ATOM     45  C   UNL     1      -1.612   9.293   8.504  1.00  0.00     0.171 C 
BRANCH  45  46
ATOM     46  N   UNL     1      -2.048  10.683   8.474  1.00  0.00    -0.342 N 
ATOM     47  C   UNL     1      -1.608  11.572   7.526  1.00  0.00     0.247 C 
ATOM     48  O   UNL     1      -0.874  11.245   6.592  1.00  0.00    -0.273 OA
ATOM     49  H   UNL     1      -2.700  10.982   9.197  1.00  0.00     0.164 HD
BRANCH  47  50
ATOM     50  C   UNL     1      -2.075  13.021   7.727  1.00  0.00     0.212 CG0
ATOM     51  G   UNL     1      -2.281  13.643   6.331  1.00  0.00     0.000 G0
BRANCH  50  52
ATOM     52  N   UNL     1      -3.307  12.928   8.506  1.00  0.00    -0.339 N 
ATOM     53  C   UNL     1      -3.350  13.071   9.871  1.00  0.00     0.243 C 
ATOM     54  O   UNL     1      -2.342  13.236  10.552  1.00  0.00    -0.273 OA
ATOM     55  H   UNL     1      -4.162  12.682   8.011  1.00  0.00     0.164 HD
BRANCH  53  56
ATOM     56  C   UNL     1      -4.749  12.847  10.482  1.00  0.00     0.182 C 
BRANCH  56  57
ATOM     57  N   UNL     1      -5.675  12.298   9.486  1.00  0.00    -0.344 N 
ATOM     58  C   UNL     1      -6.374  11.134   9.694  1.00  0.00     0.220 C 
ATOM     59  O   UNL     1      -6.218  10.436  10.690  1.00  0.00    -0.275 OA
ATOM     60  H   UNL     1      -5.909  12.894   8.697  1.00  0.00     0.164 HD
BRANCH  58  61
ATOM     61  C   UNL     1      -7.318  10.788   8.558  1.00  0.00     0.100 C 
BRANCH  61  62
ATOM     62  C   UNL     1      -8.297  11.908   8.207  1.00  0.00     0.010 C 
BRANCH  62  63
ATOM     63  C   UNL     1      -9.358  12.174   9.283  1.00  0.00     0.000 C 
BRANCH  63  64
ATOM     64  C   UNL     1     -10.794  11.935   8.820  1.00  0.00    -0.003 C 
ATOM     65  C   UNL     1     -11.729  11.721  10.001  1.00  0.00     0.004 C 
ENDBRANCH  63  64
ENDBRANCH  62  63
ENDBRANCH  61  62
ENDBRANCH  58  61
ENDBRANCH  56  57
BRANCH  56  66
ATOM     66  C   UNL     1      -5.287  14.121  11.131  1.00  0.00     0.157 C 
BRANCH  66  67
ATOM     67  C   UNL     1      -6.210  13.801  12.271  1.00  0.00     0.305 C 
ATOM     68  O   UNL     1      -7.129  14.491  12.686  1.00  0.00    -0.252 OA
BRANCH  67  69
ATOM     69  O   UNL     1      -5.961  12.591  12.808  1.00  0.00    -0.481 OA
ATOM     70  H   UNL     1      -6.802  12.332  13.240  1.00  0.00     0.296 HD
ENDBRANCH  67  69
ENDBRANCH  66  67
ENDBRANCH  56  66
ENDBRANCH  53  56
ENDBRANCH  50  52
ENDBRANCH  47  50
ENDBRANCH  45  46
BRANCH  45  71
ATOM     71  C   UNL     1      -2.638   8.365   7.844  1.00  0.00     0.037 C 
BRANCH  71  72
ATOM     72  C   UNL     1      -2.055   7.631   6.633  1.00  0.00     0.026 C 
BRANCH  72  73
ATOM     73  C   UNL     1      -1.740   6.173   6.961  1.00  0.00     0.146 C 
BRANCH  73  74
ATOM     74  N   UNL     1      -2.609   5.763   8.060  1.00  0.00    -0.254 NA
ATOM     75  C   UNL     1      -3.477   4.849   7.828  1.00  0.00     0.185 C 
ATOM     76  N   UNL     1      -4.290   4.450   8.819  1.00  0.00    -0.370 N 
ATOM     77  N   UNL     1      -3.719   4.185   6.685  1.00  0.00    -0.370 N 
ATOM     78  H   UNL     1      -4.179   4.906   9.714  1.00  0.00     0.159 HD
ATOM     79  H   UNL     1      -5.083   3.850   8.677  1.00  0.00     0.159 HD
ATOM     80  H   UNL     1      -3.180   4.378   5.854  1.00  0.00     0.159 HD
ATOM     81  H   UNL     1      -4.352   3.402   6.653  1.00  0.00     0.159 HD
ENDBRANCH  73  74
ENDBRANCH  72  73
ENDBRANCH  71  72
ENDBRANCH  45  71
ENDBRANCH   3  45
TORSDOF 20
ENDMDL
MODEL 47
REMARK VINA RESULT:    -4.887      8.515     14.398
REMARK INTER + INTRA:         -20.135
REMARK INTER:                 -14.421
REMARK INTRA:                  -5.714
REMARK UNBOUND:                -6.106
REMARK SMILES CCCCCC(=O)N[C@H](CC(=O)O)C(=O)N[C@H]1C(=O)N[C@H](CCCN=C(N)N)C(=O)N[C@@H]2CC[C@H](O)N(C2=O)[C@@H](CC(C)C)C(=O)N(C)[C@@H](Cc2ccccc2)C(=O)N[C@H](C(C)C)C(=O)O[C@@H]1C
REMARK SMILES IDX 30 1 31 2 29 3 32 5 35 6 37 7 34 8 38 9 33 10 39 11 36 12
REMARK SMILES IDX 40 14 41 15 42 16 43 17 44 18 45 19 46 20 47 21 48 22 49 23
REMARK SMILES IDX 50 24 51 25 52 26 56 27 53 28 55 29 54 30 57 31 58 32 59 33
REMARK SMILES IDX 60 35 61 36 62 37 63 38 64 39 65 40 66 41 67 42 68 43 21 45
REMARK SMILES IDX 20 46 18 47 19 48 17 50 16 52 14 53 15 54 9 56 8 57 6 58
REMARK SMILES IDX 7 59 5 61 4 62 3 63 2 64 1 65 10 66 11 67 12 68 13 69 22 71
REMARK SMILES IDX 23 72 24 73 25 74 26 75 27 76 28 77
REMARK H PARENT 31 4 36 13 59 34 20 49 16 55 8 60 13 70 27 78 27 79 28 80
REMARK H PARENT 28 81
REMARK Flexibility Score:  259.900
ROOT
ATOM      1  O   UNL     1      -1.027   4.757  11.389  1.00  0.00    -0.273 OA
ATOM      2  N   UNL     1      -1.562   6.980  11.457  1.00  0.00    -0.343 N 
ATOM      3  C   UNL     1      -1.884   5.639  11.458  1.00  0.00     0.243 C 
ATOM      4  H   UNL     1      -2.292   7.677  11.530  1.00  0.00     0.164 HD
ENDROOT
BRANCH   2   5
ATOM      5  C   UNL     1      -0.185   7.413  11.250  1.00  0.00     0.171 C 
ATOM      6  C   UNL     1       1.343   9.655  12.270  1.00  0.00     0.214 C 
ATOM      7  N   UNL     1       0.622   9.794  11.026  1.00  0.00    -0.303 N 
ATOM      8  C   UNL     1       1.813   8.234  12.538  1.00  0.00     0.057 C 
ATOM      9  C   UNL     1      -0.168   8.780  10.509  1.00  0.00     0.247 C 
ATOM     10  C   UNL     1       0.627   7.294  12.539  1.00  0.00     0.040 C 
ATOM     11  O   UNL     1      -0.851   8.937   9.488  1.00  0.00    -0.272 OA
BRANCH   6  12
ATOM     12  O   UNL     1       0.501  10.100  13.308  1.00  0.00    -0.373 OA
ATOM     13  H   UNL     1       0.121  10.958  13.023  1.00  0.00     0.213 HD
ENDBRANCH   6  12
BRANCH   7  14
ATOM     14  C   UNL     1       0.638  11.127  10.387  1.00  0.00     0.177 C 
BRANCH  14  15
ATOM     15  C   UNL     1      -0.714  11.866  10.376  1.00  0.00     0.038 C 
BRANCH  15  16
ATOM     16  C   UNL     1      -1.334  12.300   9.029  1.00  0.00    -0.015 C 
ATOM     17  C   UNL     1      -0.631  13.521   8.430  1.00  0.00     0.007 C 
ATOM     18  C   UNL     1      -2.815  12.646   9.227  1.00  0.00     0.007 C 
ENDBRANCH  15  16
ENDBRANCH  14  15
BRANCH  14  19
ATOM     19  C   UNL     1       2.039  11.804  10.576  1.00  0.00     0.245 C 
ATOM     20  O   UNL     1       2.984  11.323   9.928  1.00  0.00    -0.272 OA
BRANCH  19  21
ATOM     21  N   UNL     1       2.293  12.811  11.491  1.00  0.00    -0.332 N 
ATOM     22  C   UNL     1       2.708  12.613  12.868  1.00  0.00     0.147 C 
BRANCH  21  23
ATOM     23  C   UNL     1       2.118  14.219  11.041  1.00  0.00     0.178 C 
BRANCH  23  24
ATOM     24  C   UNL     1       1.343  15.120  12.024  1.00  0.00     0.070 C 
BRANCH  24  25
ATOM     25  C   UNL     1      -0.153  15.220  11.832  1.00  0.00    -0.045 A 
ATOM     26  C   UNL     1      -0.696  16.067  10.859  1.00  0.00     0.004 A 
ATOM     27  C   UNL     1      -1.021  14.464  12.635  1.00  0.00     0.004 A 
ATOM     28  C   UNL     1      -2.080  16.167  10.699  1.00  0.00     0.000 A 
ATOM     29  C   UNL     1      -2.404  14.564  12.474  1.00  0.00     0.000 A 
ATOM     30  C   UNL     1      -2.932  15.418  11.508  1.00  0.00     0.000 A 
ENDBRANCH  24  25
ENDBRANCH  23  24
BRANCH  23  31
ATOM     31  C   UNL     1       3.420  14.839  10.478  1.00  0.00     0.243 C 
ATOM     32  O   UNL     1       4.465  14.214  10.318  1.00  0.00    -0.273 OA
ATOM     33  N   UNL     1       3.362  16.216  10.341  1.00  0.00    -0.341 N 
ATOM     34  H   UNL     1       2.465  16.682  10.494  1.00  0.00     0.164 HD
BRANCH  33  35
ATOM     35  C   UNL     1       4.515  17.027   9.939  1.00  0.00     0.194 C 
BRANCH  35  36
ATOM     36  C   UNL     1       5.290  17.662  11.128  1.00  0.00     0.017 C 
ATOM     37  C   UNL     1       6.542  16.839  11.482  1.00  0.00     0.010 C 
ATOM     38  C   UNL     1       4.447  17.785  12.403  1.00  0.00     0.010 C 
ENDBRANCH  35  36
BRANCH  35  39
ATOM     39  C   UNL     1       4.155  18.079   8.853  1.00  0.00     0.329 C 
ATOM     40  O   UNL     1       3.097  18.696   8.819  1.00  0.00    -0.250 OA
BRANCH  39  41
ATOM     41  O   UNL     1       5.188  18.305   7.986  1.00  0.00    -0.458 OA
BRANCH  41  42
ATOM     42  C   UNL     1       5.266  19.633   7.413  1.00  0.00     0.205 CG0
ATOM     43  C   UNL     1       5.416  19.467   5.903  1.00  0.00     0.056 C 
ATOM     44  G   UNL     1       6.460  20.373   8.047  1.00  0.00     0.000 G0
ENDBRANCH  41  42
ENDBRANCH  39  41
ENDBRANCH  35  39
ENDBRANCH  33  35
ENDBRANCH  23  31
ENDBRANCH  21  23
ENDBRANCH  19  21
ENDBRANCH  14  19
ENDBRANCH   7  14
ENDBRANCH   2   5
BRANCH   3  45
ATOM     45  C   UNL     1      -3.380   5.322  11.575  1.00  0.00     0.171 C 
BRANCH  45  46
ATOM     46  N   UNL     1      -3.468   4.139  12.420  1.00  0.00    -0.342 N 
ATOM     47  C   UNL     1      -4.258   4.091  13.541  1.00  0.00     0.247 C 
ATOM     48  O   UNL     1      -5.004   5.013  13.872  1.00  0.00    -0.273 OA
ATOM     49  H   UNL     1      -2.909   3.332  12.150  1.00  0.00     0.164 HD
BRANCH  47  50
ATOM     50  C   UNL     1      -4.127   2.809  14.375  1.00  0.00     0.212 CG0
ATOM     51  G   UNL     1      -5.335   2.747  15.330  1.00  0.00     0.000 G0
BRANCH  50  52
ATOM     52  N   UNL     1      -4.100   1.715  13.407  1.00  0.00    -0.339 N 
ATOM     53  C   UNL     1      -3.046   0.844  13.280  1.00  0.00     0.243 C 
ATOM     54  O   UNL     1      -2.016   0.951  13.939  1.00  0.00    -0.273 OA
ATOM     55  H   UNL     1      -4.879   1.642  12.755  1.00  0.00     0.164 HD
BRANCH  53  56
ATOM     56  C   UNL     1      -3.208  -0.173  12.132  1.00  0.00     0.182 C 
BRANCH  56  57
ATOM     57  N   UNL     1      -2.352   0.177  10.994  1.00  0.00    -0.344 N 
ATOM     58  C   UNL     1      -2.605   1.260  10.188  1.00  0.00     0.220 C 
ATOM     59  O   UNL     1      -3.600   1.965  10.318  1.00  0.00    -0.275 OA
ATOM     60  H   UNL     1      -1.467  -0.317  10.914  1.00  0.00     0.164 HD
BRANCH  58  61
ATOM     61  C   UNL     1      -1.557   1.466   9.110  1.00  0.00     0.100 C 
BRANCH  61  62
ATOM     62  C   UNL     1      -1.376   2.926   8.697  1.00  0.00     0.010 C 
BRANCH  62  63
ATOM     63  C   UNL     1      -2.113   3.309   7.407  1.00  0.00     0.000 C 
BRANCH  63  64
ATOM     64  C   UNL     1      -2.038   4.795   7.059  1.00  0.00    -0.003 C 
ATOM     65  C   UNL     1      -1.340   5.018   5.726  1.00  0.00     0.004 C 
ENDBRANCH  63  64
ENDBRANCH  62  63
ENDBRANCH  61  62
ENDBRANCH  58  61
ENDBRANCH  56  57
BRANCH  56  66
ATOM     66  C   UNL     1      -4.672  -0.331  11.725  1.00  0.00     0.157 C 
BRANCH  66  67
ATOM     67  C   UNL     1      -5.131  -1.751  11.887  1.00  0.00     0.305 C 
ATOM     68  O   UNL     1      -6.156  -2.245  11.441  1.00  0.00    -0.252 OA
BRANCH  67  69
ATOM     69  O   UNL     1      -4.243  -2.502  12.565  1.00  0.00    -0.481 OA
ATOM     70  H   UNL     1      -4.609  -2.564  13.473  1.00  0.00     0.296 HD
ENDBRANCH  67  69
ENDBRANCH  66  67
ENDBRANCH  56  66
ENDBRANCH  53  56
ENDBRANCH  50  52
ENDBRANCH  47  50
ENDBRANCH  45  46
BRANCH  45  71
ATOM     71  C   UNL     1      -3.983   5.072  10.188  1.00  0.00     0.037 C 
BRANCH  71  72
ATOM     72  C   UNL     1      -5.209   5.951   9.926  1.00  0.00     0.026 C 
BRANCH  72  73
ATOM     73  C   UNL     1      -6.494   5.126   9.900  1.00  0.00     0.146 C 
BRANCH  73  74
ATOM     74  N   UNL     1      -7.150   5.280  11.195  1.00  0.00    -0.254 NA
ATOM     75  C   UNL     1      -7.505   4.216  11.816  1.00  0.00     0.185 C 
ATOM     76  N   UNL     1      -8.110   4.325  13.010  1.00  0.00    -0.370 N 
ATOM     77  N   UNL     1      -7.362   2.932  11.444  1.00  0.00    -0.370 N 
ATOM     78  H   UNL     1      -8.264   5.259  13.362  1.00  0.00     0.159 HD
ATOM     79  H   UNL     1      -8.543   3.552  13.484  1.00  0.00     0.159 HD
ATOM     80  H   UNL     1      -6.920   2.698  10.568  1.00  0.00     0.159 HD
ATOM     81  H   UNL     1      -7.578   2.174  12.069  1.00  0.00     0.159 HD
ENDBRANCH  73  74
ENDBRANCH  72  73
ENDBRANCH  71  72
ENDBRANCH  45  71
ENDBRANCH   3  45
TORSDOF 20
ENDMDL
MODEL 48
REMARK VINA RESULT:    -4.884      6.864     15.510
REMARK INTER + INTRA:         -20.127
REMARK INTER:                 -14.268
REMARK INTRA:                  -5.859
REMARK UNBOUND:                -6.106
REMARK SMILES CCCCCC(=O)N[C@H](CC(=O)O)C(=O)N[C@H]1C(=O)N[C@H](CCCN=C(N)N)C(=O)N[C@@H]2CC[C@H](O)N(C2=O)[C@@H](CC(C)C)C(=O)N(C)[C@@H](Cc2ccccc2)C(=O)N[C@H](C(C)C)C(=O)O[C@@H]1C
REMARK SMILES IDX 30 1 31 2 29 3 32 5 35 6 37 7 34 8 38 9 33 10 39 11 36 12
REMARK SMILES IDX 40 14 41 15 42 16 43 17 44 18 45 19 46 20 47 21 48 22 49 23
REMARK SMILES IDX 50 24 51 25 52 26 56 27 53 28 55 29 54 30 57 31 58 32 59 33
REMARK SMILES IDX 60 35 61 36 62 37 63 38 64 39 65 40 66 41 67 42 68 43 21 45
REMARK SMILES IDX 20 46 18 47 19 48 17 50 16 52 14 53 15 54 9 56 8 57 6 58
REMARK SMILES IDX 7 59 5 61 4 62 3 63 2 64 1 65 10 66 11 67 12 68 13 69 22 71
REMARK SMILES IDX 23 72 24 73 25 74 26 75 27 76 28 77
REMARK H PARENT 31 4 36 13 59 34 20 49 16 55 8 60 13 70 27 78 27 79 28 80
REMARK H PARENT 28 81
REMARK Flexibility Score:  259.900
ROOT
ATOM      1  O   UNL     1      -1.450   6.087  11.567  1.00  0.00    -0.273 OA
ATOM      2  N   UNL     1      -1.607   7.294   9.630  1.00  0.00    -0.343 N 
ATOM      3  C   UNL     1      -2.041   6.329  10.514  1.00  0.00     0.243 C 
ATOM      4  H   UNL     1      -2.126   7.476   8.781  1.00  0.00     0.164 HD
ENDROOT
BRANCH   2   5
ATOM      5  C   UNL     1      -0.346   7.993   9.855  1.00  0.00     0.171 C 
ATOM      6  C   UNL     1       1.056  10.043   8.360  1.00  0.00     0.214 C 
ATOM      7  N   UNL     1       1.338   8.652   8.093  1.00  0.00    -0.303 N 
ATOM      8  C   UNL     1       0.635  10.307   9.797  1.00  0.00     0.057 C 
ATOM      9  C   UNL     1       0.669   7.623   8.735  1.00  0.00     0.247 C 
ATOM     10  C   UNL     1      -0.583   9.476  10.135  1.00  0.00     0.040 C 
ATOM     11  O   UNL     1       0.854   6.435   8.439  1.00  0.00    -0.272 OA
BRANCH   6  12
ATOM     12  O   UNL     1       0.047  10.457   7.468  1.00  0.00    -0.373 OA
ATOM     13  H   UNL     1      -0.112  11.410   7.635  1.00  0.00     0.213 HD
ENDBRANCH   6  12
BRANCH   7  14
ATOM     14  C   UNL     1       2.278   8.358   6.991  1.00  0.00     0.177 C 
BRANCH  14  15
ATOM     15  C   UNL     1       2.199   6.926   6.426  1.00  0.00     0.038 C 
BRANCH  15  16
ATOM     16  C   UNL     1       3.482   6.070   6.342  1.00  0.00    -0.015 C 
ATOM     17  C   UNL     1       3.181   4.569   6.295  1.00  0.00     0.007 C 
ATOM     18  C   UNL     1       4.370   6.345   7.563  1.00  0.00     0.007 C 
ENDBRANCH  15  16
ENDBRANCH  14  15
BRANCH  14  19
ATOM     19  C   UNL     1       2.548   9.652   6.148  1.00  0.00     0.245 C 
ATOM     20  O   UNL     1       3.108  10.594   6.733  1.00  0.00    -0.272 OA
BRANCH  19  21
ATOM     21  N   UNL     1       2.104   9.834   4.850  1.00  0.00    -0.332 N 
ATOM     22  C   UNL     1       0.723  10.046   4.454  1.00  0.00     0.147 C 
BRANCH  21  23
ATOM     23  C   UNL     1       3.115   9.800   3.757  1.00  0.00     0.178 C 
BRANCH  23  24
ATOM     24  C   UNL     1       3.128   8.498   2.930  1.00  0.00     0.070 C 
BRANCH  24  25
ATOM     25  C   UNL     1       4.253   7.525   3.195  1.00  0.00    -0.045 A 
ATOM     26  C   UNL     1       4.150   6.185   2.801  1.00  0.00     0.004 A 
ATOM     27  C   UNL     1       5.419   7.953   3.847  1.00  0.00     0.004 A 
ATOM     28  C   UNL     1       5.187   5.288   3.065  1.00  0.00     0.000 A 
ATOM     29  C   UNL     1       6.455   7.055   4.109  1.00  0.00     0.000 A 
ATOM     30  C   UNL     1       6.337   5.723   3.721  1.00  0.00     0.000 A 
ENDBRANCH  24  25
ENDBRANCH  23  24
BRANCH  23  31
ATOM     31  C   UNL     1       3.146  11.103   2.923  1.00  0.00     0.243 C 
ATOM     32  O   UNL     1       3.139  12.230   3.410  1.00  0.00    -0.273 OA
ATOM     33  N   UNL     1       2.994  10.892   1.563  1.00  0.00    -0.341 N 
ATOM     34  H   UNL     1       3.000   9.929   1.217  1.00  0.00     0.164 HD
BRANCH  33  35
ATOM     35  C   UNL     1       2.875  11.985   0.594  1.00  0.00     0.194 C 
BRANCH  35  36
ATOM     36  C   UNL     1       1.576  11.938  -0.260  1.00  0.00     0.017 C 
ATOM     37  C   UNL     1       0.642  13.113   0.078  1.00  0.00     0.010 C 
ATOM     38  C   UNL     1       0.774  10.645  -0.070  1.00  0.00     0.010 C 
ENDBRANCH  35  36
BRANCH  35  39
ATOM     39  C   UNL     1       4.144  12.142  -0.289  1.00  0.00     0.329 C 
ATOM     40  O   UNL     1       5.277  11.860   0.082  1.00  0.00    -0.250 OA
BRANCH  39  41
ATOM     41  O   UNL     1       3.846  12.548  -1.561  1.00  0.00    -0.458 OA
BRANCH  41  42
ATOM     42  C   UNL     1       4.576  13.697  -2.054  1.00  0.00     0.205 CG0
ATOM     43  C   UNL     1       3.875  14.944  -1.520  1.00  0.00     0.056 C 
ATOM     44  G   UNL     1       4.592  13.644  -3.595  1.00  0.00     0.000 G0
ENDBRANCH  41  42
ENDBRANCH  39  41
ENDBRANCH  35  39
ENDBRANCH  33  35
ENDBRANCH  23  31
ENDBRANCH  21  23
ENDBRANCH  19  21
ENDBRANCH  14  19
ENDBRANCH   7  14
ENDBRANCH   2   5
BRANCH   3  45
ATOM     45  C   UNL     1      -3.324   5.594  10.106  1.00  0.00     0.171 C 
BRANCH  45  46
ATOM     46  N   UNL     1      -3.922   5.124  11.349  1.00  0.00    -0.342 N 
ATOM     47  C   UNL     1      -5.272   5.182  11.585  1.00  0.00     0.247 C 
ATOM     48  O   UNL     1      -6.082   5.565  10.740  1.00  0.00    -0.273 OA
ATOM     49  H   UNL     1      -3.292   4.746  12.055  1.00  0.00     0.164 HD
BRANCH  47  50
ATOM     50  C   UNL     1      -5.704   4.759  12.996  1.00  0.00     0.212 CG0
ATOM     51  G   UNL     1      -7.176   5.182  13.180  1.00  0.00     0.000 G0
BRANCH  50  52
ATOM     52  N   UNL     1      -5.509   3.313  13.046  1.00  0.00    -0.339 N 
ATOM     53  C   UNL     1      -4.594   2.702  13.867  1.00  0.00     0.243 C 
ATOM     54  O   UNL     1      -3.827   3.333  14.589  1.00  0.00    -0.273 OA
ATOM     55  H   UNL     1      -6.038   2.741  12.389  1.00  0.00     0.164 HD
BRANCH  53  56
ATOM     56  C   UNL     1      -4.507   1.173  13.683  1.00  0.00     0.182 C 
BRANCH  56  57
ATOM     57  N   UNL     1      -3.527   0.822  12.649  1.00  0.00    -0.344 N 
ATOM     58  C   UNL     1      -2.207   0.578  12.939  1.00  0.00     0.220 C 
ATOM     59  O   UNL     1      -1.740   0.707  14.066  1.00  0.00    -0.275 OA
ATOM     60  H   UNL     1      -3.890   0.607  11.725  1.00  0.00     0.164 HD
BRANCH  58  61
ATOM     61  C   UNL     1      -1.389   0.176  11.726  1.00  0.00     0.100 C 
BRANCH  61  62
ATOM     62  C   UNL     1      -1.180   1.309  10.721  1.00  0.00     0.010 C 
BRANCH  62  63
ATOM     63  C   UNL     1      -1.387   0.896   9.258  1.00  0.00     0.000 C 
BRANCH  63  64
ATOM     64  C   UNL     1      -0.190   1.178   8.352  1.00  0.00    -0.003 C 
ATOM     65  C   UNL     1       0.079   2.672   8.237  1.00  0.00     0.004 C 
ENDBRANCH  63  64
ENDBRANCH  62  63
ENDBRANCH  61  62
ENDBRANCH  58  61
ENDBRANCH  56  57
BRANCH  56  66
ATOM     66  C   UNL     1      -5.880   0.563  13.406  1.00  0.00     0.157 C 
BRANCH  66  67
ATOM     67  C   UNL     1      -5.840  -0.347  12.213  1.00  0.00     0.305 C 
ATOM     68  O   UNL     1      -6.181  -0.075  11.072  1.00  0.00    -0.252 OA
BRANCH  67  69
ATOM     69  O   UNL     1      -5.320  -1.554  12.507  1.00  0.00    -0.481 OA
ATOM     70  H   UNL     1      -4.404  -1.366  12.804  1.00  0.00     0.296 HD
ENDBRANCH  67  69
ENDBRANCH  66  67
ENDBRANCH  56  66
ENDBRANCH  53  56
ENDBRANCH  50  52
ENDBRANCH  47  50
ENDBRANCH  45  46
BRANCH  45  71
ATOM     71  C   UNL     1      -2.996   4.432   9.162  1.00  0.00     0.037 C 
BRANCH  71  72
ATOM     72  C   UNL     1      -3.522   4.674   7.745  1.00  0.00     0.026 C 
BRANCH  72  73
ATOM     73  C   UNL     1      -2.429   5.218   6.827  1.00  0.00     0.146 C 
BRANCH  73  74
ATOM     74  N   UNL     1      -2.438   6.674   6.935  1.00  0.00    -0.254 NA
ATOM     75  C   UNL     1      -1.747   7.342   6.087  1.00  0.00     0.185 C 
ATOM     76  N   UNL     1      -1.736   8.682   6.160  1.00  0.00    -0.370 N 
ATOM     77  N   UNL     1      -0.986   6.890   5.075  1.00  0.00    -0.370 N 
ATOM     78  H   UNL     1      -2.279   9.105   6.900  1.00  0.00     0.159 HD
ATOM     79  H   UNL     1      -1.111   9.261   5.627  1.00  0.00     0.159 HD
ATOM     80  H   UNL     1      -0.903   5.901   4.896  1.00  0.00     0.159 HD
ATOM     81  H   UNL     1      -0.579   7.516   4.399  1.00  0.00     0.159 HD
ENDBRANCH  73  74
ENDBRANCH  72  73
ENDBRANCH  71  72
ENDBRANCH  45  71
ENDBRANCH   3  45
TORSDOF 20
ENDMDL
MODEL 49
REMARK VINA RESULT:    -4.872      9.371     13.397
REMARK INTER + INTRA:         -20.091
REMARK INTER:                 -13.890
REMARK INTRA:                  -6.201
REMARK UNBOUND:                -6.106
REMARK SMILES CCCCCC(=O)N[C@H](CC(=O)O)C(=O)N[C@H]1C(=O)N[C@H](CCCN=C(N)N)C(=O)N[C@@H]2CC[C@H](O)N(C2=O)[C@@H](CC(C)C)C(=O)N(C)[C@@H](Cc2ccccc2)C(=O)N[C@H](C(C)C)C(=O)O[C@@H]1C
REMARK SMILES IDX 30 1 31 2 29 3 32 5 35 6 37 7 34 8 38 9 33 10 39 11 36 12
REMARK SMILES IDX 40 14 41 15 42 16 43 17 44 18 45 19 46 20 47 21 48 22 49 23
REMARK SMILES IDX 50 24 51 25 52 26 56 27 53 28 55 29 54 30 57 31 58 32 59 33
REMARK SMILES IDX 60 35 61 36 62 37 63 38 64 39 65 40 66 41 67 42 68 43 21 45
REMARK SMILES IDX 20 46 18 47 19 48 17 50 16 52 14 53 15 54 9 56 8 57 6 58
REMARK SMILES IDX 7 59 5 61 4 62 3 63 2 64 1 65 10 66 11 67 12 68 13 69 22 71
REMARK SMILES IDX 23 72 24 73 25 74 26 75 27 76 28 77
REMARK H PARENT 31 4 36 13 59 34 20 49 16 55 8 60 13 70 27 78 27 79 28 80
REMARK H PARENT 28 81
REMARK Flexibility Score:  259.900
ROOT
ATOM      1  O   UNL     1      -1.942   2.398   9.148  1.00  0.00    -0.273 OA
ATOM      2  N   UNL     1      -0.882   3.163  11.025  1.00  0.00    -0.343 N 
ATOM      3  C   UNL     1      -1.031   2.289   9.969  1.00  0.00     0.243 C 
ATOM      4  H   UNL     1      -0.112   3.052  11.672  1.00  0.00     0.164 HD
ENDROOT
BRANCH   2   5
ATOM      5  C   UNL     1      -1.882   4.194  11.281  1.00  0.00     0.171 C 
ATOM      6  C   UNL     1      -4.191   5.107   9.785  1.00  0.00     0.214 C 
ATOM      7  N   UNL     1      -2.912   5.744   9.576  1.00  0.00    -0.303 N 
ATOM      8  C   UNL     1      -4.369   4.560  11.193  1.00  0.00     0.057 C 
ATOM      9  C   UNL     1      -1.759   5.324  10.220  1.00  0.00     0.247 C 
ATOM     10  C   UNL     1      -3.262   3.576  11.503  1.00  0.00     0.040 C 
ATOM     11  O   UNL     1      -0.652   5.818   9.971  1.00  0.00    -0.272 OA
BRANCH   6  12
ATOM     12  O   UNL     1      -4.317   4.073   8.836  1.00  0.00    -0.373 OA
ATOM     13  H   UNL     1      -4.190   4.478   7.951  1.00  0.00     0.213 HD
ENDBRANCH   6  12
BRANCH   7  14
ATOM     14  C   UNL     1      -2.844   6.782   8.526  1.00  0.00     0.177 C 
BRANCH  14  15
ATOM     15  C   UNL     1      -2.861   6.253   7.078  1.00  0.00     0.038 C 
BRANCH  15  16
ATOM     16  C   UNL     1      -1.526   6.035   6.332  1.00  0.00    -0.015 C 
ATOM     17  C   UNL     1      -0.901   4.671   6.640  1.00  0.00     0.007 C 
ATOM     18  C   UNL     1      -0.523   7.124   6.734  1.00  0.00     0.007 C 
ENDBRANCH  15  16
ENDBRANCH  14  15
BRANCH  14  19
ATOM     19  C   UNL     1      -3.536   8.100   9.018  1.00  0.00     0.245 C 
ATOM     20  O   UNL     1      -4.359   7.988   9.942  1.00  0.00    -0.272 OA
BRANCH  19  21
ATOM     21  N   UNL     1      -3.365   9.333   8.413  1.00  0.00    -0.332 N 
ATOM     22  C   UNL     1      -3.858   9.702   7.099  1.00  0.00     0.147 C 
BRANCH  21  23
ATOM     23  C   UNL     1      -2.604  10.373   9.159  1.00  0.00     0.178 C 
BRANCH  23  24
ATOM     24  C   UNL     1      -1.508  11.083   8.338  1.00  0.00     0.070 C 
BRANCH  24  25
ATOM     25  C   UNL     1      -0.146  10.431   8.300  1.00  0.00    -0.045 A 
ATOM     26  C   UNL     1       0.726  10.651   7.226  1.00  0.00     0.004 A 
ATOM     27  C   UNL     1       0.265   9.588   9.344  1.00  0.00     0.004 A 
ATOM     28  C   UNL     1       1.977  10.031   7.190  1.00  0.00     0.000 A 
ATOM     29  C   UNL     1       1.515   8.970   9.308  1.00  0.00     0.000 A 
ATOM     30  C   UNL     1       2.369   9.190   8.229  1.00  0.00     0.000 A 
ENDBRANCH  24  25
ENDBRANCH  23  24
BRANCH  23  31
ATOM     31  C   UNL     1      -3.516  11.316   9.980  1.00  0.00     0.243 C 
ATOM     32  O   UNL     1      -4.008  11.021  11.066  1.00  0.00    -0.273 OA
ATOM     33  N   UNL     1      -3.886  12.462   9.297  1.00  0.00    -0.341 N 
ATOM     34  H   UNL     1      -3.446  12.651   8.393  1.00  0.00     0.164 HD
BRANCH  33  35
ATOM     35  C   UNL     1      -4.838  13.439   9.832  1.00  0.00     0.194 C 
BRANCH  35  36
ATOM     36  C   UNL     1      -6.254  13.360   9.196  1.00  0.00     0.017 C 
ATOM     37  C   UNL     1      -7.257  12.683  10.147  1.00  0.00     0.010 C 
ATOM     38  C   UNL     1      -6.280  12.584   7.874  1.00  0.00     0.010 C 
ENDBRANCH  35  36
BRANCH  35  39
ATOM     39  C   UNL     1      -4.277  14.888   9.821  1.00  0.00     0.329 C 
ATOM     40  O   UNL     1      -3.104  15.168   9.603  1.00  0.00    -0.250 OA
BRANCH  39  41
ATOM     41  O   UNL     1      -5.256  15.827   9.995  1.00  0.00    -0.458 OA
BRANCH  41  42
ATOM     42  C   UNL     1      -5.201  16.590  11.224  1.00  0.00     0.205 CG0
ATOM     43  C   UNL     1      -6.215  15.976  12.186  1.00  0.00     0.056 C 
ATOM     44  G   UNL     1      -5.513  18.065  10.900  1.00  0.00     0.000 G0
ENDBRANCH  41  42
ENDBRANCH  39  41
ENDBRANCH  35  39
ENDBRANCH  33  35
ENDBRANCH  23  31
ENDBRANCH  21  23
ENDBRANCH  19  21
ENDBRANCH  14  19
ENDBRANCH   7  14
ENDBRANCH   2   5
BRANCH   3  45
ATOM     45  C   UNL     1       0.031   1.186   9.876  1.00  0.00     0.171 C 
BRANCH  45  46
ATOM     46  N   UNL     1      -0.708  -0.060   9.724  1.00  0.00    -0.342 N 
ATOM     47  C   UNL     1      -0.734  -0.763   8.546  1.00  0.00     0.247 C 
ATOM     48  O   UNL     1      -0.079  -0.433   7.557  1.00  0.00    -0.273 OA
ATOM     49  H   UNL     1      -1.220  -0.400  10.537  1.00  0.00     0.164 HD
BRANCH  47  50
ATOM     50  C   UNL     1      -1.665  -1.984   8.537  1.00  0.00     0.212 CG0
ATOM     51  G   UNL     1      -0.804  -3.226   8.234  1.00  0.00     0.000 G0
BRANCH  50  52
ATOM     52  N   UNL     1      -2.278  -2.015   9.862  1.00  0.00    -0.339 N 
ATOM     53  C   UNL     1      -3.637  -1.995  10.067  1.00  0.00     0.243 C 
ATOM     54  O   UNL     1      -4.443  -1.895   9.147  1.00  0.00    -0.273 OA
ATOM     55  H   UNL     1      -1.660  -1.987  10.670  1.00  0.00     0.164 HD
BRANCH  53  56
ATOM     56  C   UNL     1      -4.046  -1.949  11.553  1.00  0.00     0.182 C 
BRANCH  56  57
ATOM     57  N   UNL     1      -5.009  -3.009  11.867  1.00  0.00    -0.344 N 
ATOM     58  C   UNL     1      -4.661  -4.131  12.580  1.00  0.00     0.220 C 
ATOM     59  O   UNL     1      -3.511  -4.359  12.939  1.00  0.00    -0.275 OA
ATOM     60  H   UNL     1      -5.988  -2.813  11.678  1.00  0.00     0.164 HD
BRANCH  58  61
ATOM     61  C   UNL     1      -5.829  -5.065  12.839  1.00  0.00     0.100 C 
BRANCH  61  62
ATOM     62  C   UNL     1      -5.553  -6.112  13.918  1.00  0.00     0.010 C 
BRANCH  62  63
ATOM     63  C   UNL     1      -6.739  -6.375  14.855  1.00  0.00     0.000 C 
BRANCH  63  64
ATOM     64  C   UNL     1      -6.593  -5.753  16.242  1.00  0.00    -0.003 C 
ATOM     65  C   UNL     1      -5.159  -5.315  16.506  1.00  0.00     0.004 C 
ENDBRANCH  63  64
ENDBRANCH  62  63
ENDBRANCH  61  62
ENDBRANCH  58  61
ENDBRANCH  56  57
BRANCH  56  66
ATOM     66  C   UNL     1      -4.563  -0.566  11.948  1.00  0.00     0.157 C 
BRANCH  66  67
ATOM     67  C   UNL     1      -6.045  -0.587  12.186  1.00  0.00     0.305 C 
ATOM     68  O   UNL     1      -6.613  -0.678  13.264  1.00  0.00    -0.252 OA
BRANCH  67  69
ATOM     69  O   UNL     1      -6.748  -0.438  11.048  1.00  0.00    -0.481 OA
ATOM     70  H   UNL     1      -6.072  -0.295  10.353  1.00  0.00     0.296 HD
ENDBRANCH  67  69
ENDBRANCH  66  67
ENDBRANCH  56  66
ENDBRANCH  53  56
ENDBRANCH  50  52
ENDBRANCH  47  50
ENDBRANCH  45  46
BRANCH  45  71
ATOM     71  C   UNL     1       0.904   1.176  11.136  1.00  0.00     0.037 C 
BRANCH  71  72
ATOM     72  C   UNL     1       2.361   1.532  10.830  1.00  0.00     0.026 C 
BRANCH  72  73
ATOM     73  C   UNL     1       2.608   3.034  10.948  1.00  0.00     0.146 C 
BRANCH  73  74
ATOM     74  N   UNL     1       1.995   3.491  12.192  1.00  0.00    -0.254 NA
ATOM     75  C   UNL     1       1.772   4.746  12.324  1.00  0.00     0.185 C 
ATOM     76  N   UNL     1       1.208   5.197  13.456  1.00  0.00    -0.370 N 
ATOM     77  N   UNL     1       2.025   5.745  11.460  1.00  0.00    -0.370 N 
ATOM     78  H   UNL     1       0.991   4.510  14.164  1.00  0.00     0.159 HD
ATOM     79  H   UNL     1       1.136   6.172  13.689  1.00  0.00     0.159 HD
ATOM     80  H   UNL     1       2.446   5.554  10.563  1.00  0.00     0.159 HD
ATOM     81  H   UNL     1       1.699   6.683  11.626  1.00  0.00     0.159 HD
ENDBRANCH  73  74
ENDBRANCH  72  73
ENDBRANCH  71  72
ENDBRANCH  45  71
ENDBRANCH   3  45
TORSDOF 20
ENDMDL
MODEL 50
REMARK VINA RESULT:    -4.859      6.621     14.269
REMARK INTER + INTRA:         -20.055
REMARK INTER:                 -14.906
REMARK INTRA:                  -5.149
REMARK UNBOUND:                -6.106
REMARK SMILES CCCCCC(=O)N[C@H](CC(=O)O)C(=O)N[C@H]1C(=O)N[C@H](CCCN=C(N)N)C(=O)N[C@@H]2CC[C@H](O)N(C2=O)[C@@H](CC(C)C)C(=O)N(C)[C@@H](Cc2ccccc2)C(=O)N[C@H](C(C)C)C(=O)O[C@@H]1C
REMARK SMILES IDX 30 1 31 2 29 3 32 5 35 6 37 7 34 8 38 9 33 10 39 11 36 12
REMARK SMILES IDX 40 14 41 15 42 16 43 17 44 18 45 19 46 20 47 21 48 22 49 23
REMARK SMILES IDX 50 24 51 25 52 26 56 27 53 28 55 29 54 30 57 31 58 32 59 33
REMARK SMILES IDX 60 35 61 36 62 37 63 38 64 39 65 40 66 41 67 42 68 43 21 45
REMARK SMILES IDX 20 46 18 47 19 48 17 50 16 52 14 53 15 54 9 56 8 57 6 58
REMARK SMILES IDX 7 59 5 61 4 62 3 63 2 64 1 65 10 66 11 67 12 68 13 69 22 71
REMARK SMILES IDX 23 72 24 73 25 74 26 75 27 76 28 77
REMARK H PARENT 31 4 36 13 59 34 20 49 16 55 8 60 13 70 27 78 27 79 28 80
REMARK H PARENT 28 81
REMARK Flexibility Score:  259.900
ROOT
ATOM      1  O   UNL     1      -0.643   6.803   8.929  1.00  0.00    -0.273 OA
ATOM      2  N   UNL     1      -2.242   6.229   7.399  1.00  0.00    -0.343 N 
ATOM      3  C   UNL     1      -1.754   6.332   8.683  1.00  0.00     0.243 C 
ATOM      4  H   UNL     1      -3.167   5.849   7.235  1.00  0.00     0.164 HD
ENDROOT
BRANCH   2   5
ATOM      5  C   UNL     1      -1.402   6.568   6.255  1.00  0.00     0.171 C 
ATOM      6  C   UNL     1       1.288   7.626   6.040  1.00  0.00     0.214 C 
ATOM      7  N   UNL     1       0.168   8.537   6.079  1.00  0.00    -0.303 N 
ATOM      8  C   UNL     1       0.950   6.282   5.414  1.00  0.00     0.057 C 
ATOM      9  C   UNL     1      -1.138   8.101   6.232  1.00  0.00     0.247 C 
ATOM     10  C   UNL     1      -0.193   5.639   6.168  1.00  0.00     0.040 C 
ATOM     11  O   UNL     1      -2.084   8.891   6.351  1.00  0.00    -0.272 OA
BRANCH   6  12
ATOM     12  O   UNL     1       1.748   7.452   7.360  1.00  0.00    -0.373 OA
ATOM     13  H   UNL     1       1.191   6.755   7.769  1.00  0.00     0.213 HD
ENDBRANCH   6  12
BRANCH   7  14
ATOM     14  C   UNL     1       0.479   9.982   6.097  1.00  0.00     0.177 C 
BRANCH  14  15
ATOM     15  C   UNL     1       0.635  10.602   7.499  1.00  0.00     0.038 C 
BRANCH  15  16
ATOM     16  C   UNL     1       0.049  12.004   7.780  1.00  0.00    -0.015 C 
ATOM     17  C   UNL     1      -0.128  12.274   9.277  1.00  0.00     0.007 C 
ATOM     18  C   UNL     1      -1.321  12.138   7.103  1.00  0.00     0.007 C 
ENDBRANCH  15  16
ENDBRANCH  14  15
BRANCH  14  19
ATOM     19  C   UNL     1       1.322  10.372   4.834  1.00  0.00     0.245 C 
ATOM     20  O   UNL     1       2.470  10.800   5.038  1.00  0.00    -0.272 OA
BRANCH  19  21
ATOM     21  N   UNL     1       0.823  10.372   3.543  1.00  0.00    -0.332 N 
ATOM     22  C   UNL     1      -0.567  10.161   3.177  1.00  0.00     0.147 C 
BRANCH  21  23
ATOM     23  C   UNL     1       1.782  10.594   2.426  1.00  0.00     0.178 C 
BRANCH  23  24
ATOM     24  C   UNL     1       1.809   9.474   1.366  1.00  0.00     0.070 C 
BRANCH  24  25
ATOM     25  C   UNL     1       2.347   8.130   1.799  1.00  0.00    -0.045 A 
ATOM     26  C   UNL     1       1.788   6.942   1.311  1.00  0.00     0.004 A 
ATOM     27  C   UNL     1       3.417   8.054   2.704  1.00  0.00     0.004 A 
ATOM     28  C   UNL     1       2.281   5.704   1.729  1.00  0.00     0.000 A 
ATOM     29  C   UNL     1       3.908   6.816   3.120  1.00  0.00     0.000 A 
ATOM     30  C   UNL     1       3.338   5.642   2.634  1.00  0.00     0.000 A 
ENDBRANCH  24  25
ENDBRANCH  23  24
BRANCH  23  31
ATOM     31  C   UNL     1       1.720  12.031   1.855  1.00  0.00     0.243 C 
ATOM     32  O   UNL     1       1.573  13.038   2.542  1.00  0.00    -0.273 OA
ATOM     33  N   UNL     1       1.658  12.074   0.472  1.00  0.00    -0.341 N 
ATOM     34  H   UNL     1       1.781  11.201  -0.047  1.00  0.00     0.164 HD
BRANCH  33  35
ATOM     35  C   UNL     1       1.476  13.318  -0.281  1.00  0.00     0.194 C 
BRANCH  35  36
ATOM     36  C   UNL     1       0.089  13.444  -0.972  1.00  0.00     0.017 C 
ATOM     37  C   UNL     1      -1.010  13.804   0.043  1.00  0.00     0.010 C 
ATOM     38  C   UNL     1      -0.350  12.160  -1.687  1.00  0.00     0.010 C 
ENDBRANCH  35  36
BRANCH  35  39
ATOM     39  C   UNL     1       2.643  13.595  -1.269  1.00  0.00     0.329 C 
ATOM     40  O   UNL     1       3.218  12.725  -1.914  1.00  0.00    -0.250 OA
BRANCH  39  41
ATOM     41  O   UNL     1       2.902  14.931  -1.407  1.00  0.00    -0.458 OA
BRANCH  41  42
ATOM     42  C   UNL     1       4.262  15.288  -1.752  1.00  0.00     0.205 CG0
ATOM     43  C   UNL     1       4.585  16.594  -1.029  1.00  0.00     0.056 C 
ATOM     44  G   UNL     1       4.361  15.422  -3.284  1.00  0.00     0.000 G0
ENDBRANCH  41  42
ENDBRANCH  39  41
ENDBRANCH  35  39
ENDBRANCH  33  35
ENDBRANCH  23  31
ENDBRANCH  21  23
ENDBRANCH  19  21
ENDBRANCH  14  19
ENDBRANCH   7  14
ENDBRANCH   2   5
BRANCH   3  45
ATOM     45  C   UNL     1      -2.699   5.840   9.787  1.00  0.00     0.171 C 
BRANCH  45  46
ATOM     46  N   UNL     1      -2.026   4.706  10.406  1.00  0.00    -0.342 N 
ATOM     47  C   UNL     1      -2.087   4.459  11.754  1.00  0.00     0.247 C 
ATOM     48  O   UNL     1      -2.771   5.131  12.526  1.00  0.00    -0.273 OA
ATOM     49  H   UNL     1      -1.494   4.090   9.793  1.00  0.00     0.164 HD
BRANCH  47  50
ATOM     50  C   UNL     1      -1.214   3.293  12.242  1.00  0.00     0.212 CG0
ATOM     51  G   UNL     1      -2.150   2.110  12.560  1.00  0.00     0.000 G0
BRANCH  50  52
ATOM     52  N   UNL     1      -0.286   3.017  11.148  1.00  0.00    -0.339 N 
ATOM     53  C   UNL     1       1.077   3.138  11.265  1.00  0.00     0.243 C 
ATOM     54  O   UNL     1       1.620   3.542  12.290  1.00  0.00    -0.273 OA
ATOM     55  H   UNL     1      -0.682   2.786  10.239  1.00  0.00     0.164 HD
BRANCH  53  56
ATOM     56  C   UNL     1       1.845   2.878   9.954  1.00  0.00     0.182 C 
BRANCH  56  57
ATOM     57  N   UNL     1       3.164   3.518   9.980  1.00  0.00    -0.344 N 
ATOM     58  C   UNL     1       3.330   4.869   9.798  1.00  0.00     0.220 C 
ATOM     59  O   UNL     1       2.400   5.622   9.529  1.00  0.00    -0.275 OA
ATOM     60  H   UNL     1       3.945   2.951  10.299  1.00  0.00     0.164 HD
BRANCH  58  61
ATOM     61  C   UNL     1       4.774   5.320   9.924  1.00  0.00     0.100 C 
BRANCH  61  62
ATOM     62  C   UNL     1       4.972   6.820   9.705  1.00  0.00     0.010 C 
BRANCH  62  63
ATOM     63  C   UNL     1       6.291   7.367  10.266  1.00  0.00     0.000 C 
BRANCH  63  64
ATOM     64  C   UNL     1       7.515   7.056   9.406  1.00  0.00    -0.003 C 
ATOM     65  C   UNL     1       7.209   7.224   7.924  1.00  0.00     0.004 C 
ENDBRANCH  63  64
ENDBRANCH  62  63
ENDBRANCH  61  62
ENDBRANCH  58  61
ENDBRANCH  56  57
BRANCH  56  66
ATOM     66  C   UNL     1       1.026   3.294   8.733  1.00  0.00     0.157 C 
BRANCH  66  67
ATOM     67  C   UNL     1       0.594   2.099   7.935  1.00  0.00     0.305 C 
ATOM     68  O   UNL     1      -0.372   2.025   7.189  1.00  0.00    -0.252 OA
BRANCH  67  69
ATOM     69  O   UNL     1       1.436   1.057   8.075  1.00  0.00    -0.481 OA
ATOM     70  H   UNL     1       1.389   0.824   9.026  1.00  0.00     0.296 HD
ENDBRANCH  67  69
ENDBRANCH  66  67
ENDBRANCH  56  66
ENDBRANCH  53  56
ENDBRANCH  50  52
ENDBRANCH  47  50
ENDBRANCH  45  46
BRANCH  45  71
ATOM     71  C   UNL     1      -4.053   5.438   9.191  1.00  0.00     0.037 C 
BRANCH  71  72
ATOM     72  C   UNL     1      -5.225   6.065   9.951  1.00  0.00     0.026 C 
BRANCH  72  73
ATOM     73  C   UNL     1      -6.452   5.156   9.935  1.00  0.00     0.146 C 
BRANCH  73  74
ATOM     74  N   UNL     1      -7.130   5.298  11.220  1.00  0.00    -0.254 NA
ATOM     75  C   UNL     1      -7.497   4.229  11.825  1.00  0.00     0.185 C 
ATOM     76  N   UNL     1      -8.122   4.328  13.010  1.00  0.00    -0.370 N 
ATOM     77  N   UNL     1      -7.348   2.949  11.443  1.00  0.00    -0.370 N 
ATOM     78  H   UNL     1      -8.281   5.259  13.367  1.00  0.00     0.159 HD
ATOM     79  H   UNL     1      -8.563   3.551  13.469  1.00  0.00     0.159 HD
ATOM     80  H   UNL     1      -6.891   2.722  10.573  1.00  0.00     0.159 HD
ATOM     81  H   UNL     1      -7.575   2.185  12.058  1.00  0.00     0.159 HD
ENDBRANCH  73  74
ENDBRANCH  72  73
ENDBRANCH  71  72
ENDBRANCH  45  71
ENDBRANCH   3  45
TORSDOF 20
ENDMDL
