MODEL 1
REMARK VINA RESULT:    -6.957      0.000      0.000
REMARK INTER + INTRA:         -21.982
REMARK INTER:                 -17.328
REMARK INTRA:                  -4.653
REMARK UNBOUND:                -4.653
REMARK SMILES CCCCCCC[C@H](N)[C@H](O)C(=O)N[C@H](C)C(=O)N(C)[C@H](CC(C)C)C(=O)N[C@@H](Cc1ccc(O)cc1)C(=O)N[C@@H](Cc1ccc(O)cc1)C(=O)O
REMARK SMILES IDX 18 1 17 2 15 3 16 4 14 5 12 6 13 7 10 9 11 10 8 12 9 13 7 16
REMARK SMILES IDX 6 17 5 18 4 19 3 20 2 21 1 22 19 23 20 24 21 25 22 26 23 27
REMARK SMILES IDX 24 28 25 29 26 30 27 31 28 32 29 34 30 35 31 36 32 37 37 38
REMARK SMILES IDX 33 39 36 40 34 41 35 42 38 44 39 45 40 46 41 48 42 49 43 50
REMARK SMILES IDX 44 51 49 52 45 53 48 54 46 55 47 56 50 58 51 59 52 60
REMARK H PARENT 14 8 11 11 9 14 9 15 28 33 35 43 40 47 47 57 52 61
ROOT
ATOM      1  O   UNL     1       3.935  -4.007  -6.284  1.00  0.00    -0.272 OA
ATOM      2  C   UNL     1       4.041  -3.517  -5.150  1.00  0.00     0.245 C 
ENDROOT
BRANCH   2   3
ATOM      3  C   UNL     1       4.409  -4.452  -3.970  1.00  0.00     0.168 C 
ATOM      4  C   UNL     1       3.939  -5.877  -4.242  1.00  0.00     0.041 C 
BRANCH   3   5
ATOM      5  N   UNL     1       5.806  -4.409  -3.569  1.00  0.00    -0.342 N 
ATOM      6  C   UNL     1       6.187  -4.051  -2.293  1.00  0.00     0.251 C 
ATOM      7  O   UNL     1       5.394  -3.706  -1.423  1.00  0.00    -0.272 OA
ATOM      8  H   UNL     1       6.557  -4.641  -4.216  1.00  0.00     0.164 HD
BRANCH   6   9
ATOM      9  C   UNL     1       7.696  -4.214  -2.055  1.00  0.00     0.219 C 
BRANCH   9  10
ATOM     10  O   UNL     1       8.205  -3.293  -1.082  1.00  0.00    -0.382 OA
ATOM     11  H   UNL     1       8.976  -3.766  -0.698  1.00  0.00     0.211 HD
ENDBRANCH   9  10
BRANCH   9  12
ATOM     12  C   UNL     1       8.104  -5.668  -1.704  1.00  0.00     0.089 C 
BRANCH  12  13
ATOM     13  N   UNL     1       6.924  -6.360  -1.136  1.00  0.00    -0.325 NA
ATOM     14  H   UNL     1       6.460  -5.740  -0.469  1.00  0.00     0.119 HD
ATOM     15  H   UNL     1       7.243  -7.157  -0.580  1.00  0.00     0.119 HD
ENDBRANCH  12  13
BRANCH  12  16
ATOM     16  C   UNL     1       8.704  -6.503  -2.860  1.00  0.00     0.022 C 
BRANCH  16  17
ATOM     17  C   UNL     1       7.903  -7.687  -3.421  1.00  0.00     0.002 C 
BRANCH  17  18
ATOM     18  C   UNL     1       8.583  -8.443  -4.559  1.00  0.00     0.000 C 
BRANCH  18  19
ATOM     19  C   UNL     1       8.341  -7.834  -5.947  1.00  0.00    -0.000 C 
BRANCH  19  20
ATOM     20  C   UNL     1       6.966  -7.187  -6.141  1.00  0.00    -0.000 C 
BRANCH  20  21
ATOM     21  C   UNL     1       7.048  -5.757  -6.682  1.00  0.00    -0.003 C 
ATOM     22  C   UNL     1       8.357  -5.090  -6.289  1.00  0.00     0.004 C 
ENDBRANCH  20  21
ENDBRANCH  19  20
ENDBRANCH  18  19
ENDBRANCH  17  18
ENDBRANCH  16  17
ENDBRANCH  12  16
ENDBRANCH   9  12
ENDBRANCH   6   9
ENDBRANCH   3   5
ENDBRANCH   2   3
BRANCH   2  23
ATOM     23  N   UNL     1       3.951  -2.140  -4.975  1.00  0.00    -0.332 N 
ATOM     24  C   UNL     1       3.490  -1.490  -3.757  1.00  0.00     0.147 C 
BRANCH  23  25
ATOM     25  C   UNL     1       4.461  -1.215  -6.024  1.00  0.00     0.174 C 
BRANCH  25  26
ATOM     26  C   UNL     1       5.304  -0.055  -5.446  1.00  0.00     0.038 C 
BRANCH  26  27
ATOM     27  C   UNL     1       6.801  -0.338  -5.188  1.00  0.00    -0.015 C 
ATOM     28  C   UNL     1       7.110  -0.548  -3.706  1.00  0.00     0.007 C 
ATOM     29  C   UNL     1       7.353  -1.492  -6.021  1.00  0.00     0.007 C 
ENDBRANCH  26  27
ENDBRANCH  25  26
BRANCH  25  30
ATOM     30  C   UNL     1       3.300  -0.748  -6.932  1.00  0.00     0.243 C 
ATOM     31  O   UNL     1       2.773   0.356  -6.796  1.00  0.00    -0.273 OA
ATOM     32  N   UNL     1       2.897  -1.644  -7.888  1.00  0.00    -0.342 N 
ATOM     33  H   UNL     1       3.474  -2.477  -8.030  1.00  0.00     0.164 HD
BRANCH  32  34
ATOM     34  C   UNL     1       1.795  -1.382  -8.818  1.00  0.00     0.175 C 
BRANCH  34  35
ATOM     35  C   UNL     1       2.122  -0.212  -9.758  1.00  0.00     0.070 C 
BRANCH  35  36
ATOM     36  C   UNL     1       1.019   0.820  -9.813  1.00  0.00    -0.045 A 
ATOM     37  C   UNL     1       0.127   0.953  -8.738  1.00  0.00     0.007 A 
ATOM     38  C   UNL     1       0.856   1.638 -10.939  1.00  0.00     0.007 A 
ATOM     39  C   UNL     1      -0.903   1.892  -8.786  1.00  0.00     0.046 A 
ATOM     40  C   UNL     1      -0.176   2.579 -10.988  1.00  0.00     0.046 A 
ATOM     41  C   UNL     1      -1.046   2.698  -9.910  1.00  0.00     0.115 A 
BRANCH  41  42
ATOM     42  O   UNL     1      -2.067   3.602  -9.918  1.00  0.00    -0.508 OA
ATOM     43  H   UNL     1      -1.762   4.402 -10.376  1.00  0.00     0.293 HD
ENDBRANCH  41  42
ENDBRANCH  35  36
ENDBRANCH  34  35
BRANCH  34  44
ATOM     44  C   UNL     1       1.506  -2.685  -9.597  1.00  0.00     0.243 C 
ATOM     45  O   UNL     1       2.222  -3.682  -9.571  1.00  0.00    -0.273 OA
ATOM     46  N   UNL     1       0.422  -2.589 -10.444  1.00  0.00    -0.341 N 
ATOM     47  H   UNL     1      -0.070  -1.703 -10.517  1.00  0.00     0.164 HD
BRANCH  46  48
ATOM     48  C   UNL     1      -0.003  -3.672 -11.334  1.00  0.00     0.196 C 
BRANCH  48  49
ATOM     49  C   UNL     1      -1.261  -4.376 -10.798  1.00  0.00     0.072 C 
BRANCH  49  50
ATOM     50  C   UNL     1      -0.988  -5.185  -9.550  1.00  0.00    -0.045 A 
ATOM     51  C   UNL     1      -0.402  -6.455  -9.654  1.00  0.00     0.007 A 
ATOM     52  C   UNL     1      -1.332  -4.694  -8.283  1.00  0.00     0.007 A 
ATOM     53  C   UNL     1      -0.158  -7.216  -8.511  1.00  0.00     0.046 A 
ATOM     54  C   UNL     1      -1.088  -5.457  -7.139  1.00  0.00     0.046 A 
ATOM     55  C   UNL     1      -0.502  -6.712  -7.263  1.00  0.00     0.115 A 
BRANCH  55  56
ATOM     56  O   UNL     1      -0.248  -7.487  -6.170  1.00  0.00    -0.508 OA
ATOM     57  H   UNL     1       0.643  -7.860  -6.260  1.00  0.00     0.293 HD
ENDBRANCH  55  56
ENDBRANCH  49  50
ENDBRANCH  48  49
BRANCH  48  58
ATOM     58  C   UNL     1      -0.291  -3.091 -12.725  1.00  0.00     0.326 C 
ATOM     59  O   UNL     1       0.397  -2.305 -13.355  1.00  0.00    -0.250 OA
BRANCH  58  60
ATOM     60  O   UNL     1      -1.446  -3.546 -13.273  1.00  0.00    -0.480 OA
ATOM     61  H   UNL     1      -1.886  -4.006 -12.525  1.00  0.00     0.296 HD
ENDBRANCH  58  60
ENDBRANCH  48  58
ENDBRANCH  46  48
ENDBRANCH  34  44
ENDBRANCH  32  34
ENDBRANCH  25  30
ENDBRANCH  23  25
ENDBRANCH   2  23
TORSDOF 28
ENDMDL
MODEL 2
REMARK VINA RESULT:    -6.782      3.310     10.602
REMARK INTER + INTRA:         -21.545
REMARK INTER:                 -17.295
REMARK INTRA:                  -4.250
REMARK UNBOUND:                -4.653
REMARK SMILES CCCCCCC[C@H](N)[C@H](O)C(=O)N[C@H](C)C(=O)N(C)[C@H](CC(C)C)C(=O)N[C@@H](Cc1ccc(O)cc1)C(=O)N[C@@H](Cc1ccc(O)cc1)C(=O)O
REMARK SMILES IDX 18 1 17 2 15 3 16 4 14 5 12 6 13 7 10 9 11 10 8 12 9 13 7 16
REMARK SMILES IDX 6 17 5 18 4 19 3 20 2 21 1 22 19 23 20 24 21 25 22 26 23 27
REMARK SMILES IDX 24 28 25 29 26 30 27 31 28 32 29 34 30 35 31 36 32 37 37 38
REMARK SMILES IDX 33 39 36 40 34 41 35 42 38 44 39 45 40 46 41 48 42 49 43 50
REMARK SMILES IDX 44 51 49 52 45 53 48 54 46 55 47 56 50 58 51 59 52 60
REMARK H PARENT 14 8 11 11 9 14 9 15 28 33 35 43 40 47 47 57 52 61
ROOT
ATOM      1  O   UNL     1       2.939  -3.551 -10.426  1.00  0.00    -0.272 OA
ATOM      2  C   UNL     1       2.758  -4.776 -10.492  1.00  0.00     0.245 C 
ENDROOT
BRANCH   2   3
ATOM      3  C   UNL     1       1.351  -5.298 -10.877  1.00  0.00     0.168 C 
ATOM      4  C   UNL     1       0.542  -5.643  -9.632  1.00  0.00     0.041 C 
BRANCH   3   5
ATOM      5  N   UNL     1       0.608  -4.438 -11.785  1.00  0.00    -0.342 N 
ATOM      6  C   UNL     1      -0.369  -4.934 -12.622  1.00  0.00     0.251 C 
ATOM      7  O   UNL     1      -0.655  -6.125 -12.696  1.00  0.00    -0.272 OA
ATOM      8  H   UNL     1       0.782  -3.437 -11.838  1.00  0.00     0.164 HD
BRANCH   6   9
ATOM      9  C   UNL     1      -1.117  -3.829 -13.384  1.00  0.00     0.219 C 
BRANCH   9  10
ATOM     10  O   UNL     1      -0.998  -2.547 -12.755  1.00  0.00    -0.382 OA
ATOM     11  H   UNL     1      -1.713  -2.553 -12.081  1.00  0.00     0.211 HD
ENDBRANCH   9  10
BRANCH   9  12
ATOM     12  C   UNL     1      -0.720  -3.747 -14.881  1.00  0.00     0.089 C 
BRANCH  12  13
ATOM     13  N   UNL     1       0.647  -4.294 -15.033  1.00  0.00    -0.325 NA
ATOM     14  H   UNL     1       0.794  -4.565 -16.007  1.00  0.00     0.119 HD
ATOM     15  H   UNL     1       0.717  -5.164 -14.501  1.00  0.00     0.119 HD
ENDBRANCH  12  13
BRANCH  12  16
ATOM     16  C   UNL     1      -1.683  -4.438 -15.877  1.00  0.00     0.022 C 
BRANCH  16  17
ATOM     17  C   UNL     1      -3.007  -3.750 -16.236  1.00  0.00     0.002 C 
BRANCH  17  18
ATOM     18  C   UNL     1      -3.009  -3.015 -17.574  1.00  0.00     0.000 C 
BRANCH  18  19
ATOM     19  C   UNL     1      -4.247  -3.291 -18.437  1.00  0.00    -0.000 C 
BRANCH  19  20
ATOM     20  C   UNL     1      -5.002  -4.580 -18.097  1.00  0.00    -0.000 C 
BRANCH  20  21
ATOM     21  C   UNL     1      -5.955  -5.028 -19.208  1.00  0.00    -0.003 C 
ATOM     22  C   UNL     1      -5.786  -4.180 -20.459  1.00  0.00     0.004 C 
ENDBRANCH  20  21
ENDBRANCH  19  20
ENDBRANCH  18  19
ENDBRANCH  17  18
ENDBRANCH  16  17
ENDBRANCH  12  16
ENDBRANCH   9  12
ENDBRANCH   6   9
ENDBRANCH   3   5
ENDBRANCH   2   3
BRANCH   2  23
ATOM     23  N   UNL     1       3.832  -5.646 -10.342  1.00  0.00    -0.332 N 
ATOM     24  C   UNL     1       4.023  -6.863 -11.117  1.00  0.00     0.147 C 
BRANCH  23  25
ATOM     25  C   UNL     1       4.957  -5.301  -9.430  1.00  0.00     0.174 C 
BRANCH  25  26
ATOM     26  C   UNL     1       6.111  -6.330  -9.481  1.00  0.00     0.038 C 
BRANCH  26  27
ATOM     27  C   UNL     1       7.514  -5.791  -9.841  1.00  0.00    -0.015 C 
ATOM     28  C   UNL     1       8.146  -4.997  -8.697  1.00  0.00     0.007 C 
ATOM     29  C   UNL     1       8.471  -6.872 -10.337  1.00  0.00     0.007 C 
ENDBRANCH  26  27
ENDBRANCH  25  26
BRANCH  25  30
ATOM     30  C   UNL     1       4.424  -5.036  -8.004  1.00  0.00     0.243 C 
ATOM     31  O   UNL     1       4.021  -5.946  -7.280  1.00  0.00    -0.273 OA
ATOM     32  N   UNL     1       4.424  -3.724  -7.604  1.00  0.00    -0.342 N 
ATOM     33  H   UNL     1       4.903  -3.047  -8.204  1.00  0.00     0.164 HD
BRANCH  32  34
ATOM     34  C   UNL     1       3.930  -3.283  -6.297  1.00  0.00     0.175 C 
BRANCH  34  35
ATOM     35  C   UNL     1       5.087  -2.885  -5.368  1.00  0.00     0.070 C 
BRANCH  35  36
ATOM     36  C   UNL     1       5.051  -3.616  -4.044  1.00  0.00    -0.045 A 
ATOM     37  C   UNL     1       5.033  -5.019  -4.018  1.00  0.00     0.007 A 
ATOM     38  C   UNL     1       5.014  -2.911  -2.834  1.00  0.00     0.007 A 
ATOM     39  C   UNL     1       4.987  -5.702  -2.802  1.00  0.00     0.046 A 
ATOM     40  C   UNL     1       4.966  -3.595  -1.617  1.00  0.00     0.046 A 
ATOM     41  C   UNL     1       4.954  -4.986  -1.612  1.00  0.00     0.115 A 
BRANCH  41  42
ATOM     42  O   UNL     1       4.906  -5.691  -0.447  1.00  0.00    -0.508 OA
ATOM     43  H   UNL     1       5.507  -5.269   0.190  1.00  0.00     0.293 HD
ENDBRANCH  41  42
ENDBRANCH  35  36
ENDBRANCH  34  35
BRANCH  34  44
ATOM     44  C   UNL     1       2.945  -2.115  -6.527  1.00  0.00     0.243 C 
ATOM     45  O   UNL     1       2.747  -1.207  -5.724  1.00  0.00    -0.273 OA
ATOM     46  N   UNL     1       2.195  -2.247  -7.676  1.00  0.00    -0.341 N 
ATOM     47  H   UNL     1       2.313  -3.078  -8.250  1.00  0.00     0.164 HD
BRANCH  46  48
ATOM     48  C   UNL     1       1.150  -1.299  -8.070  1.00  0.00     0.196 C 
BRANCH  48  49
ATOM     49  C   UNL     1       1.732  -0.128  -8.879  1.00  0.00     0.072 C 
BRANCH  49  50
ATOM     50  C   UNL     1       0.685   0.897  -9.253  1.00  0.00    -0.045 A 
ATOM     51  C   UNL     1       0.665   1.434 -10.549  1.00  0.00     0.007 A 
ATOM     52  C   UNL     1      -0.258   1.340  -8.317  1.00  0.00     0.007 A 
ATOM     53  C   UNL     1      -0.288   2.390 -10.902  1.00  0.00     0.046 A 
ATOM     54  C   UNL     1      -1.211   2.298  -8.670  1.00  0.00     0.046 A 
ATOM     55  C   UNL     1      -1.218   2.814  -9.961  1.00  0.00     0.115 A 
BRANCH  55  56
ATOM     56  O   UNL     1      -2.131   3.751 -10.346  1.00  0.00    -0.508 OA
ATOM     57  H   UNL     1      -1.930   4.018 -11.257  1.00  0.00     0.293 HD
ENDBRANCH  55  56
ENDBRANCH  49  50
ENDBRANCH  48  49
BRANCH  48  58
ATOM     58  C   UNL     1       0.100  -2.036  -8.913  1.00  0.00     0.326 C 
ATOM     59  O   UNL     1       0.032  -2.086 -10.130  1.00  0.00    -0.250 OA
BRANCH  58  60
ATOM     60  O   UNL     1      -0.823  -2.698  -8.170  1.00  0.00    -0.480 OA
ATOM     61  H   UNL     1      -0.276  -3.241  -7.563  1.00  0.00     0.296 HD
ENDBRANCH  58  60
ENDBRANCH  48  58
ENDBRANCH  46  48
ENDBRANCH  34  44
ENDBRANCH  32  34
ENDBRANCH  25  30
ENDBRANCH  23  25
ENDBRANCH   2  23
TORSDOF 28
ENDMDL
MODEL 3
REMARK VINA RESULT:    -6.746      2.222      6.783
REMARK INTER + INTRA:         -21.456
REMARK INTER:                 -16.015
REMARK INTRA:                  -5.441
REMARK UNBOUND:                -4.653
REMARK SMILES CCCCCCC[C@H](N)[C@H](O)C(=O)N[C@H](C)C(=O)N(C)[C@H](CC(C)C)C(=O)N[C@@H](Cc1ccc(O)cc1)C(=O)N[C@@H](Cc1ccc(O)cc1)C(=O)O
REMARK SMILES IDX 18 1 17 2 15 3 16 4 14 5 12 6 13 7 10 9 11 10 8 12 9 13 7 16
REMARK SMILES IDX 6 17 5 18 4 19 3 20 2 21 1 22 19 23 20 24 21 25 22 26 23 27
REMARK SMILES IDX 24 28 25 29 26 30 27 31 28 32 29 34 30 35 31 36 32 37 37 38
REMARK SMILES IDX 33 39 36 40 34 41 35 42 38 44 39 45 40 46 41 48 42 49 43 50
REMARK SMILES IDX 44 51 49 52 45 53 48 54 46 55 47 56 50 58 51 59 52 60
REMARK H PARENT 14 8 11 11 9 14 9 15 28 33 35 43 40 47 47 57 52 61
ROOT
ATOM      1  O   UNL     1      -1.326  -4.291  -7.592  1.00  0.00    -0.272 OA
ATOM      2  C   UNL     1      -0.467  -4.998  -8.138  1.00  0.00     0.245 C 
ENDROOT
BRANCH   2   3
ATOM      3  C   UNL     1       0.483  -5.833  -7.244  1.00  0.00     0.168 C 
ATOM      4  C   UNL     1      -0.198  -7.115  -6.778  1.00  0.00     0.041 C 
BRANCH   3   5
ATOM      5  N   UNL     1       1.793  -6.094  -7.820  1.00  0.00    -0.342 N 
ATOM      6  C   UNL     1       2.955  -5.898  -7.105  1.00  0.00     0.251 C 
ATOM      7  O   UNL     1       2.979  -5.457  -5.961  1.00  0.00    -0.272 OA
ATOM      8  H   UNL     1       1.902  -6.430  -8.774  1.00  0.00     0.164 HD
BRANCH   6   9
ATOM      9  C   UNL     1       4.206  -6.373  -7.862  1.00  0.00     0.219 C 
BRANCH   9  10
ATOM     10  O   UNL     1       3.950  -7.511  -8.694  1.00  0.00    -0.382 OA
ATOM     11  H   UNL     1       3.295  -8.031  -8.178  1.00  0.00     0.211 HD
ENDBRANCH   9  10
BRANCH   9  12
ATOM     12  C   UNL     1       4.893  -5.243  -8.672  1.00  0.00     0.089 C 
BRANCH  12  13
ATOM     13  N   UNL     1       4.046  -4.031  -8.594  1.00  0.00    -0.325 NA
ATOM     14  H   UNL     1       3.375  -4.040  -9.365  1.00  0.00     0.119 HD
ATOM     15  H   UNL     1       4.630  -3.207  -8.759  1.00  0.00     0.119 HD
ENDBRANCH  12  13
BRANCH  12  16
ATOM     16  C   UNL     1       6.346  -4.902  -8.262  1.00  0.00     0.022 C 
BRANCH  16  17
ATOM     17  C   UNL     1       6.853  -5.332  -6.879  1.00  0.00     0.002 C 
BRANCH  17  18
ATOM     18  C   UNL     1       7.682  -6.615  -6.866  1.00  0.00     0.000 C 
BRANCH  18  19
ATOM     19  C   UNL     1       7.722  -7.319  -5.503  1.00  0.00    -0.000 C 
BRANCH  19  20
ATOM     20  C   UNL     1       7.337  -6.443  -4.307  1.00  0.00    -0.000 C 
BRANCH  20  21
ATOM     21  C   UNL     1       6.432  -7.163  -3.304  1.00  0.00    -0.003 C 
ATOM     22  C   UNL     1       5.003  -7.257  -3.815  1.00  0.00     0.004 C 
ENDBRANCH  20  21
ENDBRANCH  19  20
ENDBRANCH  18  19
ENDBRANCH  17  18
ENDBRANCH  16  17
ENDBRANCH  12  16
ENDBRANCH   9  12
ENDBRANCH   6   9
ENDBRANCH   3   5
ENDBRANCH   2   3
BRANCH   2  23
ATOM     23  N   UNL     1      -0.448  -5.126  -9.523  1.00  0.00    -0.332 N 
ATOM     24  C   UNL     1      -0.557  -6.389 -10.237  1.00  0.00     0.147 C 
BRANCH  23  25
ATOM     25  C   UNL     1      -0.443  -3.915 -10.388  1.00  0.00     0.174 C 
BRANCH  25  26
ATOM     26  C   UNL     1      -0.415  -4.253 -11.897  1.00  0.00     0.038 C 
BRANCH  26  27
ATOM     27  C   UNL     1      -0.741  -3.105 -12.879  1.00  0.00    -0.015 C 
ATOM     28  C   UNL     1       0.516  -2.446 -13.446  1.00  0.00     0.007 C 
ATOM     29  C   UNL     1      -1.686  -3.519 -14.005  1.00  0.00     0.007 C 
ENDBRANCH  26  27
ENDBRANCH  25  26
BRANCH  25  30
ATOM     30  C   UNL     1       0.682  -2.950  -9.947  1.00  0.00     0.243 C 
ATOM     31  O   UNL     1       1.850  -3.112 -10.296  1.00  0.00    -0.273 OA
ATOM     32  N   UNL     1       0.291  -1.913  -9.140  1.00  0.00    -0.342 N 
ATOM     33  H   UNL     1      -0.713  -1.766  -9.011  1.00  0.00     0.164 HD
BRANCH  32  34
ATOM     34  C   UNL     1       1.225  -0.919  -8.604  1.00  0.00     0.175 C 
BRANCH  34  35
ATOM     35  C   UNL     1       0.505   0.394  -8.257  1.00  0.00     0.070 C 
BRANCH  35  36
ATOM     36  C   UNL     1       0.236   1.252  -9.472  1.00  0.00    -0.045 A 
ATOM     37  C   UNL     1       1.089   1.182 -10.584  1.00  0.00     0.007 A 
ATOM     38  C   UNL     1      -0.846   2.141  -9.499  1.00  0.00     0.007 A 
ATOM     39  C   UNL     1       0.857   1.980 -11.705  1.00  0.00     0.046 A 
ATOM     40  C   UNL     1      -1.079   2.942 -10.620  1.00  0.00     0.046 A 
ATOM     41  C   UNL     1      -0.225   2.853 -11.714  1.00  0.00     0.115 A 
BRANCH  41  42
ATOM     42  O   UNL     1      -0.415   3.617 -12.827  1.00  0.00    -0.508 OA
ATOM     43  H   UNL     1      -1.039   3.155 -13.411  1.00  0.00     0.293 HD
ENDBRANCH  41  42
ENDBRANCH  35  36
ENDBRANCH  34  35
BRANCH  34  44
ATOM     44  C   UNL     1       1.927  -1.535  -7.373  1.00  0.00     0.243 C 
ATOM     45  O   UNL     1       1.672  -2.645  -6.913  1.00  0.00    -0.273 OA
ATOM     46  N   UNL     1       2.792  -0.666  -6.742  1.00  0.00    -0.341 N 
ATOM     47  H   UNL     1       2.881   0.284  -7.094  1.00  0.00     0.164 HD
BRANCH  46  48
ATOM     48  C   UNL     1       3.520  -1.002  -5.517  1.00  0.00     0.196 C 
BRANCH  48  49
ATOM     49  C   UNL     1       4.406  -2.243  -5.714  1.00  0.00     0.072 C 
BRANCH  49  50
ATOM     50  C   UNL     1       4.989  -2.755  -4.416  1.00  0.00    -0.045 A 
ATOM     51  C   UNL     1       6.374  -2.708  -4.205  1.00  0.00     0.007 A 
ATOM     52  C   UNL     1       4.166  -3.299  -3.422  1.00  0.00     0.007 A 
ATOM     53  C   UNL     1       6.924  -3.189  -3.017  1.00  0.00     0.046 A 
ATOM     54  C   UNL     1       4.716  -3.782  -2.233  1.00  0.00     0.046 A 
ATOM     55  C   UNL     1       6.092  -3.721  -2.040  1.00  0.00     0.115 A 
BRANCH  55  56
ATOM     56  O   UNL     1       6.669  -4.183  -0.894  1.00  0.00    -0.508 OA
ATOM     57  H   UNL     1       7.294  -3.512  -0.575  1.00  0.00     0.293 HD
ENDBRANCH  55  56
ENDBRANCH  49  50
ENDBRANCH  48  49
BRANCH  48  58
ATOM     58  C   UNL     1       4.392   0.194  -5.110  1.00  0.00     0.326 C 
ATOM     59  O   UNL     1       5.273   0.723  -5.767  1.00  0.00    -0.250 OA
BRANCH  58  60
ATOM     60  O   UNL     1       4.097   0.685  -3.880  1.00  0.00    -0.480 OA
ATOM     61  H   UNL     1       4.814   0.324  -3.315  1.00  0.00     0.296 HD
ENDBRANCH  58  60
ENDBRANCH  48  58
ENDBRANCH  46  48
ENDBRANCH  34  44
ENDBRANCH  32  34
ENDBRANCH  25  30
ENDBRANCH  23  25
ENDBRANCH   2  23
TORSDOF 28
ENDMDL
MODEL 4
REMARK VINA RESULT:    -6.677      1.606      2.607
REMARK INTER + INTRA:         -21.285
REMARK INTER:                 -17.419
REMARK INTRA:                  -3.866
REMARK UNBOUND:                -4.653
REMARK SMILES CCCCCCC[C@H](N)[C@H](O)C(=O)N[C@H](C)C(=O)N(C)[C@H](CC(C)C)C(=O)N[C@@H](Cc1ccc(O)cc1)C(=O)N[C@@H](Cc1ccc(O)cc1)C(=O)O
REMARK SMILES IDX 18 1 17 2 15 3 16 4 14 5 12 6 13 7 10 9 11 10 8 12 9 13 7 16
REMARK SMILES IDX 6 17 5 18 4 19 3 20 2 21 1 22 19 23 20 24 21 25 22 26 23 27
REMARK SMILES IDX 24 28 25 29 26 30 27 31 28 32 29 34 30 35 31 36 32 37 37 38
REMARK SMILES IDX 33 39 36 40 34 41 35 42 38 44 39 45 40 46 41 48 42 49 43 50
REMARK SMILES IDX 44 51 49 52 45 53 48 54 46 55 47 56 50 58 51 59 52 60
REMARK H PARENT 14 8 11 11 9 14 9 15 28 33 35 43 40 47 47 57 52 61
ROOT
ATOM      1  O   UNL     1       3.001  -1.164  -4.257  1.00  0.00    -0.272 OA
ATOM      2  C   UNL     1       4.057  -1.336  -4.883  1.00  0.00     0.245 C 
ENDROOT
BRANCH   2   3
ATOM      3  C   UNL     1       5.344  -1.671  -4.089  1.00  0.00     0.168 C 
ATOM      4  C   UNL     1       6.168  -0.413  -3.837  1.00  0.00     0.041 C 
BRANCH   3   5
ATOM      5  N   UNL     1       5.127  -2.430  -2.867  1.00  0.00    -0.342 N 
ATOM      6  C   UNL     1       5.104  -3.809  -2.861  1.00  0.00     0.251 C 
ATOM      7  O   UNL     1       5.222  -4.492  -3.873  1.00  0.00    -0.272 OA
ATOM      8  H   UNL     1       4.982  -1.973  -1.970  1.00  0.00     0.164 HD
BRANCH   6   9
ATOM      9  C   UNL     1       5.004  -4.395  -1.443  1.00  0.00     0.219 C 
BRANCH   9  10
ATOM     10  O   UNL     1       4.284  -5.633  -1.407  1.00  0.00    -0.382 OA
ATOM     11  H   UNL     1       4.939  -6.291  -1.729  1.00  0.00     0.211 HD
ENDBRANCH   9  10
BRANCH   9  12
ATOM     12  C   UNL     1       6.381  -4.539  -0.745  1.00  0.00     0.089 C 
BRANCH  12  13
ATOM     13  N   UNL     1       6.182  -4.398   0.716  1.00  0.00    -0.325 NA
ATOM     14  H   UNL     1       6.792  -3.658   1.068  1.00  0.00     0.119 HD
ATOM     15  H   UNL     1       6.503  -5.252   1.178  1.00  0.00     0.119 HD
ENDBRANCH  12  13
BRANCH  12  16
ATOM     16  C   UNL     1       7.165  -5.838  -1.051  1.00  0.00     0.022 C 
BRANCH  16  17
ATOM     17  C   UNL     1       8.348  -5.784  -2.028  1.00  0.00     0.002 C 
BRANCH  17  18
ATOM     18  C   UNL     1       8.458  -6.978  -2.973  1.00  0.00     0.000 C 
BRANCH  18  19
ATOM     19  C   UNL     1       8.380  -6.607  -4.460  1.00  0.00    -0.000 C 
BRANCH  19  20
ATOM     20  C   UNL     1       7.558  -7.565  -5.327  1.00  0.00    -0.000 C 
BRANCH  20  21
ATOM     21  C   UNL     1       8.277  -7.977  -6.614  1.00  0.00    -0.003 C 
ATOM     22  C   UNL     1       7.288  -8.359  -7.704  1.00  0.00     0.004 C 
ENDBRANCH  20  21
ENDBRANCH  19  20
ENDBRANCH  18  19
ENDBRANCH  17  18
ENDBRANCH  16  17
ENDBRANCH  12  16
ENDBRANCH   9  12
ENDBRANCH   6   9
ENDBRANCH   3   5
ENDBRANCH   2   3
BRANCH   2  23
ATOM     23  N   UNL     1       4.047  -1.347  -6.274  1.00  0.00    -0.332 N 
ATOM     24  C   UNL     1       4.675  -0.337  -7.113  1.00  0.00     0.147 C 
BRANCH  23  25
ATOM     25  C   UNL     1       3.477  -2.508  -7.012  1.00  0.00     0.174 C 
BRANCH  25  26
ATOM     26  C   UNL     1       4.541  -3.291  -7.816  1.00  0.00     0.038 C 
BRANCH  26  27
ATOM     27  C   UNL     1       5.237  -4.468  -7.096  1.00  0.00    -0.015 C 
ATOM     28  C   UNL     1       4.540  -5.804  -7.350  1.00  0.00     0.007 C 
ATOM     29  C   UNL     1       6.728  -4.573  -7.407  1.00  0.00     0.007 C 
ENDBRANCH  26  27
ENDBRANCH  25  26
BRANCH  25  30
ATOM     30  C   UNL     1       2.265  -2.057  -7.859  1.00  0.00     0.243 C 
ATOM     31  O   UNL     1       1.176  -1.801  -7.349  1.00  0.00    -0.273 OA
ATOM     32  N   UNL     1       2.485  -1.970  -9.209  1.00  0.00    -0.342 N 
ATOM     33  H   UNL     1       3.449  -2.061  -9.539  1.00  0.00     0.164 HD
BRANCH  32  34
ATOM     34  C   UNL     1       1.445  -1.586 -10.168  1.00  0.00     0.175 C 
BRANCH  34  35
ATOM     35  C   UNL     1       1.769  -0.240 -10.834  1.00  0.00     0.070 C 
BRANCH  35  36
ATOM     36  C   UNL     1       0.733   0.822 -10.541  1.00  0.00    -0.045 A 
ATOM     37  C   UNL     1       0.376   1.747 -11.534  1.00  0.00     0.007 A 
ATOM     38  C   UNL     1       0.135   0.913  -9.278  1.00  0.00     0.007 A 
ATOM     39  C   UNL     1      -0.568   2.739 -11.269  1.00  0.00     0.046 A 
ATOM     40  C   UNL     1      -0.810   1.907  -9.011  1.00  0.00     0.046 A 
ATOM     41  C   UNL     1      -1.154   2.811 -10.011  1.00  0.00     0.115 A 
BRANCH  41  42
ATOM     42  O   UNL     1      -2.070   3.797  -9.791  1.00  0.00    -0.508 OA
ATOM     43  H   UNL     1      -1.640   4.505  -9.284  1.00  0.00     0.293 HD
ENDBRANCH  41  42
ENDBRANCH  35  36
ENDBRANCH  34  35
BRANCH  34  44
ATOM     44  C   UNL     1       1.304  -2.724 -11.203  1.00  0.00     0.243 C 
ATOM     45  O   UNL     1       2.011  -2.847 -12.200  1.00  0.00    -0.273 OA
ATOM     46  N   UNL     1       0.212  -3.536 -10.981  1.00  0.00    -0.341 N 
ATOM     47  H   UNL     1      -0.413  -3.323 -10.207  1.00  0.00     0.164 HD
BRANCH  46  48
ATOM     48  C   UNL     1      -0.166  -4.640 -11.867  1.00  0.00     0.196 C 
BRANCH  48  49
ATOM     49  C   UNL     1      -1.038  -5.673 -11.135  1.00  0.00     0.072 C 
BRANCH  49  50
ATOM     50  C   UNL     1      -0.497  -6.027  -9.768  1.00  0.00    -0.045 A 
ATOM     51  C   UNL     1       0.516  -6.989  -9.645  1.00  0.00     0.007 A 
ATOM     52  C   UNL     1      -1.007  -5.421  -8.612  1.00  0.00     0.007 A 
ATOM     53  C   UNL     1       1.014  -7.333  -8.388  1.00  0.00     0.046 A 
ATOM     54  C   UNL     1      -0.509  -5.767  -7.354  1.00  0.00     0.046 A 
ATOM     55  C   UNL     1       0.498  -6.720  -7.253  1.00  0.00     0.115 A 
BRANCH  55  56
ATOM     56  O   UNL     1       1.011  -7.086  -6.043  1.00  0.00    -0.508 OA
ATOM     57  H   UNL     1       1.620  -7.828  -6.181  1.00  0.00     0.293 HD
ENDBRANCH  55  56
ENDBRANCH  49  50
ENDBRANCH  48  49
BRANCH  48  58
ATOM     58  C   UNL     1      -0.936  -4.074 -13.068  1.00  0.00     0.326 C 
ATOM     59  O   UNL     1      -2.147  -4.030 -13.215  1.00  0.00    -0.250 OA
BRANCH  58  60
ATOM     60  O   UNL     1      -0.133  -3.569 -14.038  1.00  0.00    -0.480 OA
ATOM     61  H   UNL     1       0.608  -4.213 -14.075  1.00  0.00     0.296 HD
ENDBRANCH  58  60
ENDBRANCH  48  58
ENDBRANCH  46  48
ENDBRANCH  34  44
ENDBRANCH  32  34
ENDBRANCH  25  30
ENDBRANCH  23  25
ENDBRANCH   2  23
TORSDOF 28
ENDMDL
MODEL 5
REMARK VINA RESULT:    -6.643      2.558      7.513
REMARK INTER + INTRA:         -21.200
REMARK INTER:                 -15.488
REMARK INTRA:                  -5.711
REMARK UNBOUND:                -4.653
REMARK SMILES CCCCCCC[C@H](N)[C@H](O)C(=O)N[C@H](C)C(=O)N(C)[C@H](CC(C)C)C(=O)N[C@@H](Cc1ccc(O)cc1)C(=O)N[C@@H](Cc1ccc(O)cc1)C(=O)O
REMARK SMILES IDX 18 1 17 2 15 3 16 4 14 5 12 6 13 7 10 9 11 10 8 12 9 13 7 16
REMARK SMILES IDX 6 17 5 18 4 19 3 20 2 21 1 22 19 23 20 24 21 25 22 26 23 27
REMARK SMILES IDX 24 28 25 29 26 30 27 31 28 32 29 34 30 35 31 36 32 37 37 38
REMARK SMILES IDX 33 39 36 40 34 41 35 42 38 44 39 45 40 46 41 48 42 49 43 50
REMARK SMILES IDX 44 51 49 52 45 53 48 54 46 55 47 56 50 58 51 59 52 60
REMARK H PARENT 14 8 11 11 9 14 9 15 28 33 35 43 40 47 47 57 52 61
ROOT
ATOM      1  O   UNL     1       5.921  -3.722  -7.952  1.00  0.00    -0.272 OA
ATOM      2  C   UNL     1       5.563  -4.491  -8.857  1.00  0.00     0.245 C 
ENDROOT
BRANCH   2   3
ATOM      3  C   UNL     1       5.188  -5.948  -8.487  1.00  0.00     0.168 C 
ATOM      4  C   UNL     1       6.382  -6.676  -7.879  1.00  0.00     0.041 C 
BRANCH   3   5
ATOM      5  N   UNL     1       3.996  -6.082  -7.665  1.00  0.00    -0.342 N 
ATOM      6  C   UNL     1       2.777  -6.439  -8.204  1.00  0.00     0.251 C 
ATOM      7  O   UNL     1       2.596  -6.626  -9.402  1.00  0.00    -0.272 OA
ATOM      8  H   UNL     1       4.015  -5.918  -6.662  1.00  0.00     0.164 HD
BRANCH   6   9
ATOM      9  C   UNL     1       1.696  -6.659  -7.133  1.00  0.00     0.219 C 
BRANCH   9  10
ATOM     10  O   UNL     1       2.226  -7.193  -5.914  1.00  0.00    -0.382 OA
ATOM     11  H   UNL     1       2.773  -7.953  -6.213  1.00  0.00     0.211 HD
ENDBRANCH   9  10
BRANCH   9  12
ATOM     12  C   UNL     1       0.847  -5.391  -6.856  1.00  0.00     0.089 C 
BRANCH  12  13
ATOM     13  N   UNL     1       1.560  -4.219  -7.413  1.00  0.00    -0.325 NA
ATOM     14  H   UNL     1       2.527  -4.480  -7.617  1.00  0.00     0.119 HD
ATOM     15  H   UNL     1       1.626  -3.498  -6.691  1.00  0.00     0.119 HD
ENDBRANCH  12  13
BRANCH  12  16
ATOM     16  C   UNL     1      -0.610  -5.423  -7.377  1.00  0.00     0.022 C 
BRANCH  16  17
ATOM     17  C   UNL     1      -0.976  -4.605  -8.623  1.00  0.00     0.002 C 
BRANCH  17  18
ATOM     18  C   UNL     1      -0.926  -5.378  -9.939  1.00  0.00     0.000 C 
BRANCH  18  19
ATOM     19  C   UNL     1      -0.831  -4.486 -11.184  1.00  0.00    -0.000 C 
BRANCH  19  20
ATOM     20  C   UNL     1      -0.136  -3.139 -10.967  1.00  0.00    -0.000 C 
BRANCH  20  21
ATOM     21  C   UNL     1       0.436  -2.544 -12.256  1.00  0.00    -0.003 C 
ATOM     22  C   UNL     1      -0.332  -3.025 -13.477  1.00  0.00     0.004 C 
ENDBRANCH  20  21
ENDBRANCH  19  20
ENDBRANCH  18  19
ENDBRANCH  17  18
ENDBRANCH  16  17
ENDBRANCH  12  16
ENDBRANCH   9  12
ENDBRANCH   6   9
ENDBRANCH   3   5
ENDBRANCH   2   3
BRANCH   2  23
ATOM     23  N   UNL     1       5.388  -4.009 -10.150  1.00  0.00    -0.332 N 
ATOM     24  C   UNL     1       6.460  -3.838 -11.119  1.00  0.00     0.147 C 
BRANCH  23  25
ATOM     25  C   UNL     1       4.020  -3.750 -10.676  1.00  0.00     0.174 C 
BRANCH  25  26
ATOM     26  C   UNL     1       3.865  -4.136 -12.166  1.00  0.00     0.038 C 
BRANCH  26  27
ATOM     27  C   UNL     1       3.536  -5.614 -12.476  1.00  0.00    -0.015 C 
ATOM     28  C   UNL     1       2.127  -5.793 -13.039  1.00  0.00     0.007 C 
ATOM     29  C   UNL     1       4.566  -6.288 -13.379  1.00  0.00     0.007 C 
ENDBRANCH  26  27
ENDBRANCH  25  26
BRANCH  25  30
ATOM     30  C   UNL     1       3.596  -2.297 -10.363  1.00  0.00     0.243 C 
ATOM     31  O   UNL     1       3.581  -1.423 -11.229  1.00  0.00    -0.273 OA
ATOM     32  N   UNL     1       3.245  -2.048  -9.061  1.00  0.00    -0.342 N 
ATOM     33  H   UNL     1       3.147  -2.852  -8.435  1.00  0.00     0.164 HD
BRANCH  32  34
ATOM     34  C   UNL     1       2.844  -0.725  -8.577  1.00  0.00     0.175 C 
BRANCH  34  35
ATOM     35  C   UNL     1       1.323  -0.641  -8.375  1.00  0.00     0.070 C 
BRANCH  35  36
ATOM     36  C   UNL     1       0.678   0.432  -9.223  1.00  0.00    -0.045 A 
ATOM     37  C   UNL     1       1.060   0.591 -10.564  1.00  0.00     0.007 A 
ATOM     38  C   UNL     1      -0.286   1.293  -8.682  1.00  0.00     0.007 A 
ATOM     39  C   UNL     1       0.480   1.587 -11.350  1.00  0.00     0.046 A 
ATOM     40  C   UNL     1      -0.865   2.292  -9.468  1.00  0.00     0.046 A 
ATOM     41  C   UNL     1      -0.477   2.429 -10.797  1.00  0.00     0.115 A 
BRANCH  41  42
ATOM     42  O   UNL     1      -1.016   3.392 -11.598  1.00  0.00    -0.508 OA
ATOM     43  H   UNL     1      -0.548   4.226 -11.429  1.00  0.00     0.293 HD
ENDBRANCH  41  42
ENDBRANCH  35  36
ENDBRANCH  34  35
BRANCH  34  44
ATOM     44  C   UNL     1       3.616  -0.437  -7.270  1.00  0.00     0.243 C 
ATOM     45  O   UNL     1       4.633   0.247  -7.202  1.00  0.00    -0.273 OA
ATOM     46  N   UNL     1       3.133  -1.134  -6.183  1.00  0.00    -0.341 N 
ATOM     47  H   UNL     1       2.359  -1.780  -6.315  1.00  0.00     0.164 HD
BRANCH  46  48
ATOM     48  C   UNL     1       3.743  -1.076  -4.853  1.00  0.00     0.196 C 
BRANCH  48  49
ATOM     49  C   UNL     1       5.018  -1.934  -4.784  1.00  0.00     0.072 C 
BRANCH  49  50
ATOM     50  C   UNL     1       4.964  -2.970  -3.685  1.00  0.00    -0.045 A 
ATOM     51  C   UNL     1       4.996  -2.568  -2.342  1.00  0.00     0.007 A 
ATOM     52  C   UNL     1       4.902  -4.337  -3.986  1.00  0.00     0.007 A 
ATOM     53  C   UNL     1       4.959  -3.516  -1.319  1.00  0.00     0.046 A 
ATOM     54  C   UNL     1       4.867  -5.286  -2.962  1.00  0.00     0.046 A 
ATOM     55  C   UNL     1       4.895  -4.867  -1.636  1.00  0.00     0.115 A 
BRANCH  55  56
ATOM     56  O   UNL     1       4.863  -5.762  -0.608  1.00  0.00    -0.508 OA
ATOM     57  H   UNL     1       5.752  -6.134  -0.498  1.00  0.00     0.293 HD
ENDBRANCH  55  56
ENDBRANCH  49  50
ENDBRANCH  48  49
BRANCH  48  58
ATOM     58  C   UNL     1       4.086   0.383  -4.524  1.00  0.00     0.326 C 
ATOM     59  O   UNL     1       3.306   1.310  -4.372  1.00  0.00    -0.250 OA
BRANCH  58  60
ATOM     60  O   UNL     1       5.417   0.609  -4.385  1.00  0.00    -0.480 OA
ATOM     61  H   UNL     1       5.485   1.021  -3.497  1.00  0.00     0.296 HD
ENDBRANCH  58  60
ENDBRANCH  48  58
ENDBRANCH  46  48
ENDBRANCH  34  44
ENDBRANCH  32  34
ENDBRANCH  25  30
ENDBRANCH  23  25
ENDBRANCH   2  23
TORSDOF 28
ENDMDL
MODEL 6
REMARK VINA RESULT:    -6.632      2.362      7.043
REMARK INTER + INTRA:         -21.173
REMARK INTER:                 -15.597
REMARK INTRA:                  -5.576
REMARK UNBOUND:                -4.653
REMARK SMILES CCCCCCC[C@H](N)[C@H](O)C(=O)N[C@H](C)C(=O)N(C)[C@H](CC(C)C)C(=O)N[C@@H](Cc1ccc(O)cc1)C(=O)N[C@@H](Cc1ccc(O)cc1)C(=O)O
REMARK SMILES IDX 18 1 17 2 15 3 16 4 14 5 12 6 13 7 10 9 11 10 8 12 9 13 7 16
REMARK SMILES IDX 6 17 5 18 4 19 3 20 2 21 1 22 19 23 20 24 21 25 22 26 23 27
REMARK SMILES IDX 24 28 25 29 26 30 27 31 28 32 29 34 30 35 31 36 32 37 37 38
REMARK SMILES IDX 33 39 36 40 34 41 35 42 38 44 39 45 40 46 41 48 42 49 43 50
REMARK SMILES IDX 44 51 49 52 45 53 48 54 46 55 47 56 50 58 51 59 52 60
REMARK H PARENT 14 8 11 11 9 14 9 15 28 33 35 43 40 47 47 57 52 61
ROOT
ATOM      1  O   UNL     1       5.060  -5.372 -10.399  1.00  0.00    -0.272 OA
ATOM      2  C   UNL     1       3.902  -5.476 -10.831  1.00  0.00     0.245 C 
ENDROOT
BRANCH   2   3
ATOM      3  C   UNL     1       2.921  -6.427 -10.102  1.00  0.00     0.168 C 
ATOM      4  C   UNL     1       3.587  -7.766  -9.803  1.00  0.00     0.041 C 
BRANCH   3   5
ATOM      5  N   UNL     1       2.286  -5.862  -8.921  1.00  0.00    -0.342 N 
ATOM      6  C   UNL     1       0.947  -6.051  -8.654  1.00  0.00     0.251 C 
ATOM      7  O   UNL     1       0.189  -6.663  -9.399  1.00  0.00    -0.272 OA
ATOM      8  H   UNL     1       2.807  -5.305  -8.247  1.00  0.00     0.164 HD
BRANCH   6   9
ATOM      9  C   UNL     1       0.528  -5.488  -7.287  1.00  0.00     0.219 C 
BRANCH   9  10
ATOM     10  O   UNL     1      -0.884  -5.266  -7.189  1.00  0.00    -0.382 OA
ATOM     11  H   UNL     1      -0.953  -4.317  -6.948  1.00  0.00     0.211 HD
ENDBRANCH   9  10
BRANCH   9  12
ATOM     12  C   UNL     1       1.035  -6.342  -6.095  1.00  0.00     0.089 C 
BRANCH  12  13
ATOM     13  N   UNL     1       1.445  -7.668  -6.611  1.00  0.00    -0.325 NA
ATOM     14  H   UNL     1       2.184  -8.046  -6.016  1.00  0.00     0.119 HD
ATOM     15  H   UNL     1       1.879  -7.546  -7.530  1.00  0.00     0.119 HD
ENDBRANCH  12  13
BRANCH  12  16
ATOM     16  C   UNL     1       2.177  -5.722  -5.255  1.00  0.00     0.022 C 
BRANCH  16  17
ATOM     17  C   UNL     1       3.451  -6.542  -5.007  1.00  0.00     0.002 C 
BRANCH  17  18
ATOM     18  C   UNL     1       4.667  -6.107  -5.822  1.00  0.00     0.000 C 
BRANCH  18  19
ATOM     19  C   UNL     1       5.998  -6.675  -5.310  1.00  0.00    -0.000 C 
BRANCH  19  20
ATOM     20  C   UNL     1       5.991  -7.130  -3.848  1.00  0.00    -0.000 C 
BRANCH  20  21
ATOM     21  C   UNL     1       7.397  -7.317  -3.273  1.00  0.00    -0.003 C 
ATOM     22  C   UNL     1       8.460  -6.778  -4.218  1.00  0.00     0.004 C 
ENDBRANCH  20  21
ENDBRANCH  19  20
ENDBRANCH  18  19
ENDBRANCH  17  18
ENDBRANCH  16  17
ENDBRANCH  12  16
ENDBRANCH   9  12
ENDBRANCH   6   9
ENDBRANCH   3   5
ENDBRANCH   2   3
BRANCH   2  23
ATOM     23  N   UNL     1       3.472  -4.658 -11.870  1.00  0.00    -0.332 N 
ATOM     24  C   UNL     1       4.078  -4.615 -13.193  1.00  0.00     0.147 C 
BRANCH  23  25
ATOM     25  C   UNL     1       2.238  -3.838 -11.720  1.00  0.00     0.174 C 
BRANCH  25  26
ATOM     26  C   UNL     1       1.555  -3.525 -13.071  1.00  0.00     0.038 C 
BRANCH  26  27
ATOM     27  C   UNL     1       0.041  -3.816 -13.174  1.00  0.00    -0.015 C 
ATOM     28  C   UNL     1      -0.321  -5.216 -12.679  1.00  0.00     0.007 C 
ATOM     29  C   UNL     1      -0.827  -2.763 -12.489  1.00  0.00     0.007 C 
ENDBRANCH  26  27
ENDBRANCH  25  26
BRANCH  25  30
ATOM     30  C   UNL     1       2.534  -2.582 -10.868  1.00  0.00     0.243 C 
ATOM     31  O   UNL     1       3.481  -1.837 -11.116  1.00  0.00    -0.273 OA
ATOM     32  N   UNL     1       1.679  -2.361  -9.820  1.00  0.00    -0.342 N 
ATOM     33  H   UNL     1       0.838  -2.942  -9.764  1.00  0.00     0.164 HD
BRANCH  32  34
ATOM     34  C   UNL     1       1.822  -1.237  -8.891  1.00  0.00     0.175 C 
BRANCH  34  35
ATOM     35  C   UNL     1       0.468  -0.565  -8.614  1.00  0.00     0.070 C 
BRANCH  35  36
ATOM     36  C   UNL     1       0.139   0.521  -9.613  1.00  0.00    -0.045 A 
ATOM     37  C   UNL     1       0.499   0.367 -10.960  1.00  0.00     0.007 A 
ATOM     38  C   UNL     1      -0.504   1.698  -9.209  1.00  0.00     0.007 A 
ATOM     39  C   UNL     1       0.211   1.370 -11.887  1.00  0.00     0.046 A 
ATOM     40  C   UNL     1      -0.791   2.703 -10.136  1.00  0.00     0.046 A 
ATOM     41  C   UNL     1      -0.431   2.529 -11.468  1.00  0.00     0.115 A 
BRANCH  41  42
ATOM     42  O   UNL     1      -0.691   3.485 -12.405  1.00  0.00    -0.508 OA
ATOM     43  H   UNL     1      -0.686   4.352 -11.965  1.00  0.00     0.293 HD
ENDBRANCH  41  42
ENDBRANCH  35  36
ENDBRANCH  34  35
BRANCH  34  44
ATOM     44  C   UNL     1       2.480  -1.766  -7.596  1.00  0.00     0.243 C 
ATOM     45  O   UNL     1       2.423  -2.932  -7.216  1.00  0.00    -0.273 OA
ATOM     46  N   UNL     1       3.039  -0.773  -6.820  1.00  0.00    -0.341 N 
ATOM     47  H   UNL     1       2.958   0.194  -7.122  1.00  0.00     0.164 HD
BRANCH  46  48
ATOM     48  C   UNL     1       3.660  -1.023  -5.517  1.00  0.00     0.196 C 
BRANCH  48  49
ATOM     49  C   UNL     1       4.716  -2.138  -5.605  1.00  0.00     0.072 C 
BRANCH  49  50
ATOM     50  C   UNL     1       5.018  -2.760  -4.260  1.00  0.00    -0.045 A 
ATOM     51  C   UNL     1       3.982  -2.972  -3.339  1.00  0.00     0.007 A 
ATOM     52  C   UNL     1       6.327  -3.113  -3.907  1.00  0.00     0.007 A 
ATOM     53  C   UNL     1       4.250  -3.533  -2.091  1.00  0.00     0.046 A 
ATOM     54  C   UNL     1       6.596  -3.674  -2.656  1.00  0.00     0.046 A 
ATOM     55  C   UNL     1       5.554  -3.880  -1.759  1.00  0.00     0.115 A 
BRANCH  55  56
ATOM     56  O   UNL     1       5.774  -4.424  -0.528  1.00  0.00    -0.508 OA
ATOM     57  H   UNL     1       6.267  -3.782   0.007  1.00  0.00     0.293 HD
ENDBRANCH  55  56
ENDBRANCH  49  50
ENDBRANCH  48  49
BRANCH  48  58
ATOM     58  C   UNL     1       4.318   0.272  -5.021  1.00  0.00     0.326 C 
ATOM     59  O   UNL     1       5.438   0.680  -5.284  1.00  0.00    -0.250 OA
BRANCH  58  60
ATOM     60  O   UNL     1       3.516   1.012  -4.215  1.00  0.00    -0.480 OA
ATOM     61  H   UNL     1       3.093   0.340  -3.637  1.00  0.00     0.296 HD
ENDBRANCH  58  60
ENDBRANCH  48  58
ENDBRANCH  46  48
ENDBRANCH  34  44
ENDBRANCH  32  34
ENDBRANCH  25  30
ENDBRANCH  23  25
ENDBRANCH   2  23
TORSDOF 28
ENDMDL
MODEL 7
REMARK VINA RESULT:    -6.625      2.423      6.594
REMARK INTER + INTRA:         -21.153
REMARK INTER:                 -15.283
REMARK INTRA:                  -5.871
REMARK UNBOUND:                -4.653
REMARK SMILES CCCCCCC[C@H](N)[C@H](O)C(=O)N[C@H](C)C(=O)N(C)[C@H](CC(C)C)C(=O)N[C@@H](Cc1ccc(O)cc1)C(=O)N[C@@H](Cc1ccc(O)cc1)C(=O)O
REMARK SMILES IDX 18 1 17 2 15 3 16 4 14 5 12 6 13 7 10 9 11 10 8 12 9 13 7 16
REMARK SMILES IDX 6 17 5 18 4 19 3 20 2 21 1 22 19 23 20 24 21 25 22 26 23 27
REMARK SMILES IDX 24 28 25 29 26 30 27 31 28 32 29 34 30 35 31 36 32 37 37 38
REMARK SMILES IDX 33 39 36 40 34 41 35 42 38 44 39 45 40 46 41 48 42 49 43 50
REMARK SMILES IDX 44 51 49 52 45 53 48 54 46 55 47 56 50 58 51 59 52 60
REMARK H PARENT 14 8 11 11 9 14 9 15 28 33 35 43 40 47 47 57 52 61
ROOT
ATOM      1  O   UNL     1       0.959  -4.807  -8.313  1.00  0.00    -0.272 OA
ATOM      2  C   UNL     1       1.941  -5.039  -9.033  1.00  0.00     0.245 C 
ENDROOT
BRANCH   2   3
ATOM      3  C   UNL     1       3.251  -5.527  -8.365  1.00  0.00     0.168 C 
ATOM      4  C   UNL     1       4.466  -4.874  -9.015  1.00  0.00     0.041 C 
BRANCH   3   5
ATOM      5  N   UNL     1       3.280  -5.404  -6.916  1.00  0.00    -0.342 N 
ATOM      6  C   UNL     1       4.182  -6.105  -6.144  1.00  0.00     0.251 C 
ATOM      7  O   UNL     1       4.989  -6.905  -6.605  1.00  0.00    -0.272 OA
ATOM      8  H   UNL     1       2.635  -4.796  -6.416  1.00  0.00     0.164 HD
BRANCH   6   9
ATOM      9  C   UNL     1       4.125  -5.712  -4.659  1.00  0.00     0.219 C 
BRANCH   9  10
ATOM     10  O   UNL     1       2.793  -5.432  -4.212  1.00  0.00    -0.382 OA
ATOM     11  H   UNL     1       2.476  -4.749  -4.843  1.00  0.00     0.211 HD
ENDBRANCH   9  10
BRANCH   9  12
ATOM     12  C   UNL     1       4.813  -6.745  -3.728  1.00  0.00     0.089 C 
BRANCH  12  13
ATOM     13  N   UNL     1       4.344  -8.098  -4.105  1.00  0.00    -0.325 NA
ATOM     14  H   UNL     1       4.912  -8.446  -4.880  1.00  0.00     0.119 HD
ATOM     15  H   UNL     1       3.396  -8.027  -4.481  1.00  0.00     0.119 HD
ENDBRANCH  12  13
BRANCH  12  16
ATOM     16  C   UNL     1       6.359  -6.707  -3.700  1.00  0.00     0.022 C 
BRANCH  16  17
ATOM     17  C   UNL     1       7.084  -6.810  -2.350  1.00  0.00     0.002 C 
BRANCH  17  18
ATOM     18  C   UNL     1       7.996  -5.632  -2.017  1.00  0.00     0.000 C 
BRANCH  18  19
ATOM     19  C   UNL     1       7.265  -4.429  -1.406  1.00  0.00    -0.000 C 
BRANCH  19  20
ATOM     20  C   UNL     1       7.179  -3.194  -2.307  1.00  0.00    -0.000 C 
BRANCH  20  21
ATOM     21  C   UNL     1       5.777  -2.966  -2.879  1.00  0.00    -0.003 C 
ATOM     22  C   UNL     1       4.700  -3.385  -1.891  1.00  0.00     0.004 C 
ENDBRANCH  20  21
ENDBRANCH  19  20
ENDBRANCH  18  19
ENDBRANCH  17  18
ENDBRANCH  16  17
ENDBRANCH  12  16
ENDBRANCH   9  12
ENDBRANCH   6   9
ENDBRANCH   3   5
ENDBRANCH   2   3
BRANCH   2  23
ATOM     23  N   UNL     1       1.819  -4.979 -10.417  1.00  0.00    -0.332 N 
ATOM     24  C   UNL     1       2.004  -6.112 -11.313  1.00  0.00     0.147 C 
BRANCH  23  25
ATOM     25  C   UNL     1       1.349  -3.730 -11.076  1.00  0.00     0.174 C 
BRANCH  25  26
ATOM     26  C   UNL     1       1.365  -3.820 -12.620  1.00  0.00     0.038 C 
BRANCH  26  27
ATOM     27  C   UNL     1       0.389  -2.900 -13.386  1.00  0.00    -0.015 C 
ATOM     28  C   UNL     1      -0.924  -2.686 -12.633  1.00  0.00     0.007 C 
ATOM     29  C   UNL     1       1.003  -1.561 -13.785  1.00  0.00     0.007 C 
ENDBRANCH  26  27
ENDBRANCH  25  26
BRANCH  25  30
ATOM     30  C   UNL     1       2.120  -2.512 -10.517  1.00  0.00     0.243 C 
ATOM     31  O   UNL     1       3.173  -2.122 -11.020  1.00  0.00    -0.273 OA
ATOM     32  N   UNL     1       1.556  -1.903  -9.425  1.00  0.00    -0.342 N 
ATOM     33  H   UNL     1       0.614  -2.196  -9.154  1.00  0.00     0.164 HD
BRANCH  32  34
ATOM     34  C   UNL     1       2.161  -0.753  -8.747  1.00  0.00     0.175 C 
BRANCH  34  35
ATOM     35  C   UNL     1       1.093   0.257  -8.301  1.00  0.00     0.070 C 
BRANCH  35  36
ATOM     36  C   UNL     1       0.611   1.136  -9.433  1.00  0.00    -0.045 A 
ATOM     37  C   UNL     1      -0.475   2.003  -9.234  1.00  0.00     0.007 A 
ATOM     38  C   UNL     1       1.219   1.084 -10.693  1.00  0.00     0.007 A 
ATOM     39  C   UNL     1      -0.936   2.808 -10.277  1.00  0.00     0.046 A 
ATOM     40  C   UNL     1       0.758   1.889 -11.738  1.00  0.00     0.046 A 
ATOM     41  C   UNL     1      -0.316   2.745 -11.519  1.00  0.00     0.115 A 
BRANCH  41  42
ATOM     42  O   UNL     1      -0.799   3.546 -12.511  1.00  0.00    -0.508 OA
ATOM     43  H   UNL     1      -1.756   3.651 -12.380  1.00  0.00     0.293 HD
ENDBRANCH  41  42
ENDBRANCH  35  36
ENDBRANCH  34  35
BRANCH  34  44
ATOM     44  C   UNL     1       2.989  -1.282  -7.555  1.00  0.00     0.243 C 
ATOM     45  O   UNL     1       2.693  -2.269  -6.887  1.00  0.00    -0.273 OA
ATOM     46  N   UNL     1       4.044  -0.462  -7.213  1.00  0.00    -0.341 N 
ATOM     47  H   UNL     1       4.180   0.407  -7.724  1.00  0.00     0.164 HD
BRANCH  46  48
ATOM     48  C   UNL     1       4.929  -0.720  -6.075  1.00  0.00     0.196 C 
BRANCH  48  49
ATOM     49  C   UNL     1       6.409  -0.633  -6.486  1.00  0.00     0.072 C 
BRANCH  49  50
ATOM     50  C   UNL     1       7.171  -1.905  -6.190  1.00  0.00    -0.045 A 
ATOM     51  C   UNL     1       6.586  -3.150  -6.465  1.00  0.00     0.007 A 
ATOM     52  C   UNL     1       8.451  -1.863  -5.624  1.00  0.00     0.007 A 
ATOM     53  C   UNL     1       7.273  -4.330  -6.184  1.00  0.00     0.046 A 
ATOM     54  C   UNL     1       9.139  -3.046  -5.341  1.00  0.00     0.046 A 
ATOM     55  C   UNL     1       8.544  -4.270  -5.625  1.00  0.00     0.115 A 
BRANCH  55  56
ATOM     56  O   UNL     1       9.182  -5.447  -5.364  1.00  0.00    -0.508 OA
ATOM     57  H   UNL     1       9.215  -5.965  -6.184  1.00  0.00     0.293 HD
ENDBRANCH  55  56
ENDBRANCH  49  50
ENDBRANCH  48  49
BRANCH  48  58
ATOM     58  C   UNL     1       4.640   0.309  -4.974  1.00  0.00     0.326 C 
ATOM     59  O   UNL     1       3.577   0.863  -4.740  1.00  0.00    -0.250 OA
BRANCH  58  60
ATOM     60  O   UNL     1       5.716   0.586  -4.195  1.00  0.00    -0.480 OA
ATOM     61  H   UNL     1       6.476   0.411  -4.791  1.00  0.00     0.296 HD
ENDBRANCH  58  60
ENDBRANCH  48  58
ENDBRANCH  46  48
ENDBRANCH  34  44
ENDBRANCH  32  34
ENDBRANCH  25  30
ENDBRANCH  23  25
ENDBRANCH   2  23
TORSDOF 28
ENDMDL
MODEL 8
REMARK VINA RESULT:    -6.477      2.054      6.524
REMARK INTER + INTRA:         -20.786
REMARK INTER:                 -16.114
REMARK INTRA:                  -4.672
REMARK UNBOUND:                -4.653
REMARK SMILES CCCCCCC[C@H](N)[C@H](O)C(=O)N[C@H](C)C(=O)N(C)[C@H](CC(C)C)C(=O)N[C@@H](Cc1ccc(O)cc1)C(=O)N[C@@H](Cc1ccc(O)cc1)C(=O)O
REMARK SMILES IDX 18 1 17 2 15 3 16 4 14 5 12 6 13 7 10 9 11 10 8 12 9 13 7 16
REMARK SMILES IDX 6 17 5 18 4 19 3 20 2 21 1 22 19 23 20 24 21 25 22 26 23 27
REMARK SMILES IDX 24 28 25 29 26 30 27 31 28 32 29 34 30 35 31 36 32 37 37 38
REMARK SMILES IDX 33 39 36 40 34 41 35 42 38 44 39 45 40 46 41 48 42 49 43 50
REMARK SMILES IDX 44 51 49 52 45 53 48 54 46 55 47 56 50 58 51 59 52 60
REMARK H PARENT 14 8 11 11 9 14 9 15 28 33 35 43 40 47 47 57 52 61
ROOT
ATOM      1  O   UNL     1      -1.419  -4.065  -7.648  1.00  0.00    -0.272 OA
ATOM      2  C   UNL     1      -0.506  -4.819  -8.019  1.00  0.00     0.245 C 
ENDROOT
BRANCH   2   3
ATOM      3  C   UNL     1       0.200  -5.703  -6.961  1.00  0.00     0.168 C 
ATOM      4  C   UNL     1      -0.420  -7.096  -6.918  1.00  0.00     0.041 C 
BRANCH   3   5
ATOM      5  N   UNL     1       1.649  -5.758  -7.079  1.00  0.00    -0.342 N 
ATOM      6  C   UNL     1       2.462  -5.953  -5.983  1.00  0.00     0.251 C 
ATOM      7  O   UNL     1       2.038  -6.052  -4.836  1.00  0.00    -0.272 OA
ATOM      8  H   UNL     1       2.118  -5.655  -7.976  1.00  0.00     0.164 HD
BRANCH   6   9
ATOM      9  C   UNL     1       3.942  -6.119  -6.363  1.00  0.00     0.219 C 
BRANCH   9  10
ATOM     10  O   UNL     1       4.468  -4.977  -7.048  1.00  0.00    -0.382 OA
ATOM     11  H   UNL     1       4.928  -5.365  -7.825  1.00  0.00     0.211 HD
ENDBRANCH   9  10
BRANCH   9  12
ATOM     12  C   UNL     1       4.841  -6.500  -5.157  1.00  0.00     0.089 C 
BRANCH  12  13
ATOM     13  N   UNL     1       4.277  -7.712  -4.519  1.00  0.00    -0.325 NA
ATOM     14  H   UNL     1       3.263  -7.612  -4.446  1.00  0.00     0.119 HD
ATOM     15  H   UNL     1       4.611  -7.763  -3.553  1.00  0.00     0.119 HD
ENDBRANCH  12  13
BRANCH  12  16
ATOM     16  C   UNL     1       6.341  -6.714  -5.471  1.00  0.00     0.022 C 
BRANCH  16  17
ATOM     17  C   UNL     1       6.740  -7.386  -6.792  1.00  0.00     0.002 C 
BRANCH  17  18
ATOM     18  C   UNL     1       7.452  -6.475  -7.789  1.00  0.00     0.000 C 
BRANCH  18  19
ATOM     19  C   UNL     1       7.095  -6.754  -9.255  1.00  0.00    -0.000 C 
BRANCH  19  20
ATOM     20  C   UNL     1       6.028  -7.831  -9.471  1.00  0.00    -0.000 C 
BRANCH  20  21
ATOM     21  C   UNL     1       4.651  -7.252  -9.805  1.00  0.00    -0.003 C 
ATOM     22  C   UNL     1       4.757  -6.110 -10.804  1.00  0.00     0.004 C 
ENDBRANCH  20  21
ENDBRANCH  19  20
ENDBRANCH  18  19
ENDBRANCH  17  18
ENDBRANCH  16  17
ENDBRANCH  12  16
ENDBRANCH   9  12
ENDBRANCH   6   9
ENDBRANCH   3   5
ENDBRANCH   2   3
BRANCH   2  23
ATOM     23  N   UNL     1      -0.218  -4.948  -9.373  1.00  0.00    -0.332 N 
ATOM     24  C   UNL     1      -0.054  -6.218 -10.065  1.00  0.00     0.147 C 
BRANCH  23  25
ATOM     25  C   UNL     1      -0.183  -3.747 -10.252  1.00  0.00     0.174 C 
BRANCH  25  26
ATOM     26  C   UNL     1      -0.210  -4.101 -11.757  1.00  0.00     0.038 C 
BRANCH  26  27
ATOM     27  C   UNL     1      -0.645  -2.983 -12.731  1.00  0.00    -0.015 C 
ATOM     28  C   UNL     1       0.544  -2.303 -13.409  1.00  0.00     0.007 C 
ATOM     29  C   UNL     1      -1.663  -3.446 -13.771  1.00  0.00     0.007 C 
ENDBRANCH  26  27
ENDBRANCH  25  26
BRANCH  25  30
ATOM     30  C   UNL     1       0.993  -2.828  -9.850  1.00  0.00     0.243 C 
ATOM     31  O   UNL     1       2.122  -2.976 -10.316  1.00  0.00    -0.273 OA
ATOM     32  N   UNL     1       0.696  -1.847  -8.940  1.00  0.00    -0.342 N 
ATOM     33  H   UNL     1      -0.290  -1.698  -8.708  1.00  0.00     0.164 HD
BRANCH  32  34
ATOM     34  C   UNL     1       1.691  -0.902  -8.424  1.00  0.00     0.175 C 
BRANCH  34  35
ATOM     35  C   UNL     1       1.051   0.453  -8.083  1.00  0.00     0.070 C 
BRANCH  35  36
ATOM     36  C   UNL     1       0.621   1.222  -9.312  1.00  0.00    -0.045 A 
ATOM     37  C   UNL     1      -0.502   2.061  -9.257  1.00  0.00     0.007 A 
ATOM     38  C   UNL     1       1.317   1.093 -10.521  1.00  0.00     0.007 A 
ATOM     39  C   UNL     1      -0.915   2.765 -10.389  1.00  0.00     0.046 A 
ATOM     40  C   UNL     1       0.904   1.796 -11.655  1.00  0.00     0.046 A 
ATOM     41  C   UNL     1      -0.209   2.627 -11.578  1.00  0.00     0.115 A 
BRANCH  41  42
ATOM     42  O   UNL     1      -0.647   3.330 -12.661  1.00  0.00    -0.508 OA
ATOM     43  H   UNL     1      -0.156   4.168 -12.700  1.00  0.00     0.293 HD
ENDBRANCH  41  42
ENDBRANCH  35  36
ENDBRANCH  34  35
BRANCH  34  44
ATOM     44  C   UNL     1       2.370  -1.546  -7.195  1.00  0.00     0.243 C 
ATOM     45  O   UNL     1       2.171  -2.696  -6.815  1.00  0.00    -0.273 OA
ATOM     46  N   UNL     1       3.138  -0.662  -6.467  1.00  0.00    -0.341 N 
ATOM     47  H   UNL     1       3.179   0.312  -6.757  1.00  0.00     0.164 HD
BRANCH  46  48
ATOM     48  C   UNL     1       3.824  -1.024  -5.225  1.00  0.00     0.196 C 
BRANCH  48  49
ATOM     49  C   UNL     1       4.907  -2.088  -5.472  1.00  0.00     0.072 C 
BRANCH  49  50
ATOM     50  C   UNL     1       5.155  -2.959  -4.262  1.00  0.00    -0.045 A 
ATOM     51  C   UNL     1       4.078  -3.363  -3.460  1.00  0.00     0.007 A 
ATOM     52  C   UNL     1       6.452  -3.356  -3.913  1.00  0.00     0.007 A 
ATOM     53  C   UNL     1       4.296  -4.157  -2.333  1.00  0.00     0.046 A 
ATOM     54  C   UNL     1       6.671  -4.149  -2.784  1.00  0.00     0.046 A 
ATOM     55  C   UNL     1       5.590  -4.543  -2.004  1.00  0.00     0.115 A 
BRANCH  55  56
ATOM     56  O   UNL     1       5.760  -5.317  -0.894  1.00  0.00    -0.508 OA
ATOM     57  H   UNL     1       6.628  -5.747  -0.951  1.00  0.00     0.293 HD
ENDBRANCH  55  56
ENDBRANCH  49  50
ENDBRANCH  48  49
BRANCH  48  58
ATOM     58  C   UNL     1       4.466   0.234  -4.623  1.00  0.00     0.326 C 
ATOM     59  O   UNL     1       5.657   0.481  -4.524  1.00  0.00    -0.250 OA
BRANCH  58  60
ATOM     60  O   UNL     1       3.562   1.144  -4.181  1.00  0.00    -0.480 OA
ATOM     61  H   UNL     1       4.027   1.580  -3.434  1.00  0.00     0.296 HD
ENDBRANCH  58  60
ENDBRANCH  48  58
ENDBRANCH  46  48
ENDBRANCH  34  44
ENDBRANCH  32  34
ENDBRANCH  25  30
ENDBRANCH  23  25
ENDBRANCH   2  23
TORSDOF 28
ENDMDL
MODEL 9
REMARK VINA RESULT:    -6.298      3.152     10.120
REMARK INTER + INTRA:         -20.339
REMARK INTER:                 -15.985
REMARK INTRA:                  -4.353
REMARK UNBOUND:                -4.653
REMARK SMILES CCCCCCC[C@H](N)[C@H](O)C(=O)N[C@H](C)C(=O)N(C)[C@H](CC(C)C)C(=O)N[C@@H](Cc1ccc(O)cc1)C(=O)N[C@@H](Cc1ccc(O)cc1)C(=O)O
REMARK SMILES IDX 18 1 17 2 15 3 16 4 14 5 12 6 13 7 10 9 11 10 8 12 9 13 7 16
REMARK SMILES IDX 6 17 5 18 4 19 3 20 2 21 1 22 19 23 20 24 21 25 22 26 23 27
REMARK SMILES IDX 24 28 25 29 26 30 27 31 28 32 29 34 30 35 31 36 32 37 37 38
REMARK SMILES IDX 33 39 36 40 34 41 35 42 38 44 39 45 40 46 41 48 42 49 43 50
REMARK SMILES IDX 44 51 49 52 45 53 48 54 46 55 47 56 50 58 51 59 52 60
REMARK H PARENT 14 8 11 11 9 14 9 15 28 33 35 43 40 47 47 57 52 61
ROOT
ATOM      1  O   UNL     1      -1.477  -4.914  -9.657  1.00  0.00    -0.272 OA
ATOM      2  C   UNL     1      -0.561  -5.717  -9.426  1.00  0.00     0.245 C 
ENDROOT
BRANCH   2   3
ATOM      3  C   UNL     1      -0.150  -6.712 -10.540  1.00  0.00     0.168 C 
ATOM      4  C   UNL     1      -0.520  -8.140 -10.154  1.00  0.00     0.041 C 
BRANCH   3   5
ATOM      5  N   UNL     1      -0.625  -6.369 -11.871  1.00  0.00    -0.342 N 
ATOM      6  C   UNL     1       0.145  -5.644 -12.755  1.00  0.00     0.251 C 
ATOM      7  O   UNL     1       1.256  -5.202 -12.479  1.00  0.00    -0.272 OA
ATOM      8  H   UNL     1      -1.545  -6.651 -12.201  1.00  0.00     0.164 HD
BRANCH   6   9
ATOM      9  C   UNL     1      -0.499  -5.524 -14.146  1.00  0.00     0.219 C 
BRANCH   9  10
ATOM     10  O   UNL     1      -1.322  -6.650 -14.472  1.00  0.00    -0.382 OA
ATOM     11  H   UNL     1      -0.895  -7.024 -15.274  1.00  0.00     0.211 HD
ENDBRANCH   9  10
BRANCH   9  12
ATOM     12  C   UNL     1      -1.276  -4.197 -14.345  1.00  0.00     0.089 C 
BRANCH  12  13
ATOM     13  N   UNL     1      -1.222  -3.429 -13.079  1.00  0.00    -0.325 NA
ATOM     14  H   UNL     1      -1.721  -2.546 -13.200  1.00  0.00     0.119 HD
ATOM     15  H   UNL     1      -0.252  -3.164 -12.895  1.00  0.00     0.119 HD
ENDBRANCH  12  13
BRANCH  12  16
ATOM     16  C   UNL     1      -0.813  -3.310 -15.525  1.00  0.00     0.022 C 
BRANCH  16  17
ATOM     17  C   UNL     1      -1.410  -3.549 -16.918  1.00  0.00     0.002 C 
BRANCH  17  18
ATOM     18  C   UNL     1      -2.906  -3.266 -17.036  1.00  0.00     0.000 C 
BRANCH  18  19
ATOM     19  C   UNL     1      -3.238  -1.854 -17.535  1.00  0.00    -0.000 C 
BRANCH  19  20
ATOM     20  C   UNL     1      -3.344  -1.711 -19.056  1.00  0.00    -0.000 C 
BRANCH  20  21
ATOM     21  C   UNL     1      -2.476  -0.579 -19.614  1.00  0.00    -0.003 C 
ATOM     22  C   UNL     1      -1.006  -0.970 -19.641  1.00  0.00     0.004 C 
ENDBRANCH  20  21
ENDBRANCH  19  20
ENDBRANCH  18  19
ENDBRANCH  17  18
ENDBRANCH  16  17
ENDBRANCH  12  16
ENDBRANCH   9  12
ENDBRANCH   6   9
ENDBRANCH   3   5
ENDBRANCH   2   3
BRANCH   2  23
ATOM     23  N   UNL     1       0.155  -5.633  -8.236  1.00  0.00    -0.332 N 
ATOM     24  C   UNL     1      -0.224  -6.293  -6.996  1.00  0.00     0.147 C 
BRANCH  23  25
ATOM     25  C   UNL     1       1.469  -4.935  -8.199  1.00  0.00     0.174 C 
BRANCH  25  26
ATOM     26  C   UNL     1       2.553  -5.735  -7.438  1.00  0.00     0.038 C 
BRANCH  26  27
ATOM     27  C   UNL     1       3.842  -6.082  -8.216  1.00  0.00    -0.015 C 
ATOM     28  C   UNL     1       5.011  -6.418  -7.290  1.00  0.00     0.007 C 
ATOM     29  C   UNL     1       3.647  -7.182  -9.256  1.00  0.00     0.007 C 
ENDBRANCH  26  27
ENDBRANCH  25  26
BRANCH  25  30
ATOM     30  C   UNL     1       1.290  -3.488  -7.686  1.00  0.00     0.243 C 
ATOM     31  O   UNL     1       0.181  -2.962  -7.599  1.00  0.00    -0.273 OA
ATOM     32  N   UNL     1       2.444  -2.833  -7.343  1.00  0.00    -0.342 N 
ATOM     33  H   UNL     1       3.308  -3.381  -7.308  1.00  0.00     0.164 HD
BRANCH  32  34
ATOM     34  C   UNL     1       2.468  -1.448  -6.863  1.00  0.00     0.175 C 
BRANCH  34  35
ATOM     35  C   UNL     1       3.749  -1.154  -6.068  1.00  0.00     0.070 C 
BRANCH  35  36
ATOM     36  C   UNL     1       3.941  -2.095  -4.900  1.00  0.00    -0.045 A 
ATOM     37  C   UNL     1       3.521  -1.715  -3.616  1.00  0.00     0.007 A 
ATOM     38  C   UNL     1       4.557  -3.341  -5.074  1.00  0.00     0.007 A 
ATOM     39  C   UNL     1       3.707  -2.571  -2.530  1.00  0.00     0.046 A 
ATOM     40  C   UNL     1       4.744  -4.198  -3.987  1.00  0.00     0.046 A 
ATOM     41  C   UNL     1       4.315  -3.805  -2.724  1.00  0.00     0.115 A 
BRANCH  41  42
ATOM     42  O   UNL     1       4.480  -4.610  -1.636  1.00  0.00    -0.508 OA
ATOM     43  H   UNL     1       5.205  -5.230  -1.823  1.00  0.00     0.293 HD
ENDBRANCH  41  42
ENDBRANCH  35  36
ENDBRANCH  34  35
BRANCH  34  44
ATOM     44  C   UNL     1       2.321  -0.515  -8.087  1.00  0.00     0.243 C 
ATOM     45  O   UNL     1       3.260  -0.108  -8.765  1.00  0.00    -0.273 OA
ATOM     46  N   UNL     1       1.033  -0.063  -8.280  1.00  0.00    -0.341 N 
ATOM     47  H   UNL     1       0.309  -0.336  -7.620  1.00  0.00     0.164 HD
BRANCH  46  48
ATOM     48  C   UNL     1       0.661   0.883  -9.334  1.00  0.00     0.196 C 
BRANCH  48  49
ATOM     49  C   UNL     1       0.092   0.157 -10.565  1.00  0.00     0.072 C 
BRANCH  49  50
ATOM     50  C   UNL     1       1.172  -0.341 -11.498  1.00  0.00    -0.045 A 
ATOM     51  C   UNL     1       1.780   0.546 -12.399  1.00  0.00     0.007 A 
ATOM     52  C   UNL     1       1.566  -1.685 -11.494  1.00  0.00     0.007 A 
ATOM     53  C   UNL     1       2.769   0.096 -13.274  1.00  0.00     0.046 A 
ATOM     54  C   UNL     1       2.555  -2.136 -12.371  1.00  0.00     0.046 A 
ATOM     55  C   UNL     1       3.149  -1.241 -13.254  1.00  0.00     0.115 A 
BRANCH  55  56
ATOM     56  O   UNL     1       4.117  -1.641 -14.127  1.00  0.00    -0.508 OA
ATOM     57  H   UNL     1       4.933  -1.158 -13.921  1.00  0.00     0.293 HD
ENDBRANCH  55  56
ENDBRANCH  49  50
ENDBRANCH  48  49
BRANCH  48  58
ATOM     58  C   UNL     1      -0.387   1.859  -8.782  1.00  0.00     0.326 C 
ATOM     59  O   UNL     1      -0.823   2.861  -9.326  1.00  0.00    -0.250 OA
BRANCH  58  60
ATOM     60  O   UNL     1      -0.855   1.514  -7.556  1.00  0.00    -0.480 OA
ATOM     61  H   UNL     1      -0.107   1.018  -7.160  1.00  0.00     0.296 HD
ENDBRANCH  58  60
ENDBRANCH  48  58
ENDBRANCH  46  48
ENDBRANCH  34  44
ENDBRANCH  32  34
ENDBRANCH  25  30
ENDBRANCH  23  25
ENDBRANCH   2  23
TORSDOF 28
ENDMDL
MODEL 10
REMARK VINA RESULT:    -6.172      2.409      6.900
REMARK INTER + INTRA:         -20.025
REMARK INTER:                 -14.300
REMARK INTRA:                  -5.726
REMARK UNBOUND:                -4.653
REMARK SMILES CCCCCCC[C@H](N)[C@H](O)C(=O)N[C@H](C)C(=O)N(C)[C@H](CC(C)C)C(=O)N[C@@H](Cc1ccc(O)cc1)C(=O)N[C@@H](Cc1ccc(O)cc1)C(=O)O
REMARK SMILES IDX 18 1 17 2 15 3 16 4 14 5 12 6 13 7 10 9 11 10 8 12 9 13 7 16
REMARK SMILES IDX 6 17 5 18 4 19 3 20 2 21 1 22 19 23 20 24 21 25 22 26 23 27
REMARK SMILES IDX 24 28 25 29 26 30 27 31 28 32 29 34 30 35 31 36 32 37 37 38
REMARK SMILES IDX 33 39 36 40 34 41 35 42 38 44 39 45 40 46 41 48 42 49 43 50
REMARK SMILES IDX 44 51 49 52 45 53 48 54 46 55 47 56 50 58 51 59 52 60
REMARK H PARENT 14 8 11 11 9 14 9 15 28 33 35 43 40 47 47 57 52 61
ROOT
ATOM      1  O   UNL     1      -0.972  -5.430  -9.959  1.00  0.00    -0.272 OA
ATOM      2  C   UNL     1       0.256  -5.594  -9.987  1.00  0.00     0.245 C 
ENDROOT
BRANCH   2   3
ATOM      3  C   UNL     1       0.902  -6.534  -8.938  1.00  0.00     0.168 C 
ATOM      4  C   UNL     1       0.340  -7.947  -9.059  1.00  0.00     0.041 C 
BRANCH   3   5
ATOM      5  N   UNL     1       2.356  -6.528  -8.924  1.00  0.00    -0.342 N 
ATOM      6  C   UNL     1       3.073  -6.358  -7.759  1.00  0.00     0.251 C 
ATOM      7  O   UNL     1       2.551  -6.161  -6.667  1.00  0.00    -0.272 OA
ATOM      8  H   UNL     1       2.901  -6.648  -9.775  1.00  0.00     0.164 HD
BRANCH   6   9
ATOM      9  C   UNL     1       4.587  -6.530  -7.961  1.00  0.00     0.219 C 
BRANCH   9  10
ATOM     10  O   UNL     1       4.917  -7.730  -8.670  1.00  0.00    -0.382 OA
ATOM     11  H   UNL     1       5.709  -8.068  -8.196  1.00  0.00     0.211 HD
ENDBRANCH   9  10
BRANCH   9  12
ATOM     12  C   UNL     1       5.256  -5.297  -8.624  1.00  0.00     0.089 C 
BRANCH  12  13
ATOM     13  N   UNL     1       4.250  -4.214  -8.719  1.00  0.00    -0.325 NA
ATOM     14  H   UNL     1       4.220  -3.705  -7.834  1.00  0.00     0.119 HD
ATOM     15  H   UNL     1       3.322  -4.632  -8.818  1.00  0.00     0.119 HD
ENDBRANCH  12  13
BRANCH  12  16
ATOM     16  C   UNL     1       6.540  -4.772  -7.939  1.00  0.00     0.022 C 
BRANCH  16  17
ATOM     17  C   UNL     1       7.298  -5.689  -6.969  1.00  0.00     0.002 C 
BRANCH  17  18
ATOM     18  C   UNL     1       8.393  -5.003  -6.156  1.00  0.00     0.000 C 
BRANCH  18  19
ATOM     19  C   UNL     1       9.043  -3.808  -6.867  1.00  0.00    -0.000 C 
BRANCH  19  20
ATOM     20  C   UNL     1       9.064  -2.506  -6.061  1.00  0.00    -0.000 C 
BRANCH  20  21
ATOM     21  C   UNL     1       8.325  -1.359  -6.756  1.00  0.00    -0.003 C 
ATOM     22  C   UNL     1       8.502  -0.049  -6.003  1.00  0.00     0.004 C 
ENDBRANCH  20  21
ENDBRANCH  19  20
ENDBRANCH  18  19
ENDBRANCH  17  18
ENDBRANCH  16  17
ENDBRANCH  12  16
ENDBRANCH   9  12
ENDBRANCH   6   9
ENDBRANCH   3   5
ENDBRANCH   2   3
BRANCH   2  23
ATOM     23  N   UNL     1       1.010  -5.040 -11.016  1.00  0.00    -0.332 N 
ATOM     24  C   UNL     1       2.005  -5.764 -11.793  1.00  0.00     0.147 C 
BRANCH  23  25
ATOM     25  C   UNL     1       0.739  -3.653 -11.482  1.00  0.00     0.174 C 
BRANCH  25  26
ATOM     26  C   UNL     1       0.885  -3.493 -13.014  1.00  0.00     0.038 C 
BRANCH  26  27
ATOM     27  C   UNL     1      -0.409  -3.570 -13.853  1.00  0.00    -0.015 C 
ATOM     28  C   UNL     1      -0.473  -4.832 -14.713  1.00  0.00     0.007 C 
ATOM     29  C   UNL     1      -1.682  -3.422 -13.022  1.00  0.00     0.007 C 
ENDBRANCH  26  27
ENDBRANCH  25  26
BRANCH  25  30
ATOM     30  C   UNL     1       1.581  -2.644 -10.668  1.00  0.00     0.243 C 
ATOM     31  O   UNL     1       2.765  -2.431 -10.923  1.00  0.00    -0.273 OA
ATOM     32  N   UNL     1       0.922  -2.010  -9.646  1.00  0.00    -0.342 N 
ATOM     33  H   UNL     1      -0.092  -2.133  -9.588  1.00  0.00     0.164 HD
BRANCH  32  34
ATOM     34  C   UNL     1       1.568  -1.043  -8.754  1.00  0.00     0.175 C 
BRANCH  34  35
ATOM     35  C   UNL     1       0.599   0.078  -8.349  1.00  0.00     0.070 C 
BRANCH  35  36
ATOM     36  C   UNL     1       0.325   1.049  -9.475  1.00  0.00    -0.045 A 
ATOM     37  C   UNL     1       1.174   1.086 -10.592  1.00  0.00     0.007 A 
ATOM     38  C   UNL     1      -0.758   1.936  -9.413  1.00  0.00     0.007 A 
ATOM     39  C   UNL     1       0.938   1.988 -11.630  1.00  0.00     0.046 A 
ATOM     40  C   UNL     1      -0.994   2.840 -10.451  1.00  0.00     0.046 A 
ATOM     41  C   UNL     1      -0.144   2.857 -11.552  1.00  0.00     0.115 A 
BRANCH  41  42
ATOM     42  O   UNL     1      -0.338   3.724 -12.586  1.00  0.00    -0.508 OA
ATOM     43  H   UNL     1      -0.706   4.549 -12.226  1.00  0.00     0.293 HD
ENDBRANCH  41  42
ENDBRANCH  35  36
ENDBRANCH  34  35
BRANCH  34  44
ATOM     44  C   UNL     1       2.107  -1.811  -7.526  1.00  0.00     0.243 C 
ATOM     45  O   UNL     1       1.705  -2.914  -7.165  1.00  0.00    -0.273 OA
ATOM     46  N   UNL     1       3.008  -1.085  -6.776  1.00  0.00    -0.341 N 
ATOM     47  H   UNL     1       3.222  -0.129  -7.051  1.00  0.00     0.164 HD
BRANCH  46  48
ATOM     48  C   UNL     1       3.603  -1.577  -5.532  1.00  0.00     0.196 C 
BRANCH  48  49
ATOM     49  C   UNL     1       4.930  -2.308  -5.796  1.00  0.00     0.072 C 
BRANCH  49  50
ATOM     50  C   UNL     1       5.223  -3.373  -4.764  1.00  0.00    -0.045 A 
ATOM     51  C   UNL     1       6.265  -3.187  -3.844  1.00  0.00     0.007 A 
ATOM     52  C   UNL     1       4.481  -4.560  -4.722  1.00  0.00     0.007 A 
ATOM     53  C   UNL     1       6.554  -4.168  -2.895  1.00  0.00     0.046 A 
ATOM     54  C   UNL     1       4.770  -5.543  -3.773  1.00  0.00     0.046 A 
ATOM     55  C   UNL     1       5.804  -5.338  -2.867  1.00  0.00     0.115 A 
BRANCH  55  56
ATOM     56  O   UNL     1       6.119  -6.273  -1.926  1.00  0.00    -0.508 OA
ATOM     57  H   UNL     1       6.629  -6.979  -2.354  1.00  0.00     0.293 HD
ENDBRANCH  55  56
ENDBRANCH  49  50
ENDBRANCH  48  49
BRANCH  48  58
ATOM     58  C   UNL     1       3.848  -0.388  -4.592  1.00  0.00     0.326 C 
ATOM     59  O   UNL     1       4.263  -0.427  -3.445  1.00  0.00    -0.250 OA
BRANCH  58  60
ATOM     60  O   UNL     1       3.568   0.814  -5.155  1.00  0.00    -0.480 OA
ATOM     61  H   UNL     1       2.603   0.765  -5.326  1.00  0.00     0.296 HD
ENDBRANCH  58  60
ENDBRANCH  48  58
ENDBRANCH  46  48
ENDBRANCH  34  44
ENDBRANCH  32  34
ENDBRANCH  25  30
ENDBRANCH  23  25
ENDBRANCH   2  23
TORSDOF 28
ENDMDL
