MODEL 1
REMARK VINA RESULT:    -6.978      0.000      0.000
REMARK INTER + INTRA:         -27.736
REMARK INTER:                 -20.847
REMARK INTRA:                  -6.889
REMARK UNBOUND:                -6.889
REMARK SMILES C=C1C(=O)N[C@H](C)C(=O)N[C@@H](CC(C)C)C(=O)N[C@@H](C(=O)O)[C@H](C)C(=O)N[C@@H](CCCN=C(N)N)C(=O)N[C@@H](/C=C/C(C)=C/[C@H](C)[C@H](Cc2ccccc2)OC)[C@H](C)C(=O)N[C@@H](C(=O)O)CCC(=O)N1C
REMARK SMILES IDX 39 1 38 2 37 3 36 4 28 6 27 7 25 8 26 9 23 11 24 12 19 13
REMARK SMILES IDX 18 14 16 15 17 16 11 18 10 19 8 20 9 21 12 24 13 25 14 26
REMARK SMILES IDX 15 27 20 28 21 29 22 30 29 32 30 33 31 34 32 35 33 36 34 37
REMARK SMILES IDX 35 38 57 43 58 44 59 45 60 46 61 47 62 49 66 50 67 51 68 52
REMARK SMILES IDX 69 53 70 54 71 55 2 56 1 57 3 58 4 59 5 60 6 62 7 63 63 65
REMARK SMILES IDX 64 66 65 67 40 69 41 70 42 71 44 72 43 73 45 74 46 75 47 76
REMARK SMILES IDX 55 77 56 78 48 79 49 80 50 81 54 82 51 83 53 84 52 85
REMARK H PARENT 38 5 27 10 18 17 10 22 22 31 34 39 34 40 35 41 35 42 61 48
REMARK H PARENT 5 61 65 68
REMARK Flexibility Score:  369.900
ROOT
ATOM      1  C   UNL     1     -11.576  12.141   0.755  1.00  0.00     0.117 C 
ENDROOT
BRANCH   1   2
ATOM      2  N   UNL     1     -12.224  10.840   0.923  1.00  0.00    -0.347 N 
ATOM      3  O   UNL     1     -11.264  10.269   2.929  1.00  0.00    -0.273 OA
ATOM      4  C   UNL     1     -12.085  10.046   2.046  1.00  0.00     0.243 C 
ATOM      5  H   UNL     1     -12.854  10.505   0.210  1.00  0.00     0.164 HD
BRANCH   4   6
ATOM      6  C   UNL     1     -12.946   8.758   2.009  1.00  0.00     0.171 C 
BRANCH   6   7
ATOM      7  N   UNL     1     -14.025   8.832   3.007  1.00  0.00    -0.344 N 
ATOM      8  C   UNL     1     -14.005   8.026   4.124  1.00  0.00     0.226 C 
ATOM      9  O   UNL     1     -13.118   7.206   4.331  1.00  0.00    -0.275 OA
ATOM     10  H   UNL     1     -14.810   9.449   2.837  1.00  0.00     0.164 HD
BRANCH   8  11
ATOM     11  C   UNL     1     -15.158   8.259   5.085  1.00  0.00     0.109 C 
ATOM     12  C   UNL     1     -15.619   6.931   5.685  1.00  0.00     0.021 C 
BRANCH  11  13
ATOM     13  C   UNL     1     -14.768   9.335   6.117  1.00  0.00     0.204 C 
BRANCH  13  14
ATOM     14  N   UNL     1     -13.345   9.275   6.465  1.00  0.00    -0.340 N 
ATOM     15  C   UNL     1     -12.892   8.839   7.692  1.00  0.00     0.243 C 
ATOM     16  O   UNL     1     -13.650   8.410   8.561  1.00  0.00    -0.273 OA
ATOM     17  H   UNL     1     -12.679   9.754   5.853  1.00  0.00     0.164 HD
BRANCH  15  18
ATOM     18  C   UNL     1     -11.375   9.059   7.906  1.00  0.00     0.171 C 
BRANCH  18  19
ATOM     19  N   UNL     1     -10.884   7.901   8.649  1.00  0.00    -0.343 N 
ATOM     20  C   UNL     1     -10.566   7.977   9.991  1.00  0.00     0.242 CG0
ATOM     21  O   UNL     1     -10.554   9.050  10.589  1.00  0.00    -0.273 OA
ATOM     22  H   UNL     1     -10.766   7.015   8.169  1.00  0.00     0.164 HD
ATOM     23  G   UNL     1     -10.141   6.635  10.622  1.00  0.00     0.000 G0
ENDBRANCH  18  19
BRANCH  18  24
ATOM     24  C   UNL     1     -10.655   9.211   6.560  1.00  0.00     0.038 C 
BRANCH  24  25
ATOM     25  C   UNL     1      -9.792  10.484   6.430  1.00  0.00    -0.015 C 
ATOM     26  C   UNL     1      -8.777  10.390   5.290  1.00  0.00     0.007 C 
ATOM     27  C   UNL     1      -9.061  10.747   7.750  1.00  0.00     0.007 C 
ENDBRANCH  24  25
ENDBRANCH  18  24
ENDBRANCH  15  18
ENDBRANCH  13  14
BRANCH  13  28
ATOM     28  C   UNL     1     -15.058  10.762   5.641  1.00  0.00     0.327 C 
ATOM     29  O   UNL     1     -14.365  11.428   4.887  1.00  0.00    -0.250 OA
BRANCH  28  30
ATOM     30  O   UNL     1     -16.140  11.307   6.233  1.00  0.00    -0.480 OA
ATOM     31  H   UNL     1     -16.739  10.547   6.388  1.00  0.00     0.296 HD
ENDBRANCH  28  30
ENDBRANCH  13  28
ENDBRANCH  11  13
ENDBRANCH   8  11
ENDBRANCH   6   7
BRANCH   6  32
ATOM     32  C   UNL     1     -13.517   8.575   0.598  1.00  0.00     0.037 C 
BRANCH  32  33
ATOM     33  C   UNL     1     -14.335   7.282   0.467  1.00  0.00     0.026 C 
BRANCH  33  34
ATOM     34  C   UNL     1     -13.499   6.112  -0.052  1.00  0.00     0.146 C 
BRANCH  34  35
ATOM     35  N   UNL     1     -12.425   6.634  -0.885  1.00  0.00    -0.254 NA
ATOM     36  C   UNL     1     -12.194   6.073  -2.013  1.00  0.00     0.185 C 
ATOM     37  N   UNL     1     -11.209   6.550  -2.791  1.00  0.00    -0.370 N 
ATOM     38  N   UNL     1     -12.815   5.023  -2.577  1.00  0.00    -0.370 N 
ATOM     39  H   UNL     1     -10.700   7.350  -2.439  1.00  0.00     0.159 HD
ATOM     40  H   UNL     1     -11.081   6.282  -3.752  1.00  0.00     0.159 HD
ATOM     41  H   UNL     1     -12.450   4.586  -3.408  1.00  0.00     0.159 HD
ATOM     42  H   UNL     1     -13.566   4.553  -2.097  1.00  0.00     0.159 HD
ENDBRANCH  34  35
ENDBRANCH  33  34
ENDBRANCH  32  33
ENDBRANCH   6  32
ENDBRANCH   4   6
ENDBRANCH   1   2
BRANCH   1  43
ATOM     43  C   UNL     1     -10.083  11.906   0.384  1.00  0.00     0.102 C 
ATOM     44  C   UNL     1      -9.338  13.196   0.000  1.00  0.00     0.020 C 
BRANCH  43  45
ATOM     45  C   UNL     1      -9.942  10.778  -0.641  1.00  0.00     0.225 C 
ATOM     46  O   UNL     1      -9.732   9.609  -0.329  1.00  0.00    -0.275 OA
ATOM     47  N   UNL     1      -9.971  11.169  -1.960  1.00  0.00    -0.342 N 
ATOM     48  H   UNL     1     -10.293  12.096  -2.200  1.00  0.00     0.164 HD
BRANCH  47  49
ATOM     49  C   UNL     1      -9.884  10.193  -3.051  1.00  0.00     0.192 C 
BRANCH  49  50
ATOM     50  C   UNL     1      -8.710  10.550  -3.967  1.00  0.00     0.047 C 
BRANCH  50  51
ATOM     51  C   UNL     1      -8.289  12.019  -3.829  1.00  0.00     0.103 C 
BRANCH  51  52
ATOM     52  C   UNL     1      -6.790  12.210  -4.047  1.00  0.00     0.226 C 
ATOM     53  O   UNL     1      -6.052  12.398  -3.078  1.00  0.00    -0.275 OA
BRANCH  52  54
ATOM     54  N   UNL     1      -6.326  12.079  -5.369  1.00  0.00    -0.311 N 
ATOM     55  C   UNL     1      -5.691  10.837  -5.828  1.00  0.00     0.153 C 
BRANCH  54  56
ATOM     56  C   UNL     1      -6.459  13.124  -6.298  1.00  0.00     0.102 C 
ATOM     57  C   UNL     1      -6.839  14.377  -5.997  1.00  0.00     0.043 C 
BRANCH  56  58
ATOM     58  C   UNL     1      -6.126  12.912  -7.756  1.00  0.00     0.268 C 
ATOM     59  O   UNL     1      -6.816  12.239  -8.510  1.00  0.00    -0.268 OA
ATOM     60  N   UNL     1      -5.010  13.605  -8.162  1.00  0.00    -0.339 N 
ATOM     61  H   UNL     1      -4.487  14.132  -7.473  1.00  0.00     0.164 HD
BRANCH  60  62
ATOM     62  C   UNL     1      -4.545  13.591  -9.548  1.00  0.00     0.168 CG0
ATOM     63  C   UNL     1      -3.836  14.892  -9.901  1.00  0.00     0.041 C 
ATOM     64  G   UNL     1      -5.741  13.348 -10.492  1.00  0.00     0.000 G0
ENDBRANCH  60  62
ENDBRANCH  56  58
ENDBRANCH  54  56
ENDBRANCH  52  54
ENDBRANCH  51  52
ENDBRANCH  50  51
ENDBRANCH  49  50
BRANCH  49  65
ATOM     65  C   UNL     1     -11.178  10.149  -3.878  1.00  0.00     0.326 C 
ATOM     66  O   UNL     1     -12.073  10.982  -3.842  1.00  0.00    -0.250 OA
BRANCH  65  67
ATOM     67  O   UNL     1     -11.316   9.050  -4.651  1.00  0.00    -0.480 OA
ATOM     68  H   UNL     1     -12.187   8.686  -4.383  1.00  0.00     0.296 HD
ENDBRANCH  65  67
ENDBRANCH  49  65
ENDBRANCH  47  49
ENDBRANCH  43  45
ENDBRANCH   1  43
BRANCH   1  69
ATOM     69  C   UNL     1     -11.905  12.943   2.001  1.00  0.00    -0.001 C 
ATOM     70  C   UNL     1     -13.038  13.618   2.262  1.00  0.00     0.001 C 
BRANCH  70  71
ATOM     71  C   UNL     1     -13.353  14.371   3.478  1.00  0.00    -0.055 C 
ATOM     72  C   UNL     1     -12.444  14.359   4.476  1.00  0.00    -0.018 C 
ATOM     73  C   UNL     1     -14.664  15.112   3.526  1.00  0.00     0.044 C 
BRANCH  72  74
ATOM     74  C   UNL     1     -12.497  15.044   5.835  1.00  0.00     0.038 C 
ATOM     75  C   UNL     1     -12.064  16.500   5.626  1.00  0.00     0.015 C 
BRANCH  74  76
ATOM     76  C   UNL     1     -11.618  14.238   6.836  1.00  0.00     0.128 C 
BRANCH  76  77
ATOM     77  O   UNL     1     -12.252  12.985   7.148  1.00  0.00    -0.381 OA
ATOM     78  C   UNL     1     -12.064  12.570   8.494  1.00  0.00     0.195 C 
ENDBRANCH  76  77
BRANCH  76  79
ATOM     79  C   UNL     1     -10.145  14.069   6.386  1.00  0.00     0.068 C 
BRANCH  79  80
ATOM     80  C   UNL     1      -9.115  15.003   6.975  1.00  0.00    -0.045 A 
ATOM     81  C   UNL     1      -7.911  15.262   6.307  1.00  0.00     0.004 A 
ATOM     82  C   UNL     1      -9.338  15.607   8.221  1.00  0.00     0.004 A 
ATOM     83  C   UNL     1      -6.957  16.115   6.865  1.00  0.00     0.000 A 
ATOM     84  C   UNL     1      -8.383  16.459   8.779  1.00  0.00     0.000 A 
ATOM     85  C   UNL     1      -7.194  16.715   8.100  1.00  0.00     0.000 A 
ENDBRANCH  79  80
ENDBRANCH  76  79
ENDBRANCH  74  76
ENDBRANCH  72  74
ENDBRANCH  70  71
ENDBRANCH   1  69
TORSDOF 17
ENDMDL
MODEL 2
REMARK VINA RESULT:    -6.732      2.187      3.374
REMARK INTER + INTRA:         -27.001
REMARK INTER:                 -18.357
REMARK INTRA:                  -8.644
REMARK UNBOUND:                -6.889
REMARK SMILES C=C1C(=O)N[C@H](C)C(=O)N[C@@H](CC(C)C)C(=O)N[C@@H](C(=O)O)[C@H](C)C(=O)N[C@@H](CCCN=C(N)N)C(=O)N[C@@H](/C=C/C(C)=C/[C@H](C)[C@H](Cc2ccccc2)OC)[C@H](C)C(=O)N[C@@H](C(=O)O)CCC(=O)N1C
REMARK SMILES IDX 39 1 38 2 37 3 36 4 28 6 27 7 25 8 26 9 23 11 24 12 19 13
REMARK SMILES IDX 18 14 16 15 17 16 11 18 10 19 8 20 9 21 12 24 13 25 14 26
REMARK SMILES IDX 15 27 20 28 21 29 22 30 29 32 30 33 31 34 32 35 33 36 34 37
REMARK SMILES IDX 35 38 57 43 58 44 59 45 60 46 61 47 62 49 66 50 67 51 68 52
REMARK SMILES IDX 69 53 70 54 71 55 2 56 1 57 3 58 4 59 5 60 6 62 7 63 63 65
REMARK SMILES IDX 64 66 65 67 40 69 41 70 42 71 44 72 43 73 45 74 46 75 47 76
REMARK SMILES IDX 55 77 56 78 48 79 49 80 50 81 54 82 51 83 53 84 52 85
REMARK H PARENT 38 5 27 10 18 17 10 22 22 31 34 39 34 40 35 41 35 42 61 48
REMARK H PARENT 5 61 65 68
REMARK Flexibility Score:  369.900
ROOT
ATOM      1  C   UNL     1     -10.489  11.730   0.553  1.00  0.00     0.117 C 
ENDROOT
BRANCH   1   2
ATOM      2  N   UNL     1     -10.724  10.310   0.812  1.00  0.00    -0.347 N 
ATOM      3  O   UNL     1     -12.670  10.090  -0.385  1.00  0.00    -0.273 OA
ATOM      4  C   UNL     1     -11.750   9.579   0.246  1.00  0.00     0.243 C 
ATOM      5  H   UNL     1     -10.080   9.801   1.400  1.00  0.00     0.164 HD
BRANCH   4   6
ATOM      6  C   UNL     1     -11.724   8.075   0.618  1.00  0.00     0.171 C 
BRANCH   6   7
ATOM      7  N   UNL     1     -13.061   7.626   1.039  1.00  0.00    -0.344 N 
ATOM      8  C   UNL     1     -13.245   7.022   2.264  1.00  0.00     0.226 C 
ATOM      9  O   UNL     1     -12.322   6.811   3.042  1.00  0.00    -0.275 OA
ATOM     10  H   UNL     1     -13.836   7.722   0.395  1.00  0.00     0.164 HD
BRANCH   8  11
ATOM     11  C   UNL     1     -14.689   6.666   2.574  1.00  0.00     0.109 C 
ATOM     12  C   UNL     1     -15.180   5.579   1.618  1.00  0.00     0.021 C 
BRANCH  11  13
ATOM     13  C   UNL     1     -14.831   6.325   4.071  1.00  0.00     0.204 C 
BRANCH  13  14
ATOM     14  N   UNL     1     -14.336   7.403   4.932  1.00  0.00    -0.340 N 
ATOM     15  C   UNL     1     -13.761   7.174   6.163  1.00  0.00     0.243 C 
ATOM     16  O   UNL     1     -13.567   6.041   6.601  1.00  0.00    -0.273 OA
ATOM     17  H   UNL     1     -14.601   8.364   4.699  1.00  0.00     0.164 HD
BRANCH  15  18
ATOM     18  C   UNL     1     -13.507   8.466   6.978  1.00  0.00     0.171 C 
BRANCH  18  19
ATOM     19  N   UNL     1     -13.610   8.098   8.389  1.00  0.00    -0.343 N 
ATOM     20  C   UNL     1     -14.290   8.885   9.299  1.00  0.00     0.242 CG0
ATOM     21  O   UNL     1     -14.725   9.993   8.994  1.00  0.00    -0.273 OA
ATOM     22  H   UNL     1     -13.167   7.247   8.715  1.00  0.00     0.164 HD
ATOM     23  G   UNL     1     -14.359   8.296  10.723  1.00  0.00     0.000 G0
ENDBRANCH  18  19
BRANCH  18  24
ATOM     24  C   UNL     1     -12.128   9.051   6.649  1.00  0.00     0.038 C 
BRANCH  24  25
ATOM     25  C   UNL     1     -12.162  10.379   5.863  1.00  0.00    -0.015 C 
ATOM     26  C   UNL     1     -13.513  11.085   5.966  1.00  0.00     0.007 C 
ATOM     27  C   UNL     1     -11.828  10.115   4.393  1.00  0.00     0.007 C 
ENDBRANCH  24  25
ENDBRANCH  18  24
ENDBRANCH  15  18
ENDBRANCH  13  14
BRANCH  13  28
ATOM     28  C   UNL     1     -16.276   6.037   4.490  1.00  0.00     0.327 C 
ATOM     29  O   UNL     1     -17.284   6.478   3.958  1.00  0.00    -0.250 OA
BRANCH  28  30
ATOM     30  O   UNL     1     -16.364   5.311   5.623  1.00  0.00    -0.480 OA
ATOM     31  H   UNL     1     -16.533   5.975   6.323  1.00  0.00     0.296 HD
ENDBRANCH  28  30
ENDBRANCH  13  28
ENDBRANCH  11  13
ENDBRANCH   8  11
ENDBRANCH   6   7
BRANCH   6  32
ATOM     32  C   UNL     1     -11.230   7.267  -0.588  1.00  0.00     0.037 C 
BRANCH  32  33
ATOM     33  C   UNL     1     -12.386   6.632  -1.373  1.00  0.00     0.026 C 
BRANCH  33  34
ATOM     34  C   UNL     1     -12.817   7.482  -2.569  1.00  0.00     0.146 C 
BRANCH  34  35
ATOM     35  N   UNL     1     -11.695   7.603  -3.489  1.00  0.00    -0.254 NA
ATOM     36  C   UNL     1     -11.283   8.774  -3.805  1.00  0.00     0.185 C 
ATOM     37  N   UNL     1     -10.246   8.896  -4.648  1.00  0.00    -0.370 N 
ATOM     38  N   UNL     1     -11.749   9.970  -3.404  1.00  0.00    -0.370 N 
ATOM     39  H   UNL     1      -9.832   8.037  -4.987  1.00  0.00     0.159 HD
ATOM     40  H   UNL     1      -9.758   9.761  -4.807  1.00  0.00     0.159 HD
ATOM     41  H   UNL     1     -11.430  10.823  -3.833  1.00  0.00     0.159 HD
ATOM     42  H   UNL     1     -12.539  10.030  -2.781  1.00  0.00     0.159 HD
ENDBRANCH  34  35
ENDBRANCH  33  34
ENDBRANCH  32  33
ENDBRANCH   6  32
ENDBRANCH   4   6
ENDBRANCH   1   2
BRANCH   1  43
ATOM     43  C   UNL     1      -9.021  11.909   0.070  1.00  0.00     0.102 C 
ATOM     44  C   UNL     1      -8.324  13.141   0.674  1.00  0.00     0.020 C 
BRANCH  43  45
ATOM     45  C   UNL     1      -8.930  11.830  -1.457  1.00  0.00     0.225 C 
ATOM     46  O   UNL     1      -9.271  10.841  -2.098  1.00  0.00    -0.275 OA
ATOM     47  N   UNL     1      -8.347  12.914  -2.072  1.00  0.00    -0.342 N 
ATOM     48  H   UNL     1      -8.213  13.771  -1.555  1.00  0.00     0.164 HD
BRANCH  47  49
ATOM     49  C   UNL     1      -8.225  12.992  -3.531  1.00  0.00     0.192 C 
BRANCH  49  50
ATOM     50  C   UNL     1      -6.873  13.606  -3.902  1.00  0.00     0.047 C 
BRANCH  50  51
ATOM     51  C   UNL     1      -6.074  12.716  -4.864  1.00  0.00     0.103 C 
BRANCH  51  52
ATOM     52  C   UNL     1      -6.063  13.273  -6.286  1.00  0.00     0.226 C 
ATOM     53  O   UNL     1      -6.442  14.427  -6.492  1.00  0.00    -0.275 OA
BRANCH  52  54
ATOM     54  N   UNL     1      -5.536  12.433  -7.285  1.00  0.00    -0.311 N 
ATOM     55  C   UNL     1      -5.005  11.104  -6.952  1.00  0.00     0.153 C 
BRANCH  54  56
ATOM     56  C   UNL     1      -5.503  12.828  -8.632  1.00  0.00     0.102 C 
ATOM     57  C   UNL     1      -6.410  12.477  -9.558  1.00  0.00     0.043 C 
BRANCH  56  58
ATOM     58  C   UNL     1      -4.423  13.752  -9.143  1.00  0.00     0.268 C 
ATOM     59  O   UNL     1      -4.566  14.964  -9.232  1.00  0.00    -0.268 OA
ATOM     60  N   UNL     1      -3.247  13.101  -9.431  1.00  0.00    -0.339 N 
ATOM     61  H   UNL     1      -3.213  12.093  -9.340  1.00  0.00     0.164 HD
BRANCH  60  62
ATOM     62  C   UNL     1      -2.052  13.814  -9.880  1.00  0.00     0.168 CG0
ATOM     63  C   UNL     1      -0.795  13.226  -9.250  1.00  0.00     0.041 C 
ATOM     64  G   UNL     1      -2.184  15.313  -9.537  1.00  0.00     0.000 G0
ENDBRANCH  60  62
ENDBRANCH  56  58
ENDBRANCH  54  56
ENDBRANCH  52  54
ENDBRANCH  51  52
ENDBRANCH  50  51
ENDBRANCH  49  50
BRANCH  49  65
ATOM     65  C   UNL     1      -9.353  13.833  -4.150  1.00  0.00     0.326 C 
ATOM     66  O   UNL     1     -10.544  13.715  -3.904  1.00  0.00    -0.250 OA
BRANCH  65  67
ATOM     67  O   UNL     1      -8.945  14.727  -5.078  1.00  0.00    -0.480 OA
ATOM     68  H   UNL     1      -9.429  15.547  -4.837  1.00  0.00     0.296 HD
ENDBRANCH  65  67
ENDBRANCH  49  65
ENDBRANCH  47  49
ENDBRANCH  43  45
ENDBRANCH   1  43
BRANCH   1  69
ATOM     69  C   UNL     1     -10.948  12.470   1.796  1.00  0.00    -0.001 C 
ATOM     70  C   UNL     1     -12.155  13.018   2.021  1.00  0.00     0.001 C 
BRANCH  70  71
ATOM     71  C   UNL     1     -12.594  13.712   3.234  1.00  0.00    -0.055 C 
ATOM     72  C   UNL     1     -11.653  14.328   3.980  1.00  0.00    -0.018 C 
ATOM     73  C   UNL     1     -14.065  13.695   3.560  1.00  0.00     0.044 C 
BRANCH  72  74
ATOM     74  C   UNL     1     -11.812  15.118   5.271  1.00  0.00     0.038 C 
ATOM     75  C   UNL     1     -12.443  16.466   4.902  1.00  0.00     0.015 C 
BRANCH  74  76
ATOM     76  C   UNL     1     -10.425  15.217   5.972  1.00  0.00     0.128 C 
BRANCH  76  77
ATOM     77  O   UNL     1     -10.050  16.596   6.127  1.00  0.00    -0.381 OA
ATOM     78  C   UNL     1      -8.713  16.778   6.572  1.00  0.00     0.195 C 
ENDBRANCH  76  77
BRANCH  76  79
ATOM     79  C   UNL     1     -10.331  14.417   7.295  1.00  0.00     0.068 C 
BRANCH  79  80
ATOM     80  C   UNL     1      -9.752  13.024   7.240  1.00  0.00    -0.045 A 
ATOM     81  C   UNL     1      -9.867  12.150   8.330  1.00  0.00     0.004 A 
ATOM     82  C   UNL     1      -9.062  12.589   6.098  1.00  0.00     0.004 A 
ATOM     83  C   UNL     1      -9.318  10.868   8.275  1.00  0.00     0.000 A 
ATOM     84  C   UNL     1      -8.512  11.307   6.045  1.00  0.00     0.000 A 
ATOM     85  C   UNL     1      -8.641  10.446   7.133  1.00  0.00     0.000 A 
ENDBRANCH  79  80
ENDBRANCH  76  79
ENDBRANCH  74  76
ENDBRANCH  72  74
ENDBRANCH  70  71
ENDBRANCH   1  69
TORSDOF 17
ENDMDL
MODEL 3
REMARK VINA RESULT:    -6.549      2.264      3.174
REMARK INTER + INTRA:         -26.455
REMARK INTER:                 -17.987
REMARK INTRA:                  -8.468
REMARK UNBOUND:                -6.889
REMARK SMILES C=C1C(=O)N[C@H](C)C(=O)N[C@@H](CC(C)C)C(=O)N[C@@H](C(=O)O)[C@H](C)C(=O)N[C@@H](CCCN=C(N)N)C(=O)N[C@@H](/C=C/C(C)=C/[C@H](C)[C@H](Cc2ccccc2)OC)[C@H](C)C(=O)N[C@@H](C(=O)O)CCC(=O)N1C
REMARK SMILES IDX 39 1 38 2 37 3 36 4 28 6 27 7 25 8 26 9 23 11 24 12 19 13
REMARK SMILES IDX 18 14 16 15 17 16 11 18 10 19 8 20 9 21 12 24 13 25 14 26
REMARK SMILES IDX 15 27 20 28 21 29 22 30 29 32 30 33 31 34 32 35 33 36 34 37
REMARK SMILES IDX 35 38 57 43 58 44 59 45 60 46 61 47 62 49 66 50 67 51 68 52
REMARK SMILES IDX 69 53 70 54 71 55 2 56 1 57 3 58 4 59 5 60 6 62 7 63 63 65
REMARK SMILES IDX 64 66 65 67 40 69 41 70 42 71 44 72 43 73 45 74 46 75 47 76
REMARK SMILES IDX 55 77 56 78 48 79 49 80 50 81 54 82 51 83 53 84 52 85
REMARK H PARENT 38 5 27 10 18 17 10 22 22 31 34 39 34 40 35 41 35 42 61 48
REMARK H PARENT 5 61 65 68
REMARK Flexibility Score:  369.900
ROOT
ATOM      1  C   UNL     1     -11.379  12.302   0.550  1.00  0.00     0.117 C 
ENDROOT
BRANCH   1   2
ATOM      2  N   UNL     1     -12.042  10.999   0.500  1.00  0.00    -0.347 N 
ATOM      3  O   UNL     1     -10.875   9.987   2.198  1.00  0.00    -0.273 OA
ATOM      4  C   UNL     1     -11.799   9.972   1.392  1.00  0.00     0.243 C 
ATOM      5  H   UNL     1     -12.760  10.835  -0.190  1.00  0.00     0.164 HD
BRANCH   4   6
ATOM      6  C   UNL     1     -12.697   8.728   1.171  1.00  0.00     0.171 C 
BRANCH   6   7
ATOM      7  N   UNL     1     -13.738   8.655   2.209  1.00  0.00    -0.344 N 
ATOM      8  C   UNL     1     -13.549   7.892   3.341  1.00  0.00     0.226 C 
ATOM      9  O   UNL     1     -12.536   7.230   3.530  1.00  0.00    -0.275 OA
ATOM     10  H   UNL     1     -14.617   9.134   2.057  1.00  0.00     0.164 HD
BRANCH   8  11
ATOM     11  C   UNL     1     -14.690   7.963   4.340  1.00  0.00     0.109 C 
ATOM     12  C   UNL     1     -14.978   6.574   4.910  1.00  0.00     0.021 C 
BRANCH  11  13
ATOM     13  C   UNL     1     -14.393   9.048   5.395  1.00  0.00     0.204 C 
BRANCH  13  14
ATOM     14  N   UNL     1     -13.273   8.678   6.266  1.00  0.00    -0.340 N 
ATOM     15  C   UNL     1     -13.345   8.729   7.641  1.00  0.00     0.243 C 
ATOM     16  O   UNL     1     -14.378   9.030   8.237  1.00  0.00    -0.273 OA
ATOM     17  H   UNL     1     -12.349   8.566   5.839  1.00  0.00     0.164 HD
BRANCH  15  18
ATOM     18  C   UNL     1     -11.984   8.496   8.341  1.00  0.00     0.171 C 
BRANCH  18  19
ATOM     19  N   UNL     1     -12.282   7.978   9.675  1.00  0.00    -0.343 N 
ATOM     20  C   UNL     1     -11.568   8.377  10.788  1.00  0.00     0.242 CG0
ATOM     21  O   UNL     1     -10.566   9.081  10.692  1.00  0.00    -0.273 OA
ATOM     22  H   UNL     1     -13.029   7.303   9.791  1.00  0.00     0.164 HD
ATOM     23  G   UNL     1     -12.078   7.785  12.118  1.00  0.00     0.000 G0
ENDBRANCH  18  19
BRANCH  18  24
ATOM     24  C   UNL     1     -11.122   7.515   7.537  1.00  0.00     0.038 C 
BRANCH  24  25
ATOM     25  C   UNL     1      -9.694   8.014   7.230  1.00  0.00    -0.015 C 
ATOM     26  C   UNL     1      -9.299   7.791   5.770  1.00  0.00     0.007 C 
ATOM     27  C   UNL     1      -8.693   7.308   8.148  1.00  0.00     0.007 C 
ENDBRANCH  24  25
ENDBRANCH  18  24
ENDBRANCH  15  18
ENDBRANCH  13  14
BRANCH  13  28
ATOM     28  C   UNL     1     -14.060  10.411   4.782  1.00  0.00     0.327 C 
ATOM     29  O   UNL     1     -13.053  11.070   4.989  1.00  0.00    -0.250 OA
BRANCH  28  30
ATOM     30  O   UNL     1     -15.066  10.916   4.039  1.00  0.00    -0.480 OA
ATOM     31  H   UNL     1     -15.636  11.379   4.688  1.00  0.00     0.296 HD
ENDBRANCH  28  30
ENDBRANCH  13  28
ENDBRANCH  11  13
ENDBRANCH   8  11
ENDBRANCH   6   7
BRANCH   6  32
ATOM     32  C   UNL     1     -13.322   8.800  -0.227  1.00  0.00     0.037 C 
BRANCH  32  33
ATOM     33  C   UNL     1     -12.722   7.760  -1.183  1.00  0.00     0.026 C 
BRANCH  33  34
ATOM     34  C   UNL     1     -12.441   8.336  -2.572  1.00  0.00     0.146 C 
BRANCH  34  35
ATOM     35  N   UNL     1     -11.485   7.475  -3.253  1.00  0.00    -0.254 NA
ATOM     36  C   UNL     1     -10.612   8.012  -4.021  1.00  0.00     0.185 C 
ATOM     37  N   UNL     1      -9.722   7.228  -4.650  1.00  0.00    -0.370 N 
ATOM     38  N   UNL     1     -10.432   9.312  -4.316  1.00  0.00    -0.370 N 
ATOM     39  H   UNL     1      -9.786   6.234  -4.470  1.00  0.00     0.159 HD
ATOM     40  H   UNL     1      -8.908   7.580  -5.124  1.00  0.00     0.159 HD
ATOM     41  H   UNL     1      -9.798   9.598  -5.044  1.00  0.00     0.159 HD
ATOM     42  H   UNL     1     -11.040  10.015  -3.926  1.00  0.00     0.159 HD
ENDBRANCH  34  35
ENDBRANCH  33  34
ENDBRANCH  32  33
ENDBRANCH   6  32
ENDBRANCH   4   6
ENDBRANCH   1   2
BRANCH   1  43
ATOM     43  C   UNL     1      -9.875  12.105   0.204  1.00  0.00     0.102 C 
ATOM     44  C   UNL     1      -8.971  13.228   0.742  1.00  0.00     0.020 C 
BRANCH  43  45
ATOM     45  C   UNL     1      -9.686  11.818  -1.288  1.00  0.00     0.225 C 
ATOM     46  O   UNL     1     -10.371  11.008  -1.907  1.00  0.00    -0.275 OA
ATOM     47  N   UNL     1      -8.627  12.462  -1.886  1.00  0.00    -0.342 N 
ATOM     48  H   UNL     1      -8.175  13.230  -1.410  1.00  0.00     0.164 HD
BRANCH  47  49
ATOM     49  C   UNL     1      -8.348  12.310  -3.317  1.00  0.00     0.192 C 
BRANCH  49  50
ATOM     50  C   UNL     1      -6.980  11.648  -3.507  1.00  0.00     0.047 C 
BRANCH  50  51
ATOM     51  C   UNL     1      -7.022  10.138  -3.233  1.00  0.00     0.103 C 
BRANCH  51  52
ATOM     52  C   UNL     1      -6.764   9.319  -4.497  1.00  0.00     0.226 C 
ATOM     53  O   UNL     1      -7.602   9.311  -5.400  1.00  0.00    -0.275 OA
BRANCH  52  54
ATOM     54  N   UNL     1      -5.518   8.670  -4.579  1.00  0.00    -0.311 N 
ATOM     55  C   UNL     1      -4.559   8.729  -3.468  1.00  0.00     0.153 C 
BRANCH  54  56
ATOM     56  C   UNL     1      -5.147   7.939  -5.721  1.00  0.00     0.102 C 
ATOM     57  C   UNL     1      -5.393   6.633  -5.909  1.00  0.00     0.043 C 
BRANCH  56  58
ATOM     58  C   UNL     1      -4.457   8.614  -6.882  1.00  0.00     0.268 C 
ATOM     59  O   UNL     1      -3.817   9.651  -6.771  1.00  0.00    -0.268 OA
ATOM     60  N   UNL     1      -4.566   7.910  -8.058  1.00  0.00    -0.339 N 
ATOM     61  H   UNL     1      -5.123   7.064  -8.070  1.00  0.00     0.164 HD
BRANCH  60  62
ATOM     62  C   UNL     1      -3.920   8.352  -9.293  1.00  0.00     0.168 CG0
ATOM     63  C   UNL     1      -4.941   8.913 -10.275  1.00  0.00     0.041 C 
ATOM     64  G   UNL     1      -3.147   7.174  -9.922  1.00  0.00     0.000 G0
ENDBRANCH  60  62
ENDBRANCH  56  58
ENDBRANCH  54  56
ENDBRANCH  52  54
ENDBRANCH  51  52
ENDBRANCH  50  51
ENDBRANCH  49  50
BRANCH  49  65
ATOM     65  C   UNL     1      -8.363  13.664  -4.045  1.00  0.00     0.326 C 
ATOM     66  O   UNL     1      -7.422  14.156  -4.650  1.00  0.00    -0.250 OA
BRANCH  65  67
ATOM     67  O   UNL     1      -9.519  14.353  -3.929  1.00  0.00    -0.480 OA
ATOM     68  H   UNL     1      -9.431  14.809  -3.064  1.00  0.00     0.296 HD
ENDBRANCH  65  67
ENDBRANCH  49  65
ENDBRANCH  47  49
ENDBRANCH  43  45
ENDBRANCH   1  43
BRANCH   1  69
ATOM     69  C   UNL     1     -11.750  12.915   1.888  1.00  0.00    -0.001 C 
ATOM     70  C   UNL     1     -12.865  13.603   2.190  1.00  0.00     0.001 C 
BRANCH  70  71
ATOM     71  C   UNL     1     -13.222  14.172   3.491  1.00  0.00    -0.055 C 
ATOM     72  C   UNL     1     -12.229  14.374   4.382  1.00  0.00    -0.018 C 
ATOM     73  C   UNL     1     -14.672  14.499   3.741  1.00  0.00     0.044 C 
BRANCH  72  74
ATOM     74  C   UNL     1     -12.299  14.946   5.791  1.00  0.00     0.038 C 
ATOM     75  C   UNL     1     -12.449  16.466   5.655  1.00  0.00     0.015 C 
BRANCH  74  76
ATOM     76  C   UNL     1     -11.042  14.482   6.583  1.00  0.00     0.128 C 
BRANCH  76  77
ATOM     77  O   UNL     1     -10.938  15.218   7.814  1.00  0.00    -0.381 OA
ATOM     78  C   UNL     1      -9.603  15.380   8.272  1.00  0.00     0.195 C 
ENDBRANCH  76  77
BRANCH  76  79
ATOM     79  C   UNL     1     -10.960  12.949   6.792  1.00  0.00     0.068 C 
BRANCH  79  80
ATOM     80  C   UNL     1      -9.708  12.239   6.338  1.00  0.00    -0.045 A 
ATOM     81  C   UNL     1      -9.452  12.026   4.977  1.00  0.00     0.004 A 
ATOM     82  C   UNL     1      -8.788  11.754   7.281  1.00  0.00     0.004 A 
ATOM     83  C   UNL     1      -8.298  11.356   4.566  1.00  0.00     0.000 A 
ATOM     84  C   UNL     1      -7.635  11.083   6.868  1.00  0.00     0.000 A 
ATOM     85  C   UNL     1      -7.389  10.886   5.511  1.00  0.00     0.000 A 
ENDBRANCH  79  80
ENDBRANCH  76  79
ENDBRANCH  74  76
ENDBRANCH  72  74
ENDBRANCH  70  71
ENDBRANCH   1  69
TORSDOF 17
ENDMDL
MODEL 4
REMARK VINA RESULT:    -6.266      1.516      2.117
REMARK INTER + INTRA:         -25.610
REMARK INTER:                 -17.350
REMARK INTRA:                  -8.260
REMARK UNBOUND:                -6.889
REMARK SMILES C=C1C(=O)N[C@H](C)C(=O)N[C@@H](CC(C)C)C(=O)N[C@@H](C(=O)O)[C@H](C)C(=O)N[C@@H](CCCN=C(N)N)C(=O)N[C@@H](/C=C/C(C)=C/[C@H](C)[C@H](Cc2ccccc2)OC)[C@H](C)C(=O)N[C@@H](C(=O)O)CCC(=O)N1C
REMARK SMILES IDX 39 1 38 2 37 3 36 4 28 6 27 7 25 8 26 9 23 11 24 12 19 13
REMARK SMILES IDX 18 14 16 15 17 16 11 18 10 19 8 20 9 21 12 24 13 25 14 26
REMARK SMILES IDX 15 27 20 28 21 29 22 30 29 32 30 33 31 34 32 35 33 36 34 37
REMARK SMILES IDX 35 38 57 43 58 44 59 45 60 46 61 47 62 49 66 50 67 51 68 52
REMARK SMILES IDX 69 53 70 54 71 55 2 56 1 57 3 58 4 59 5 60 6 62 7 63 63 65
REMARK SMILES IDX 64 66 65 67 40 69 41 70 42 71 44 72 43 73 45 74 46 75 47 76
REMARK SMILES IDX 55 77 56 78 48 79 49 80 50 81 54 82 51 83 53 84 52 85
REMARK H PARENT 38 5 27 10 18 17 10 22 22 31 34 39 34 40 35 41 35 42 61 48
REMARK H PARENT 5 61 65 68
REMARK Flexibility Score:  369.900
ROOT
ATOM      1  C   UNL     1     -11.434  11.447   0.940  1.00  0.00     0.117 C 
ENDROOT
BRANCH   1   2
ATOM      2  N   UNL     1     -12.214  10.224   1.133  1.00  0.00    -0.347 N 
ATOM      3  O   UNL     1     -11.590   9.792   3.299  1.00  0.00    -0.273 OA
ATOM      4  C   UNL     1     -12.301   9.542   2.332  1.00  0.00     0.243 C 
ATOM      5  H   UNL     1     -12.769   9.866   0.370  1.00  0.00     0.164 HD
BRANCH   4   6
ATOM      6  C   UNL     1     -13.262   8.327   2.289  1.00  0.00     0.171 C 
BRANCH   6   7
ATOM      7  N   UNL     1     -14.316   8.469   3.306  1.00  0.00    -0.344 N 
ATOM      8  C   UNL     1     -14.215   7.823   4.519  1.00  0.00     0.226 C 
ATOM      9  O   UNL     1     -13.273   7.092   4.801  1.00  0.00    -0.275 OA
ATOM     10  H   UNL     1     -15.142   9.011   3.084  1.00  0.00     0.164 HD
BRANCH   8  11
ATOM     11  C   UNL     1     -15.354   8.113   5.480  1.00  0.00     0.109 C 
ATOM     12  C   UNL     1     -15.853   6.814   6.113  1.00  0.00     0.021 C 
BRANCH  11  13
ATOM     13  C   UNL     1     -14.924   9.201   6.484  1.00  0.00     0.204 C 
BRANCH  13  14
ATOM     14  N   UNL     1     -13.585   8.952   7.028  1.00  0.00    -0.340 N 
ATOM     15  C   UNL     1     -13.364   8.610   8.344  1.00  0.00     0.243 C 
ATOM     16  O   UNL     1     -14.281   8.430   9.143  1.00  0.00    -0.273 OA
ATOM     17  H   UNL     1     -12.778   9.231   6.463  1.00  0.00     0.164 HD
BRANCH  15  18
ATOM     18  C   UNL     1     -11.866   8.602   8.738  1.00  0.00     0.171 C 
BRANCH  18  19
ATOM     19  N   UNL     1     -11.783   7.978  10.056  1.00  0.00    -0.343 N 
ATOM     20  C   UNL     1     -11.722   8.728  11.215  1.00  0.00     0.242 CG0
ATOM     21  O   UNL     1     -11.600   9.950  11.185  1.00  0.00    -0.273 OA
ATOM     22  H   UNL     1     -11.763   6.967  10.128  1.00  0.00     0.164 HD
ATOM     23  G   UNL     1     -11.718   7.895  12.513  1.00  0.00     0.000 G0
ENDBRANCH  18  19
BRANCH  18  24
ATOM     24  C   UNL     1     -11.038   7.835   7.700  1.00  0.00     0.038 C 
BRANCH  24  25
ATOM     25  C   UNL     1      -9.644   8.435   7.417  1.00  0.00    -0.015 C 
ATOM     26  C   UNL     1      -9.439   9.788   8.099  1.00  0.00     0.007 C 
ATOM     27  C   UNL     1      -9.445   8.585   5.906  1.00  0.00     0.007 C 
ENDBRANCH  24  25
ENDBRANCH  18  24
ENDBRANCH  15  18
ENDBRANCH  13  14
BRANCH  13  28
ATOM     28  C   UNL     1     -14.915  10.609   5.882  1.00  0.00     0.327 C 
ATOM     29  O   UNL     1     -15.867  11.372   5.812  1.00  0.00    -0.250 OA
BRANCH  28  30
ATOM     30  O   UNL     1     -13.742  10.927   5.298  1.00  0.00    -0.480 OA
ATOM     31  H   UNL     1     -13.066  10.514   5.875  1.00  0.00     0.296 HD
ENDBRANCH  28  30
ENDBRANCH  13  28
ENDBRANCH  11  13
ENDBRANCH   8  11
ENDBRANCH   6   7
BRANCH   6  32
ATOM     32  C   UNL     1     -13.867   8.212   0.886  1.00  0.00     0.037 C 
BRANCH  32  33
ATOM     33  C   UNL     1     -14.669   6.916   0.705  1.00  0.00     0.026 C 
BRANCH  33  34
ATOM     34  C   UNL     1     -13.770   5.696   0.495  1.00  0.00     0.146 C 
BRANCH  34  35
ATOM     35  N   UNL     1     -13.171   5.777  -0.830  1.00  0.00    -0.254 NA
ATOM     36  C   UNL     1     -13.123   4.717  -1.548  1.00  0.00     0.185 C 
ATOM     37  N   UNL     1     -12.577   4.781  -2.772  1.00  0.00    -0.370 N 
ATOM     38  N   UNL     1     -13.556   3.478  -1.255  1.00  0.00    -0.370 N 
ATOM     39  H   UNL     1     -12.236   5.685  -3.071  1.00  0.00     0.159 HD
ATOM     40  H   UNL     1     -12.658   4.047  -3.456  1.00  0.00     0.159 HD
ATOM     41  H   UNL     1     -13.335   2.695  -1.848  1.00  0.00     0.159 HD
ATOM     42  H   UNL     1     -13.974   3.279  -0.359  1.00  0.00     0.159 HD
ENDBRANCH  34  35
ENDBRANCH  33  34
ENDBRANCH  32  33
ENDBRANCH   6  32
ENDBRANCH   4   6
ENDBRANCH   1   2
BRANCH   1  43
ATOM     43  C   UNL     1      -9.940  11.056   0.750  1.00  0.00     0.102 C 
ATOM     44  C   UNL     1      -9.067  12.211   0.230  1.00  0.00     0.020 C 
BRANCH  43  45
ATOM     45  C   UNL     1      -9.808   9.763  -0.060  1.00  0.00     0.225 C 
ATOM     46  O   UNL     1      -9.415   8.706   0.424  1.00  0.00    -0.275 OA
ATOM     47  N   UNL     1     -10.071   9.878  -1.406  1.00  0.00    -0.342 N 
ATOM     48  H   UNL     1     -10.534  10.705  -1.756  1.00  0.00     0.164 HD
BRANCH  47  49
ATOM     49  C   UNL     1     -10.019   8.716  -2.299  1.00  0.00     0.192 C 
BRANCH  49  50
ATOM     50  C   UNL     1      -9.213   9.067  -3.552  1.00  0.00     0.047 C 
BRANCH  50  51
ATOM     51  C   UNL     1      -9.297  10.559  -3.900  1.00  0.00     0.103 C 
BRANCH  51  52
ATOM     52  C   UNL     1      -8.122  11.348  -3.327  1.00  0.00     0.226 C 
ATOM     53  O   UNL     1      -7.231  10.757  -2.714  1.00  0.00    -0.275 OA
BRANCH  52  54
ATOM     54  N   UNL     1      -8.095  12.727  -3.610  1.00  0.00    -0.311 N 
ATOM     55  C   UNL     1      -9.169  13.615  -3.145  1.00  0.00     0.153 C 
BRANCH  54  56
ATOM     56  C   UNL     1      -7.043  13.304  -4.340  1.00  0.00     0.102 C 
ATOM     57  C   UNL     1      -5.858  13.667  -3.822  1.00  0.00     0.043 C 
BRANCH  56  58
ATOM     58  C   UNL     1      -7.162  13.525  -5.829  1.00  0.00     0.268 C 
ATOM     59  O   UNL     1      -7.915  14.353  -6.325  1.00  0.00    -0.268 OA
ATOM     60  N   UNL     1      -6.295  12.751  -6.562  1.00  0.00    -0.339 N 
ATOM     61  H   UNL     1      -5.711  12.081  -6.075  1.00  0.00     0.164 HD
BRANCH  60  62
ATOM     62  C   UNL     1      -6.200  12.851  -8.017  1.00  0.00     0.168 CG0
ATOM     63  C   UNL     1      -4.941  13.602  -8.433  1.00  0.00     0.041 C 
ATOM     64  G   UNL     1      -7.460  13.548  -8.570  1.00  0.00     0.000 G0
ENDBRANCH  60  62
ENDBRANCH  56  58
ENDBRANCH  54  56
ENDBRANCH  52  54
ENDBRANCH  51  52
ENDBRANCH  50  51
ENDBRANCH  49  50
BRANCH  49  65
ATOM     65  C   UNL     1     -11.426   8.255  -2.710  1.00  0.00     0.326 C 
ATOM     66  O   UNL     1     -11.696   7.603  -3.708  1.00  0.00    -0.250 OA
BRANCH  65  67
ATOM     67  O   UNL     1     -12.418   8.677  -1.896  1.00  0.00    -0.480 OA
ATOM     68  H   UNL     1     -12.755   9.484  -2.341  1.00  0.00     0.296 HD
ENDBRANCH  65  67
ENDBRANCH  49  65
ENDBRANCH  47  49
ENDBRANCH  43  45
ENDBRANCH   1  43
BRANCH   1  69
ATOM     69  C   UNL     1     -11.810  12.373   2.082  1.00  0.00    -0.001 C 
ATOM     70  C   UNL     1     -12.876  13.191   2.153  1.00  0.00     0.001 C 
BRANCH  70  71
ATOM     71  C   UNL     1     -13.240  14.065   3.270  1.00  0.00    -0.055 C 
ATOM     72  C   UNL     1     -12.382  14.148   4.309  1.00  0.00    -0.018 C 
ATOM     73  C   UNL     1     -14.542  14.817   3.177  1.00  0.00     0.044 C 
BRANCH  72  74
ATOM     74  C   UNL     1     -12.493  14.966   5.587  1.00  0.00     0.038 C 
ATOM     75  C   UNL     1     -12.130  16.413   5.232  1.00  0.00     0.015 C 
BRANCH  74  76
ATOM     76  C   UNL     1     -11.592  14.315   6.678  1.00  0.00     0.128 C 
BRANCH  76  77
ATOM     77  O   UNL     1     -11.833  12.899   6.733  1.00  0.00    -0.381 OA
ATOM     78  C   UNL     1     -12.066  12.410   8.047  1.00  0.00     0.195 C 
ENDBRANCH  76  77
BRANCH  76  79
ATOM     79  C   UNL     1     -10.089  14.664   6.542  1.00  0.00     0.068 C 
BRANCH  79  80
ATOM     80  C   UNL     1      -9.187  13.655   5.873  1.00  0.00    -0.045 A 
ATOM     81  C   UNL     1      -8.316  12.855   6.624  1.00  0.00     0.004 A 
ATOM     82  C   UNL     1      -9.188  13.523   4.476  1.00  0.00     0.004 A 
ATOM     83  C   UNL     1      -7.475  11.934   5.996  1.00  0.00     0.000 A 
ATOM     84  C   UNL     1      -8.346  12.602   3.849  1.00  0.00     0.000 A 
ATOM     85  C   UNL     1      -7.491  11.807   4.608  1.00  0.00     0.000 A 
ENDBRANCH  79  80
ENDBRANCH  76  79
ENDBRANCH  74  76
ENDBRANCH  72  74
ENDBRANCH  70  71
ENDBRANCH   1  69
TORSDOF 17
ENDMDL
MODEL 5
REMARK VINA RESULT:    -6.183      1.960      2.840
REMARK INTER + INTRA:         -25.361
REMARK INTER:                 -17.575
REMARK INTRA:                  -7.786
REMARK UNBOUND:                -6.889
REMARK SMILES C=C1C(=O)N[C@H](C)C(=O)N[C@@H](CC(C)C)C(=O)N[C@@H](C(=O)O)[C@H](C)C(=O)N[C@@H](CCCN=C(N)N)C(=O)N[C@@H](/C=C/C(C)=C/[C@H](C)[C@H](Cc2ccccc2)OC)[C@H](C)C(=O)N[C@@H](C(=O)O)CCC(=O)N1C
REMARK SMILES IDX 39 1 38 2 37 3 36 4 28 6 27 7 25 8 26 9 23 11 24 12 19 13
REMARK SMILES IDX 18 14 16 15 17 16 11 18 10 19 8 20 9 21 12 24 13 25 14 26
REMARK SMILES IDX 15 27 20 28 21 29 22 30 29 32 30 33 31 34 32 35 33 36 34 37
REMARK SMILES IDX 35 38 57 43 58 44 59 45 60 46 61 47 62 49 66 50 67 51 68 52
REMARK SMILES IDX 69 53 70 54 71 55 2 56 1 57 3 58 4 59 5 60 6 62 7 63 63 65
REMARK SMILES IDX 64 66 65 67 40 69 41 70 42 71 44 72 43 73 45 74 46 75 47 76
REMARK SMILES IDX 55 77 56 78 48 79 49 80 50 81 54 82 51 83 53 84 52 85
REMARK H PARENT 38 5 27 10 18 17 10 22 22 31 34 39 34 40 35 41 35 42 61 48
REMARK H PARENT 5 61 65 68
REMARK Flexibility Score:  369.900
ROOT
ATOM      1  C   UNL     1     -11.100  11.373   1.217  1.00  0.00     0.117 C 
ENDROOT
BRANCH   1   2
ATOM      2  N   UNL     1     -11.038  10.040   1.818  1.00  0.00    -0.347 N 
ATOM      3  O   UNL     1      -9.482  10.501   3.442  1.00  0.00    -0.273 OA
ATOM      4  C   UNL     1     -10.299   9.733   2.945  1.00  0.00     0.243 C 
ATOM      5  H   UNL     1     -11.600   9.297   1.432  1.00  0.00     0.164 HD
BRANCH   4   6
ATOM      6  C   UNL     1     -10.476   8.271   3.426  1.00  0.00     0.171 C 
BRANCH   6   7
ATOM      7  N   UNL     1     -11.875   8.020   3.806  1.00  0.00    -0.344 N 
ATOM      8  C   UNL     1     -12.268   8.083   5.125  1.00  0.00     0.226 C 
ATOM      9  O   UNL     1     -11.485   8.324   6.036  1.00  0.00    -0.275 OA
ATOM     10  H   UNL     1     -12.537   7.751   3.089  1.00  0.00     0.164 HD
BRANCH   8  11
ATOM     11  C   UNL     1     -13.753   7.854   5.347  1.00  0.00     0.109 C 
ATOM     12  C   UNL     1     -13.966   6.679   6.302  1.00  0.00     0.021 C 
BRANCH  11  13
ATOM     13  C   UNL     1     -14.425   9.172   5.781  1.00  0.00     0.204 C 
BRANCH  13  14
ATOM     14  N   UNL     1     -14.113   9.519   7.171  1.00  0.00    -0.340 N 
ATOM     15  C   UNL     1     -15.076   9.623   8.151  1.00  0.00     0.243 C 
ATOM     16  O   UNL     1     -16.261   9.370   7.941  1.00  0.00    -0.273 OA
ATOM     17  H   UNL     1     -13.179   9.886   7.376  1.00  0.00     0.164 HD
BRANCH  15  18
ATOM     18  C   UNL     1     -14.542  10.202   9.484  1.00  0.00     0.171 C 
BRANCH  18  19
ATOM     19  N   UNL     1     -15.154   9.418  10.555  1.00  0.00    -0.343 N 
ATOM     20  C   UNL     1     -15.605  10.005  11.722  1.00  0.00     0.242 CG0
ATOM     21  O   UNL     1     -15.394  11.190  11.969  1.00  0.00    -0.273 OA
ATOM     22  H   UNL     1     -15.246   8.414  10.447  1.00  0.00     0.164 HD
ATOM     23  G   UNL     1     -16.291   9.030  12.701  1.00  0.00     0.000 G0
ENDBRANCH  18  19
BRANCH  18  24
ATOM     24  C   UNL     1     -13.012  10.124   9.534  1.00  0.00     0.038 C 
BRANCH  24  25
ATOM     25  C   UNL     1     -12.453   8.939  10.349  1.00  0.00    -0.015 C 
ATOM     26  C   UNL     1     -11.693   9.392  11.595  1.00  0.00     0.007 C 
ATOM     27  C   UNL     1     -11.533   8.094   9.463  1.00  0.00     0.007 C 
ENDBRANCH  24  25
ENDBRANCH  18  24
ENDBRANCH  15  18
ENDBRANCH  13  14
BRANCH  13  28
ATOM     28  C   UNL     1     -14.023  10.368   4.913  1.00  0.00     0.327 C 
ATOM     29  O   UNL     1     -13.563  11.427   5.310  1.00  0.00    -0.250 OA
BRANCH  28  30
ATOM     30  O   UNL     1     -14.335  10.205   3.611  1.00  0.00    -0.480 OA
ATOM     31  H   UNL     1     -13.675   9.559   3.284  1.00  0.00     0.296 HD
ENDBRANCH  28  30
ENDBRANCH  13  28
ENDBRANCH  11  13
ENDBRANCH   8  11
ENDBRANCH   6   7
BRANCH   6  32
ATOM     32  C   UNL     1     -10.031   7.317   2.313  1.00  0.00     0.037 C 
BRANCH  32  33
ATOM     33  C   UNL     1     -11.135   6.322   1.926  1.00  0.00     0.026 C 
BRANCH  33  34
ATOM     34  C   UNL     1     -11.616   6.513   0.487  1.00  0.00     0.146 C 
BRANCH  34  35
ATOM     35  N   UNL     1     -12.243   7.823   0.371  1.00  0.00    -0.254 NA
ATOM     36  C   UNL     1     -12.609   8.228  -0.787  1.00  0.00     0.185 C 
ATOM     37  N   UNL     1     -13.192   9.431  -0.905  1.00  0.00    -0.370 N 
ATOM     38  N   UNL     1     -12.499   7.605  -1.974  1.00  0.00    -0.370 N 
ATOM     39  H   UNL     1     -13.321   9.959  -0.051  1.00  0.00     0.159 HD
ATOM     40  H   UNL     1     -13.660   9.743  -1.739  1.00  0.00     0.159 HD
ATOM     41  H   UNL     1     -12.698   8.087  -2.836  1.00  0.00     0.159 HD
ATOM     42  H   UNL     1     -12.065   6.698  -2.038  1.00  0.00     0.159 HD
ENDBRANCH  34  35
ENDBRANCH  33  34
ENDBRANCH  32  33
ENDBRANCH   6  32
ENDBRANCH   4   6
ENDBRANCH   1   2
BRANCH   1  43
ATOM     43  C   UNL     1      -9.795  11.609   0.403  1.00  0.00     0.102 C 
ATOM     44  C   UNL     1      -9.672  13.038  -0.154  1.00  0.00     0.020 C 
BRANCH  43  45
ATOM     45  C   UNL     1      -9.595  10.513  -0.648  1.00  0.00     0.225 C 
ATOM     46  O   UNL     1      -9.159   9.397  -0.379  1.00  0.00    -0.275 OA
ATOM     47  N   UNL     1      -9.849  10.886  -1.948  1.00  0.00    -0.342 N 
ATOM     48  H   UNL     1     -10.347  11.745  -2.134  1.00  0.00     0.164 HD
BRANCH  47  49
ATOM     49  C   UNL     1      -9.736   9.931  -3.055  1.00  0.00     0.192 C 
BRANCH  49  50
ATOM     50  C   UNL     1      -8.552  10.315  -3.946  1.00  0.00     0.047 C 
BRANCH  50  51
ATOM     51  C   UNL     1      -8.265  11.823  -3.914  1.00  0.00     0.103 C 
BRANCH  51  52
ATOM     52  C   UNL     1      -6.790  12.131  -4.166  1.00  0.00     0.226 C 
ATOM     53  O   UNL     1      -6.042  12.355  -3.213  1.00  0.00    -0.275 OA
BRANCH  52  54
ATOM     54  N   UNL     1      -6.355  12.063  -5.503  1.00  0.00    -0.311 N 
ATOM     55  C   UNL     1      -5.712  10.852  -6.028  1.00  0.00     0.153 C 
BRANCH  54  56
ATOM     56  C   UNL     1      -6.525  13.144  -6.384  1.00  0.00     0.102 C 
ATOM     57  C   UNL     1      -6.997  14.352  -6.036  1.00  0.00     0.043 C 
BRANCH  56  58
ATOM     58  C   UNL     1      -6.128  13.030  -7.837  1.00  0.00     0.268 C 
ATOM     59  O   UNL     1      -6.820  12.474  -8.678  1.00  0.00    -0.268 OA
ATOM     60  N   UNL     1      -4.946  13.670  -8.126  1.00  0.00    -0.339 N 
ATOM     61  H   UNL     1      -4.427  14.099  -7.369  1.00  0.00     0.164 HD
BRANCH  60  62
ATOM     62  C   UNL     1      -4.408  13.737  -9.484  1.00  0.00     0.168 CG0
ATOM     63  C   UNL     1      -4.189  15.182  -9.915  1.00  0.00     0.041 C 
ATOM     64  G   UNL     1      -5.366  13.016 -10.455  1.00  0.00     0.000 G0
ENDBRANCH  60  62
ENDBRANCH  56  58
ENDBRANCH  54  56
ENDBRANCH  52  54
ENDBRANCH  51  52
ENDBRANCH  50  51
ENDBRANCH  49  50
BRANCH  49  65
ATOM     65  C   UNL     1     -11.018   9.889  -3.901  1.00  0.00     0.326 C 
ATOM     66  O   UNL     1     -12.067  10.455  -3.630  1.00  0.00    -0.250 OA
BRANCH  65  67
ATOM     67  O   UNL     1     -10.944   9.102  -4.997  1.00  0.00    -0.480 OA
ATOM     68  H   UNL     1      -9.990   8.879  -5.059  1.00  0.00     0.296 HD
ENDBRANCH  65  67
ENDBRANCH  49  65
ENDBRANCH  47  49
ENDBRANCH  43  45
ENDBRANCH   1  43
BRANCH   1  69
ATOM     69  C   UNL     1     -11.446  12.330   2.342  1.00  0.00    -0.001 C 
ATOM     70  C   UNL     1     -12.462  13.210   2.383  1.00  0.00     0.001 C 
BRANCH  70  71
ATOM     71  C   UNL     1     -12.799  14.115   3.484  1.00  0.00    -0.055 C 
ATOM     72  C   UNL     1     -11.823  14.423   4.364  1.00  0.00    -0.018 C 
ATOM     73  C   UNL     1     -14.207  14.644   3.552  1.00  0.00     0.044 C 
BRANCH  72  74
ATOM     74  C   UNL     1     -11.880  15.326   5.588  1.00  0.00     0.038 C 
ATOM     75  C   UNL     1     -12.297  16.719   5.104  1.00  0.00     0.015 C 
BRANCH  74  76
ATOM     76  C   UNL     1     -10.503  15.271   6.315  1.00  0.00     0.128 C 
BRANCH  76  77
ATOM     77  O   UNL     1     -10.035  16.605   6.579  1.00  0.00    -0.381 OA
ATOM     78  C   UNL     1      -8.682  16.660   7.009  1.00  0.00     0.195 C 
ENDBRANCH  76  77
BRANCH  76  79
ATOM     79  C   UNL     1     -10.492  14.371   7.576  1.00  0.00     0.068 C 
BRANCH  79  80
ATOM     80  C   UNL     1      -9.769  13.049   7.495  1.00  0.00    -0.045 A 
ATOM     81  C   UNL     1     -10.119  11.982   8.333  1.00  0.00     0.004 A 
ATOM     82  C   UNL     1      -8.710  12.877   6.591  1.00  0.00     0.004 A 
ATOM     83  C   UNL     1      -9.435  10.766   8.261  1.00  0.00     0.000 A 
ATOM     84  C   UNL     1      -8.027  11.661   6.520  1.00  0.00     0.000 A 
ATOM     85  C   UNL     1      -8.390  10.606   7.354  1.00  0.00     0.000 A 
ENDBRANCH  79  80
ENDBRANCH  76  79
ENDBRANCH  74  76
ENDBRANCH  72  74
ENDBRANCH  70  71
ENDBRANCH   1  69
TORSDOF 17
ENDMDL
MODEL 6
REMARK VINA RESULT:    -6.108     12.015     15.549
REMARK INTER + INTRA:         -25.137
REMARK INTER:                 -17.586
REMARK INTRA:                  -7.551
REMARK UNBOUND:                -6.889
REMARK SMILES C=C1C(=O)N[C@H](C)C(=O)N[C@@H](CC(C)C)C(=O)N[C@@H](C(=O)O)[C@H](C)C(=O)N[C@@H](CCCN=C(N)N)C(=O)N[C@@H](/C=C/C(C)=C/[C@H](C)[C@H](Cc2ccccc2)OC)[C@H](C)C(=O)N[C@@H](C(=O)O)CCC(=O)N1C
REMARK SMILES IDX 39 1 38 2 37 3 36 4 28 6 27 7 25 8 26 9 23 11 24 12 19 13
REMARK SMILES IDX 18 14 16 15 17 16 11 18 10 19 8 20 9 21 12 24 13 25 14 26
REMARK SMILES IDX 15 27 20 28 21 29 22 30 29 32 30 33 31 34 32 35 33 36 34 37
REMARK SMILES IDX 35 38 57 43 58 44 59 45 60 46 61 47 62 49 66 50 67 51 68 52
REMARK SMILES IDX 69 53 70 54 71 55 2 56 1 57 3 58 4 59 5 60 6 62 7 63 63 65
REMARK SMILES IDX 64 66 65 67 40 69 41 70 42 71 44 72 43 73 45 74 46 75 47 76
REMARK SMILES IDX 55 77 56 78 48 79 49 80 50 81 54 82 51 83 53 84 52 85
REMARK H PARENT 38 5 27 10 18 17 10 22 22 31 34 39 34 40 35 41 35 42 61 48
REMARK H PARENT 5 61 65 68
REMARK Flexibility Score:  369.900
ROOT
ATOM      1  C   UNL     1      -0.452   5.283   8.472  1.00  0.00     0.117 C 
ENDROOT
BRANCH   1   2
ATOM      2  N   UNL     1      -1.830   5.291   7.979  1.00  0.00    -0.347 N 
ATOM      3  O   UNL     1      -2.342   3.102   8.447  1.00  0.00    -0.273 OA
ATOM      4  C   UNL     1      -2.697   4.221   8.090  1.00  0.00     0.243 C 
ATOM      5  H   UNL     1      -2.205   6.135   7.573  1.00  0.00     0.164 HD
BRANCH   4   6
ATOM      6  C   UNL     1      -4.125   4.518   7.565  1.00  0.00     0.171 C 
BRANCH   6   7
ATOM      7  N   UNL     1      -4.698   3.322   6.928  1.00  0.00    -0.344 N 
ATOM      8  C   UNL     1      -4.873   3.270   5.562  1.00  0.00     0.226 C 
ATOM      9  O   UNL     1      -4.587   4.204   4.823  1.00  0.00    -0.275 OA
ATOM     10  H   UNL     1      -5.009   2.556   7.512  1.00  0.00     0.164 HD
BRANCH   8  11
ATOM     11  C   UNL     1      -5.424   1.949   5.053  1.00  0.00     0.109 C 
ATOM     12  C   UNL     1      -5.478   1.956   3.525  1.00  0.00     0.021 C 
BRANCH  11  13
ATOM     13  C   UNL     1      -4.629   0.780   5.668  1.00  0.00     0.204 C 
BRANCH  13  14
ATOM     14  N   UNL     1      -5.180  -0.523   5.285  1.00  0.00    -0.340 N 
ATOM     15  C   UNL     1      -5.316  -1.569   6.172  1.00  0.00     0.243 C 
ATOM     16  O   UNL     1      -5.041  -1.461   7.366  1.00  0.00    -0.273 OA
ATOM     17  H   UNL     1      -5.284  -0.726   4.287  1.00  0.00     0.164 HD
BRANCH  15  18
ATOM     18  C   UNL     1      -5.721  -2.903   5.499  1.00  0.00     0.171 C 
BRANCH  18  19
ATOM     19  N   UNL     1      -6.537  -3.631   6.469  1.00  0.00    -0.343 N 
ATOM     20  C   UNL     1      -6.030  -4.688   7.200  1.00  0.00     0.242 CG0
ATOM     21  O   UNL     1      -4.914  -5.150   6.974  1.00  0.00    -0.273 OA
ATOM     22  H   UNL     1      -7.503  -3.360   6.609  1.00  0.00     0.164 HD
ATOM     23  G   UNL     1      -7.014  -5.280   8.230  1.00  0.00     0.000 G0
ENDBRANCH  18  19
BRANCH  18  24
ATOM     24  C   UNL     1      -6.492  -2.642   4.200  1.00  0.00     0.038 C 
BRANCH  24  25
ATOM     25  C   UNL     1      -8.028  -2.635   4.352  1.00  0.00    -0.015 C 
ATOM     26  C   UNL     1      -8.721  -3.541   3.334  1.00  0.00     0.007 C 
ATOM     27  C   UNL     1      -8.553  -1.204   4.211  1.00  0.00     0.007 C 
ENDBRANCH  24  25
ENDBRANCH  18  24
ENDBRANCH  15  18
ENDBRANCH  13  14
BRANCH  13  28
ATOM     28  C   UNL     1      -3.149   0.782   5.273  1.00  0.00     0.327 C 
ATOM     29  O   UNL     1      -2.678   0.347   4.233  1.00  0.00    -0.250 OA
BRANCH  28  30
ATOM     30  O   UNL     1      -2.340   1.222   6.258  1.00  0.00    -0.480 OA
ATOM     31  H   UNL     1      -1.519   0.698   6.147  1.00  0.00     0.296 HD
ENDBRANCH  28  30
ENDBRANCH  13  28
ENDBRANCH  11  13
ENDBRANCH   8  11
ENDBRANCH   6   7
BRANCH   6  32
ATOM     32  C   UNL     1      -5.001   4.991   8.731  1.00  0.00     0.037 C 
BRANCH  32  33
ATOM     33  C   UNL     1      -6.471   4.590   8.550  1.00  0.00     0.026 C 
BRANCH  33  34
ATOM     34  C   UNL     1      -6.909   3.510   9.541  1.00  0.00     0.146 C 
BRANCH  34  35
ATOM     35  N   UNL     1      -7.563   2.436   8.806  1.00  0.00    -0.254 NA
ATOM     36  C   UNL     1      -6.970   1.304   8.716  1.00  0.00     0.185 C 
ATOM     37  N   UNL     1      -7.566   0.305   8.046  1.00  0.00    -0.370 N 
ATOM     38  N   UNL     1      -5.778   0.932   9.216  1.00  0.00    -0.370 N 
ATOM     39  H   UNL     1      -8.474   0.504   7.648  1.00  0.00     0.159 HD
ATOM     40  H   UNL     1      -7.253  -0.650   8.078  1.00  0.00     0.159 HD
ATOM     41  H   UNL     1      -5.356   0.055   8.960  1.00  0.00     0.159 HD
ATOM     42  H   UNL     1      -5.211   1.588   9.731  1.00  0.00     0.159 HD
ENDBRANCH  34  35
ENDBRANCH  33  34
ENDBRANCH  32  33
ENDBRANCH   6  32
ENDBRANCH   4   6
ENDBRANCH   1   2
BRANCH   1  43
ATOM     43  C   UNL     1      -0.211   6.587   9.286  1.00  0.00     0.102 C 
ATOM     44  C   UNL     1      -1.499   7.189   9.874  1.00  0.00     0.020 C 
BRANCH  43  45
ATOM     45  C   UNL     1       0.634   7.585   8.489  1.00  0.00     0.225 C 
ATOM     46  O   UNL     1       0.176   8.283   7.589  1.00  0.00    -0.275 OA
ATOM     47  N   UNL     1       1.979   7.589   8.780  1.00  0.00    -0.342 N 
ATOM     48  H   UNL     1       2.311   7.128   9.616  1.00  0.00     0.164 HD
BRANCH  47  49
ATOM     49  C   UNL     1       2.903   8.517   8.121  1.00  0.00     0.192 C 
BRANCH  49  50
ATOM     50  C   UNL     1       4.303   7.899   8.070  1.00  0.00     0.047 C 
BRANCH  50  51
ATOM     51  C   UNL     1       4.693   7.460   6.653  1.00  0.00     0.103 C 
BRANCH  51  52
ATOM     52  C   UNL     1       6.122   7.868   6.299  1.00  0.00     0.226 C 
ATOM     53  O   UNL     1       7.060   7.128   6.600  1.00  0.00    -0.275 OA
BRANCH  52  54
ATOM     54  N   UNL     1       6.270   9.060   5.566  1.00  0.00    -0.311 N 
ATOM     55  C   UNL     1       7.370   9.991   5.850  1.00  0.00     0.153 C 
BRANCH  54  56
ATOM     56  C   UNL     1       5.378   9.402   4.536  1.00  0.00     0.102 C 
ATOM     57  C   UNL     1       5.275   8.756   3.363  1.00  0.00     0.043 C 
BRANCH  56  58
ATOM     58  C   UNL     1       4.401  10.541   4.703  1.00  0.00     0.268 C 
ATOM     59  O   UNL     1       4.058  10.975   5.794  1.00  0.00    -0.268 OA
ATOM     60  N   UNL     1       3.990  11.081   3.507  1.00  0.00    -0.339 N 
ATOM     61  H   UNL     1       4.312  10.657   2.645  1.00  0.00     0.164 HD
BRANCH  60  62
ATOM     62  C   UNL     1       3.093  12.233   3.439  1.00  0.00     0.168 CG0
ATOM     63  C   UNL     1       1.642  11.789   3.296  1.00  0.00     0.041 C 
ATOM     64  G   UNL     1       3.505  13.141   2.262  1.00  0.00     0.000 G0
ENDBRANCH  60  62
ENDBRANCH  56  58
ENDBRANCH  54  56
ENDBRANCH  52  54
ENDBRANCH  51  52
ENDBRANCH  50  51
ENDBRANCH  49  50
BRANCH  49  65
ATOM     65  C   UNL     1       2.969   9.866   8.853  1.00  0.00     0.326 C 
ATOM     66  O   UNL     1       2.108  10.314   9.598  1.00  0.00    -0.250 OA
BRANCH  65  67
ATOM     67  O   UNL     1       4.064  10.607   8.574  1.00  0.00    -0.480 OA
ATOM     68  H   UNL     1       4.137  11.212   9.343  1.00  0.00     0.296 HD
ENDBRANCH  65  67
ENDBRANCH  49  65
ENDBRANCH  47  49
ENDBRANCH  43  45
ENDBRANCH   1  43
BRANCH   1  69
ATOM     69  C   UNL     1       0.427   4.996   7.269  1.00  0.00    -0.001 C 
ATOM     70  C   UNL     1       1.680   4.506   7.270  1.00  0.00     0.001 C 
BRANCH  70  71
ATOM     71  C   UNL     1       2.511   4.214   6.101  1.00  0.00    -0.055 C 
ATOM     72  C   UNL     1       3.223   3.067   6.109  1.00  0.00    -0.018 C 
ATOM     73  C   UNL     1       2.507   5.208   4.970  1.00  0.00     0.044 C 
BRANCH  72  74
ATOM     74  C   UNL     1       4.158   2.507   5.046  1.00  0.00     0.038 C 
ATOM     75  C   UNL     1       5.323   3.494   4.903  1.00  0.00     0.015 C 
BRANCH  74  76
ATOM     76  C   UNL     1       3.345   2.264   3.741  1.00  0.00     0.128 C 
BRANCH  76  77
ATOM     77  O   UNL     1       4.149   1.548   2.788  1.00  0.00    -0.381 OA
ATOM     78  C   UNL     1       4.576   2.343   1.690  1.00  0.00     0.195 C 
ENDBRANCH  76  77
BRANCH  76  79
ATOM     79  C   UNL     1       1.963   1.604   3.974  1.00  0.00     0.068 C 
BRANCH  79  80
ATOM     80  C   UNL     1       0.747   2.284   3.393  1.00  0.00    -0.045 A 
ATOM     81  C   UNL     1       0.540   2.333   2.008  1.00  0.00     0.004 A 
ATOM     82  C   UNL     1      -0.186   2.907   4.236  1.00  0.00     0.004 A 
ATOM     83  C   UNL     1      -0.580   2.977   1.478  1.00  0.00     0.000 A 
ATOM     84  C   UNL     1      -1.305   3.551   3.704  1.00  0.00     0.000 A 
ATOM     85  C   UNL     1      -1.503   3.584   2.326  1.00  0.00     0.000 A 
ENDBRANCH  79  80
ENDBRANCH  76  79
ENDBRANCH  74  76
ENDBRANCH  72  74
ENDBRANCH  70  71
ENDBRANCH   1  69
TORSDOF 17
ENDMDL
MODEL 7
REMARK VINA RESULT:    -6.023      1.846      2.442
REMARK INTER + INTRA:         -24.884
REMARK INTER:                 -18.352
REMARK INTRA:                  -6.532
REMARK UNBOUND:                -6.889
REMARK SMILES C=C1C(=O)N[C@H](C)C(=O)N[C@@H](CC(C)C)C(=O)N[C@@H](C(=O)O)[C@H](C)C(=O)N[C@@H](CCCN=C(N)N)C(=O)N[C@@H](/C=C/C(C)=C/[C@H](C)[C@H](Cc2ccccc2)OC)[C@H](C)C(=O)N[C@@H](C(=O)O)CCC(=O)N1C
REMARK SMILES IDX 39 1 38 2 37 3 36 4 28 6 27 7 25 8 26 9 23 11 24 12 19 13
REMARK SMILES IDX 18 14 16 15 17 16 11 18 10 19 8 20 9 21 12 24 13 25 14 26
REMARK SMILES IDX 15 27 20 28 21 29 22 30 29 32 30 33 31 34 32 35 33 36 34 37
REMARK SMILES IDX 35 38 57 43 58 44 59 45 60 46 61 47 62 49 66 50 67 51 68 52
REMARK SMILES IDX 69 53 70 54 71 55 2 56 1 57 3 58 4 59 5 60 6 62 7 63 63 65
REMARK SMILES IDX 64 66 65 67 40 69 41 70 42 71 44 72 43 73 45 74 46 75 47 76
REMARK SMILES IDX 55 77 56 78 48 79 49 80 50 81 54 82 51 83 53 84 52 85
REMARK H PARENT 38 5 27 10 18 17 10 22 22 31 34 39 34 40 35 41 35 42 61 48
REMARK H PARENT 5 61 65 68
REMARK Flexibility Score:  369.900
ROOT
ATOM      1  C   UNL     1     -11.522  11.510   1.225  1.00  0.00     0.117 C 
ENDROOT
BRANCH   1   2
ATOM      2  N   UNL     1     -11.889  10.162   1.659  1.00  0.00    -0.347 N 
ATOM      3  O   UNL     1     -10.492  10.027   3.476  1.00  0.00    -0.273 OA
ATOM      4  C   UNL     1     -11.409   9.562   2.808  1.00  0.00     0.243 C 
ATOM      5  H   UNL     1     -12.570   9.639   1.129  1.00  0.00     0.164 HD
BRANCH   4   6
ATOM      6  C   UNL     1     -12.021   8.165   3.084  1.00  0.00     0.171 C 
BRANCH   6   7
ATOM      7  N   UNL     1     -13.385   8.298   3.620  1.00  0.00    -0.344 N 
ATOM      8  C   UNL     1     -13.628   8.143   4.968  1.00  0.00     0.226 C 
ATOM      9  O   UNL     1     -12.745   7.869   5.771  1.00  0.00    -0.275 OA
ATOM     10  H   UNL     1     -14.152   8.458   2.978  1.00  0.00     0.164 HD
BRANCH   8  11
ATOM     11  C   UNL     1     -15.075   8.365   5.372  1.00  0.00     0.109 C 
ATOM     12  C   UNL     1     -15.631   7.112   6.049  1.00  0.00     0.021 C 
BRANCH  11  13
ATOM     13  C   UNL     1     -15.192   9.658   6.204  1.00  0.00     0.204 C 
BRANCH  13  14
ATOM     14  N   UNL     1     -14.473   9.560   7.478  1.00  0.00    -0.340 N 
ATOM     15  C   UNL     1     -15.101   9.651   8.701  1.00  0.00     0.243 C 
ATOM     16  O   UNL     1     -16.321   9.760   8.810  1.00  0.00    -0.273 OA
ATOM     17  H   UNL     1     -13.451   9.622   7.459  1.00  0.00     0.164 HD
BRANCH  15  18
ATOM     18  C   UNL     1     -14.120   9.729   9.897  1.00  0.00     0.171 C 
BRANCH  18  19
ATOM     19  N   UNL     1     -14.890  10.217  11.039  1.00  0.00    -0.343 N 
ATOM     20  C   UNL     1     -14.521  11.351  11.736  1.00  0.00     0.242 CG0
ATOM     21  O   UNL     1     -13.458  11.926  11.514  1.00  0.00    -0.273 OA
ATOM     22  H   UNL     1     -15.716   9.709  11.336  1.00  0.00     0.164 HD
ATOM     23  G   UNL     1     -15.499  11.755  12.859  1.00  0.00     0.000 G0
ENDBRANCH  18  19
BRANCH  18  24
ATOM     24  C   UNL     1     -13.502   8.355  10.181  1.00  0.00     0.038 C 
BRANCH  24  25
ATOM     25  C   UNL     1     -11.990   8.379  10.489  1.00  0.00    -0.015 C 
ATOM     26  C   UNL     1     -11.689   8.876  11.904  1.00  0.00     0.007 C 
ATOM     27  C   UNL     1     -11.271   9.265   9.468  1.00  0.00     0.007 C 
ENDBRANCH  24  25
ENDBRANCH  18  24
ENDBRANCH  15  18
ENDBRANCH  13  14
BRANCH  13  28
ATOM     28  C   UNL     1     -14.659  10.895   5.476  1.00  0.00     0.327 C 
ATOM     29  O   UNL     1     -14.692  11.095   4.271  1.00  0.00    -0.250 OA
BRANCH  28  30
ATOM     30  O   UNL     1     -14.010  11.750   6.292  1.00  0.00    -0.480 OA
ATOM     31  H   UNL     1     -13.355  12.189   5.710  1.00  0.00     0.296 HD
ENDBRANCH  28  30
ENDBRANCH  13  28
ENDBRANCH  11  13
ENDBRANCH   8  11
ENDBRANCH   6   7
BRANCH   6  32
ATOM     32  C   UNL     1     -12.021   7.350   1.786  1.00  0.00     0.037 C 
BRANCH  32  33
ATOM     33  C   UNL     1     -13.311   6.535   1.613  1.00  0.00     0.026 C 
BRANCH  33  34
ATOM     34  C   UNL     1     -13.834   6.565   0.177  1.00  0.00     0.146 C 
BRANCH  34  35
ATOM     35  N   UNL     1     -12.700   6.553  -0.737  1.00  0.00    -0.254 NA
ATOM     36  C   UNL     1     -12.498   5.510  -1.452  1.00  0.00     0.185 C 
ATOM     37  N   UNL     1     -11.459   5.491  -2.301  1.00  0.00    -0.370 N 
ATOM     38  N   UNL     1     -13.202   4.365  -1.493  1.00  0.00    -0.370 N 
ATOM     39  H   UNL     1     -10.886   6.324  -2.336  1.00  0.00     0.159 HD
ATOM     40  H   UNL     1     -11.336   4.791  -3.013  1.00  0.00     0.159 HD
ATOM     41  H   UNL     1     -12.861   3.562  -1.996  1.00  0.00     0.159 HD
ATOM     42  H   UNL     1     -14.002   4.233  -0.895  1.00  0.00     0.159 HD
ENDBRANCH  34  35
ENDBRANCH  33  34
ENDBRANCH  32  33
ENDBRANCH   6  32
ENDBRANCH   4   6
ENDBRANCH   1   2
BRANCH   1  43
ATOM     43  C   UNL     1     -10.058  11.480   0.700  1.00  0.00     0.102 C 
ATOM     44  C   UNL     1      -9.630  12.785   0.007  1.00  0.00     0.020 C 
BRANCH  43  45
ATOM     45  C   UNL     1      -9.798  10.220  -0.132  1.00  0.00     0.225 C 
ATOM     46  O   UNL     1      -9.094   9.293   0.258  1.00  0.00    -0.275 OA
ATOM     47  N   UNL     1     -10.332  10.227  -1.400  1.00  0.00    -0.342 N 
ATOM     48  H   UNL     1     -11.026  10.918  -1.647  1.00  0.00     0.164 HD
BRANCH  47  49
ATOM     49  C   UNL     1     -10.193   9.075  -2.296  1.00  0.00     0.192 C 
BRANCH  49  50
ATOM     50  C   UNL     1      -8.892   9.196  -3.093  1.00  0.00     0.047 C 
BRANCH  50  51
ATOM     51  C   UNL     1      -8.864  10.452  -3.974  1.00  0.00     0.103 C 
BRANCH  51  52
ATOM     52  C   UNL     1      -7.614  11.295  -3.732  1.00  0.00     0.226 C 
ATOM     53  O   UNL     1      -6.562  10.745  -3.398  1.00  0.00    -0.275 OA
BRANCH  52  54
ATOM     54  N   UNL     1      -7.729  12.675  -3.985  1.00  0.00    -0.311 N 
ATOM     55  C   UNL     1      -8.882  13.440  -3.493  1.00  0.00     0.153 C 
BRANCH  54  56
ATOM     56  C   UNL     1      -6.747  13.371  -4.710  1.00  0.00     0.102 C 
ATOM     57  C   UNL     1      -5.690  13.996  -4.167  1.00  0.00     0.043 C 
BRANCH  56  58
ATOM     58  C   UNL     1      -6.793  13.427  -6.219  1.00  0.00     0.268 C 
ATOM     59  O   UNL     1      -7.693  13.974  -6.841  1.00  0.00    -0.268 OA
ATOM     60  N   UNL     1      -5.691  12.862  -6.814  1.00  0.00    -0.339 N 
ATOM     61  H   UNL     1      -4.993  12.419  -6.227  1.00  0.00     0.164 HD
BRANCH  60  62
ATOM     62  C   UNL     1      -5.501  12.864  -8.264  1.00  0.00     0.168 CG0
ATOM     63  C   UNL     1      -6.244  11.703  -8.914  1.00  0.00     0.041 C 
ATOM     64  G   UNL     1      -3.994  12.797  -8.588  1.00  0.00     0.000 G0
ENDBRANCH  60  62
ENDBRANCH  56  58
ENDBRANCH  54  56
ENDBRANCH  52  54
ENDBRANCH  51  52
ENDBRANCH  50  51
ENDBRANCH  49  50
BRANCH  49  65
ATOM     65  C   UNL     1     -11.378   8.968  -3.269  1.00  0.00     0.326 C 
ATOM     66  O   UNL     1     -11.691   7.969  -3.900  1.00  0.00    -0.250 OA
BRANCH  65  67
ATOM     67  O   UNL     1     -12.065  10.117  -3.449  1.00  0.00    -0.480 OA
ATOM     68  H   UNL     1     -11.734  10.699  -2.731  1.00  0.00     0.296 HD
ENDBRANCH  65  67
ENDBRANCH  49  65
ENDBRANCH  47  49
ENDBRANCH  43  45
ENDBRANCH   1  43
BRANCH   1  69
ATOM     69  C   UNL     1     -11.869  12.435   2.377  1.00  0.00    -0.001 C 
ATOM     70  C   UNL     1     -12.820  13.386   2.404  1.00  0.00     0.001 C 
BRANCH  70  71
ATOM     71  C   UNL     1     -13.160  14.259   3.529  1.00  0.00    -0.055 C 
ATOM     72  C   UNL     1     -12.282  14.335   4.552  1.00  0.00    -0.018 C 
ATOM     73  C   UNL     1     -14.460  15.017   3.463  1.00  0.00     0.044 C 
BRANCH  72  74
ATOM     74  C   UNL     1     -12.366  15.150   5.835  1.00  0.00     0.038 C 
ATOM     75  C   UNL     1     -12.011  16.598   5.475  1.00  0.00     0.015 C 
BRANCH  74  76
ATOM     76  C   UNL     1     -11.442  14.497   6.904  1.00  0.00     0.128 C 
BRANCH  76  77
ATOM     77  O   UNL     1     -11.984  13.230   7.313  1.00  0.00    -0.381 OA
ATOM     78  C   UNL     1     -11.619  12.852   8.634  1.00  0.00     0.195 C 
ENDBRANCH  76  77
BRANCH  76  79
ATOM     79  C   UNL     1      -9.955  14.404   6.479  1.00  0.00     0.068 C 
BRANCH  79  80
ATOM     80  C   UNL     1      -8.961  15.295   7.185  1.00  0.00    -0.045 A 
ATOM     81  C   UNL     1      -9.248  15.843   8.442  1.00  0.00     0.004 A 
ATOM     82  C   UNL     1      -7.738  15.612   6.574  1.00  0.00     0.004 A 
ATOM     83  C   UNL     1      -8.329  16.677   9.081  1.00  0.00     0.000 A 
ATOM     84  C   UNL     1      -6.820  16.448   7.214  1.00  0.00     0.000 A 
ATOM     85  C   UNL     1      -7.115  16.979   8.468  1.00  0.00     0.000 A 
ENDBRANCH  79  80
ENDBRANCH  76  79
ENDBRANCH  74  76
ENDBRANCH  72  74
ENDBRANCH  70  71
ENDBRANCH   1  69
TORSDOF 17
ENDMDL
MODEL 8
REMARK VINA RESULT:    -6.001      1.864      2.939
REMARK INTER + INTRA:         -24.819
REMARK INTER:                 -17.284
REMARK INTRA:                  -7.535
REMARK UNBOUND:                -6.889
REMARK SMILES C=C1C(=O)N[C@H](C)C(=O)N[C@@H](CC(C)C)C(=O)N[C@@H](C(=O)O)[C@H](C)C(=O)N[C@@H](CCCN=C(N)N)C(=O)N[C@@H](/C=C/C(C)=C/[C@H](C)[C@H](Cc2ccccc2)OC)[C@H](C)C(=O)N[C@@H](C(=O)O)CCC(=O)N1C
REMARK SMILES IDX 39 1 38 2 37 3 36 4 28 6 27 7 25 8 26 9 23 11 24 12 19 13
REMARK SMILES IDX 18 14 16 15 17 16 11 18 10 19 8 20 9 21 12 24 13 25 14 26
REMARK SMILES IDX 15 27 20 28 21 29 22 30 29 32 30 33 31 34 32 35 33 36 34 37
REMARK SMILES IDX 35 38 57 43 58 44 59 45 60 46 61 47 62 49 66 50 67 51 68 52
REMARK SMILES IDX 69 53 70 54 71 55 2 56 1 57 3 58 4 59 5 60 6 62 7 63 63 65
REMARK SMILES IDX 64 66 65 67 40 69 41 70 42 71 44 72 43 73 45 74 46 75 47 76
REMARK SMILES IDX 55 77 56 78 48 79 49 80 50 81 54 82 51 83 53 84 52 85
REMARK H PARENT 38 5 27 10 18 17 10 22 22 31 34 39 34 40 35 41 35 42 61 48
REMARK H PARENT 5 61 65 68
REMARK Flexibility Score:  369.900
ROOT
ATOM      1  C   UNL     1     -11.329  11.725   1.038  1.00  0.00     0.117 C 
ENDROOT
BRANCH   1   2
ATOM      2  N   UNL     1     -11.504  10.382   1.593  1.00  0.00    -0.347 N 
ATOM      3  O   UNL     1     -10.048  10.580   3.356  1.00  0.00    -0.273 OA
ATOM      4  C   UNL     1     -10.916   9.947   2.765  1.00  0.00     0.243 C 
ATOM      5  H   UNL     1     -12.127   9.735   1.134  1.00  0.00     0.164 HD
BRANCH   4   6
ATOM      6  C   UNL     1     -11.334   8.512   3.176  1.00  0.00     0.171 C 
BRANCH   6   7
ATOM      7  N   UNL     1     -12.727   8.497   3.648  1.00  0.00    -0.344 N 
ATOM      8  C   UNL     1     -13.033   8.076   4.924  1.00  0.00     0.226 C 
ATOM      9  O   UNL     1     -12.181   7.679   5.709  1.00  0.00    -0.275 OA
ATOM     10  H   UNL     1     -13.466   8.754   3.005  1.00  0.00     0.164 HD
BRANCH   8  11
ATOM     11  C   UNL     1     -14.507   8.171   5.278  1.00  0.00     0.109 C 
ATOM     12  C   UNL     1     -15.003   6.834   5.828  1.00  0.00     0.021 C 
BRANCH  11  13
ATOM     13  C   UNL     1     -14.744   9.381   6.204  1.00  0.00     0.204 C 
BRANCH  13  14
ATOM     14  N   UNL     1     -13.755   9.450   7.285  1.00  0.00    -0.340 N 
ATOM     15  C   UNL     1     -14.073   9.214   8.605  1.00  0.00     0.243 C 
ATOM     16  O   UNL     1     -15.197   8.869   8.962  1.00  0.00    -0.273 OA
ATOM     17  H   UNL     1     -12.848   9.877   7.079  1.00  0.00     0.164 HD
BRANCH  15  18
ATOM     18  C   UNL     1     -12.923   9.548   9.587  1.00  0.00     0.171 C 
BRANCH  18  19
ATOM     19  N   UNL     1     -11.737   8.847   9.096  1.00  0.00    -0.343 N 
ATOM     20  C   UNL     1     -10.849   8.229   9.955  1.00  0.00     0.242 CG0
ATOM     21  O   UNL     1     -10.941   8.353  11.174  1.00  0.00    -0.273 OA
ATOM     22  H   UNL     1     -11.555   8.816   8.100  1.00  0.00     0.164 HD
ATOM     23  G   UNL     1      -9.703   7.475   9.251  1.00  0.00     0.000 G0
ENDBRANCH  18  19
BRANCH  18  24
ATOM     24  C   UNL     1     -12.692  11.063   9.656  1.00  0.00     0.038 C 
BRANCH  24  25
ATOM     25  C   UNL     1     -12.066  11.559  10.976  1.00  0.00    -0.015 C 
ATOM     26  C   UNL     1     -12.998  11.370  12.173  1.00  0.00     0.007 C 
ATOM     27  C   UNL     1     -11.691  13.038  10.844  1.00  0.00     0.007 C 
ENDBRANCH  24  25
ENDBRANCH  18  24
ENDBRANCH  15  18
ENDBRANCH  13  14
BRANCH  13  28
ATOM     28  C   UNL     1     -14.704  10.723   5.466  1.00  0.00     0.327 C 
ATOM     29  O   UNL     1     -13.755  11.179   4.846  1.00  0.00    -0.250 OA
BRANCH  28  30
ATOM     30  O   UNL     1     -15.816  11.462   5.651  1.00  0.00    -0.480 OA
ATOM     31  H   UNL     1     -15.676  12.254   5.092  1.00  0.00     0.296 HD
ENDBRANCH  28  30
ENDBRANCH  13  28
ENDBRANCH  11  13
ENDBRANCH   8  11
ENDBRANCH   6   7
BRANCH   6  32
ATOM     32  C   UNL     1     -11.151   7.572   1.979  1.00  0.00     0.037 C 
BRANCH  32  33
ATOM     33  C   UNL     1      -9.902   6.691   2.120  1.00  0.00     0.026 C 
BRANCH  33  34
ATOM     34  C   UNL     1      -9.073   7.044   3.356  1.00  0.00     0.146 C 
BRANCH  34  35
ATOM     35  N   UNL     1      -7.660   6.929   3.022  1.00  0.00    -0.254 NA
ATOM     36  C   UNL     1      -7.050   7.961   2.570  1.00  0.00     0.185 C 
ATOM     37  N   UNL     1      -5.746   7.868   2.265  1.00  0.00    -0.370 N 
ATOM     38  N   UNL     1      -7.533   9.195   2.340  1.00  0.00    -0.370 N 
ATOM     39  H   UNL     1      -5.306   6.970   2.421  1.00  0.00     0.159 HD
ATOM     40  H   UNL     1      -5.162   8.664   2.074  1.00  0.00     0.159 HD
ATOM     41  H   UNL     1      -6.987   9.885   1.851  1.00  0.00     0.159 HD
ATOM     42  H   UNL     1      -8.504   9.405   2.510  1.00  0.00     0.159 HD
ENDBRANCH  34  35
ENDBRANCH  33  34
ENDBRANCH  32  33
ENDBRANCH   6  32
ENDBRANCH   4   6
ENDBRANCH   1   2
BRANCH   1  43
ATOM     43  C   UNL     1      -9.927  11.805   0.368  1.00  0.00     0.102 C 
ATOM     44  C   UNL     1      -9.619  13.182  -0.245  1.00  0.00     0.020 C 
BRANCH  43  45
ATOM     45  C   UNL     1      -9.709  10.634  -0.594  1.00  0.00     0.225 C 
ATOM     46  O   UNL     1      -9.260   9.548  -0.238  1.00  0.00    -0.275 OA
ATOM     47  N   UNL     1      -9.963  10.901  -1.920  1.00  0.00    -0.342 N 
ATOM     48  H   UNL     1     -10.470  11.737  -2.173  1.00  0.00     0.164 HD
BRANCH  47  49
ATOM     49  C   UNL     1      -9.832   9.865  -2.949  1.00  0.00     0.192 C 
BRANCH  49  50
ATOM     50  C   UNL     1      -8.689  10.227  -3.901  1.00  0.00     0.047 C 
BRANCH  50  51
ATOM     51  C   UNL     1      -8.385  11.732  -3.900  1.00  0.00     0.103 C 
BRANCH  51  52
ATOM     52  C   UNL     1      -6.895  12.016  -4.072  1.00  0.00     0.226 C 
ATOM     53  O   UNL     1      -6.186  12.179  -3.076  1.00  0.00    -0.275 OA
BRANCH  52  54
ATOM     54  N   UNL     1      -6.401  11.998  -5.389  1.00  0.00    -0.311 N 
ATOM     55  C   UNL     1      -5.747  10.801  -5.935  1.00  0.00     0.153 C 
BRANCH  54  56
ATOM     56  C   UNL     1      -6.518  13.116  -6.231  1.00  0.00     0.102 C 
ATOM     57  C   UNL     1      -6.814  14.360  -5.819  1.00  0.00     0.043 C 
BRANCH  56  58
ATOM     58  C   UNL     1      -6.265  12.999  -7.716  1.00  0.00     0.268 C 
ATOM     59  O   UNL     1      -7.055  12.477  -8.490  1.00  0.00    -0.268 OA
ATOM     60  N   UNL     1      -5.091  13.594  -8.112  1.00  0.00    -0.339 N 
ATOM     61  H   UNL     1      -4.486  13.996  -7.406  1.00  0.00     0.164 HD
BRANCH  60  62
ATOM     62  C   UNL     1      -4.682  13.652  -9.515  1.00  0.00     0.168 CG0
ATOM     63  C   UNL     1      -4.191  15.046  -9.885  1.00  0.00     0.041 C 
ATOM     64  G   UNL     1      -5.862  13.231 -10.415  1.00  0.00     0.000 G0
ENDBRANCH  60  62
ENDBRANCH  56  58
ENDBRANCH  54  56
ENDBRANCH  52  54
ENDBRANCH  51  52
ENDBRANCH  50  51
ENDBRANCH  49  50
BRANCH  49  65
ATOM     65  C   UNL     1     -11.131   9.698  -3.753  1.00  0.00     0.326 C 
ATOM     66  O   UNL     1     -11.991  10.555  -3.900  1.00  0.00    -0.250 OA
BRANCH  65  67
ATOM     67  O   UNL     1     -11.316   8.466  -4.275  1.00  0.00    -0.480 OA
ATOM     68  H   UNL     1     -11.594   8.646  -5.199  1.00  0.00     0.296 HD
ENDBRANCH  65  67
ENDBRANCH  49  65
ENDBRANCH  47  49
ENDBRANCH  43  45
ENDBRANCH   1  43
BRANCH   1  69
ATOM     69  C   UNL     1     -11.663  12.693   2.158  1.00  0.00    -0.001 C 
ATOM     70  C   UNL     1     -12.817  13.359   2.346  1.00  0.00     0.001 C 
BRANCH  70  71
ATOM     71  C   UNL     1     -13.135  14.275   3.443  1.00  0.00    -0.055 C 
ATOM     72  C   UNL     1     -12.263  14.351   4.470  1.00  0.00    -0.018 C 
ATOM     73  C   UNL     1     -14.409  15.073   3.344  1.00  0.00     0.044 C 
BRANCH  72  74
ATOM     74  C   UNL     1     -12.329  15.205   5.728  1.00  0.00     0.038 C 
ATOM     75  C   UNL     1     -12.059  16.654   5.306  1.00  0.00     0.015 C 
BRANCH  74  76
ATOM     76  C   UNL     1     -11.329  14.633   6.775  1.00  0.00     0.128 C 
BRANCH  76  77
ATOM     77  O   UNL     1     -11.316  15.464   7.948  1.00  0.00    -0.381 OA
ATOM     78  C   UNL     1     -10.011  15.843   8.365  1.00  0.00     0.195 C 
ENDBRANCH  76  77
BRANCH  76  79
ATOM     79  C   UNL     1     -11.551  13.135   7.105  1.00  0.00     0.068 C 
BRANCH  79  80
ATOM     80  C   UNL     1     -10.375  12.199   6.969  1.00  0.00    -0.045 A 
ATOM     81  C   UNL     1      -9.061  12.664   7.114  1.00  0.00     0.004 A 
ATOM     82  C   UNL     1     -10.581  10.844   6.664  1.00  0.00     0.004 A 
ATOM     83  C   UNL     1      -7.978  11.794   6.972  1.00  0.00     0.000 A 
ATOM     84  C   UNL     1      -9.497   9.976   6.522  1.00  0.00     0.000 A 
ATOM     85  C   UNL     1      -8.196  10.450   6.677  1.00  0.00     0.000 A 
ENDBRANCH  79  80
ENDBRANCH  76  79
ENDBRANCH  74  76
ENDBRANCH  72  74
ENDBRANCH  70  71
ENDBRANCH   1  69
TORSDOF 17
ENDMDL
MODEL 9
REMARK VINA RESULT:    -5.941      4.991      9.300
REMARK INTER + INTRA:         -24.638
REMARK INTER:                 -16.006
REMARK INTRA:                  -8.632
REMARK UNBOUND:                -6.889
REMARK SMILES C=C1C(=O)N[C@H](C)C(=O)N[C@@H](CC(C)C)C(=O)N[C@@H](C(=O)O)[C@H](C)C(=O)N[C@@H](CCCN=C(N)N)C(=O)N[C@@H](/C=C/C(C)=C/[C@H](C)[C@H](Cc2ccccc2)OC)[C@H](C)C(=O)N[C@@H](C(=O)O)CCC(=O)N1C
REMARK SMILES IDX 39 1 38 2 37 3 36 4 28 6 27 7 25 8 26 9 23 11 24 12 19 13
REMARK SMILES IDX 18 14 16 15 17 16 11 18 10 19 8 20 9 21 12 24 13 25 14 26
REMARK SMILES IDX 15 27 20 28 21 29 22 30 29 32 30 33 31 34 32 35 33 36 34 37
REMARK SMILES IDX 35 38 57 43 58 44 59 45 60 46 61 47 62 49 66 50 67 51 68 52
REMARK SMILES IDX 69 53 70 54 71 55 2 56 1 57 3 58 4 59 5 60 6 62 7 63 63 65
REMARK SMILES IDX 64 66 65 67 40 69 41 70 42 71 44 72 43 73 45 74 46 75 47 76
REMARK SMILES IDX 55 77 56 78 48 79 49 80 50 81 54 82 51 83 53 84 52 85
REMARK H PARENT 38 5 27 10 18 17 10 22 22 31 34 39 34 40 35 41 35 42 61 48
REMARK H PARENT 5 61 65 68
REMARK Flexibility Score:  369.900
ROOT
ATOM      1  C   UNL     1      -8.542  11.418   3.973  1.00  0.00     0.117 C 
ENDROOT
BRANCH   1   2
ATOM      2  N   UNL     1      -8.909  12.696   4.583  1.00  0.00    -0.347 N 
ATOM      3  O   UNL     1     -10.015  11.862   6.414  1.00  0.00    -0.273 OA
ATOM      4  C   UNL     1      -9.539  12.816   5.806  1.00  0.00     0.243 C 
ATOM      5  H   UNL     1      -8.653  13.556   4.122  1.00  0.00     0.164 HD
BRANCH   4   6
ATOM      6  C   UNL     1      -9.738  14.283   6.264  1.00  0.00     0.171 C 
BRANCH   6   7
ATOM      7  N   UNL     1     -11.171  14.599   6.373  1.00  0.00    -0.344 N 
ATOM      8  C   UNL     1     -11.694  15.714   5.756  1.00  0.00     0.226 C 
ATOM      9  O   UNL     1     -11.005  16.498   5.115  1.00  0.00    -0.275 OA
ATOM     10  H   UNL     1     -11.760  14.011   6.950  1.00  0.00     0.164 HD
BRANCH   8  11
ATOM     11  C   UNL     1     -13.196  15.871   5.916  1.00  0.00     0.109 C 
ATOM     12  C   UNL     1     -13.574  17.353   5.901  1.00  0.00     0.021 C 
BRANCH  11  13
ATOM     13  C   UNL     1     -13.926  15.005   4.871  1.00  0.00     0.204 C 
BRANCH  13  14
ATOM     14  N   UNL     1     -14.045  13.608   5.298  1.00  0.00    -0.340 N 
ATOM     15  C   UNL     1     -13.612  12.550   4.529  1.00  0.00     0.243 C 
ATOM     16  O   UNL     1     -13.037  12.708   3.453  1.00  0.00    -0.273 OA
ATOM     17  H   UNL     1     -14.643  13.401   6.103  1.00  0.00     0.164 HD
BRANCH  15  18
ATOM     18  C   UNL     1     -14.028  11.167   5.086  1.00  0.00     0.171 C 
BRANCH  18  19
ATOM     19  N   UNL     1     -15.444  11.266   5.437  1.00  0.00    -0.343 N 
ATOM     20  C   UNL     1     -15.946  10.725   6.605  1.00  0.00     0.242 CG0
ATOM     21  O   UNL     1     -15.253  10.021   7.337  1.00  0.00    -0.273 OA
ATOM     22  H   UNL     1     -16.081  11.740   4.806  1.00  0.00     0.164 HD
ATOM     23  G   UNL     1     -17.445  10.998   6.840  1.00  0.00     0.000 G0
ENDBRANCH  18  19
BRANCH  18  24
ATOM     24  C   UNL     1     -13.783  10.067   4.046  1.00  0.00     0.038 C 
BRANCH  24  25
ATOM     25  C   UNL     1     -12.554   9.177   4.328  1.00  0.00    -0.015 C 
ATOM     26  C   UNL     1     -12.785   7.718   3.932  1.00  0.00     0.007 C 
ATOM     27  C   UNL     1     -12.191   9.255   5.814  1.00  0.00     0.007 C 
ENDBRANCH  24  25
ENDBRANCH  18  24
ENDBRANCH  15  18
ENDBRANCH  13  14
BRANCH  13  28
ATOM     28  C   UNL     1     -15.339  15.505   4.553  1.00  0.00     0.327 C 
ATOM     29  O   UNL     1     -15.651  16.263   3.648  1.00  0.00    -0.250 OA
BRANCH  28  30
ATOM     30  O   UNL     1     -16.254  15.116   5.464  1.00  0.00    -0.480 OA
ATOM     31  H   UNL     1     -15.870  14.307   5.862  1.00  0.00     0.296 HD
ENDBRANCH  28  30
ENDBRANCH  13  28
ENDBRANCH  11  13
ENDBRANCH   8  11
ENDBRANCH   6   7
BRANCH   6  32
ATOM     32  C   UNL     1      -9.027  14.492   7.606  1.00  0.00     0.037 C 
BRANCH  32  33
ATOM     33  C   UNL     1      -9.966  15.070   8.675  1.00  0.00     0.026 C 
BRANCH  33  34
ATOM     34  C   UNL     1     -10.405  14.020   9.696  1.00  0.00     0.146 C 
BRANCH  34  35
ATOM     35  N   UNL     1     -11.657  13.425   9.250  1.00  0.00    -0.254 NA
ATOM     36  C   UNL     1     -11.707  12.156   9.077  1.00  0.00     0.185 C 
ATOM     37  N   UNL     1     -12.857  11.597   8.671  1.00  0.00    -0.370 N 
ATOM     38  N   UNL     1     -10.737  11.242   9.248  1.00  0.00    -0.370 N 
ATOM     39  H   UNL     1     -13.641  12.221   8.529  1.00  0.00     0.159 HD
ATOM     40  H   UNL     1     -13.027  10.606   8.680  1.00  0.00     0.159 HD
ATOM     41  H   UNL     1     -10.859  10.289   8.945  1.00  0.00     0.159 HD
ATOM     42  H   UNL     1      -9.812  11.522   9.537  1.00  0.00     0.159 HD
ENDBRANCH  34  35
ENDBRANCH  33  34
ENDBRANCH  32  33
ENDBRANCH   6  32
ENDBRANCH   4   6
ENDBRANCH   1   2
BRANCH   1  43
ATOM     43  C   UNL     1      -7.058  11.499   3.510  1.00  0.00     0.102 C 
ATOM     44  C   UNL     1      -6.622  10.307   2.642  1.00  0.00     0.020 C 
BRANCH  43  45
ATOM     45  C   UNL     1      -6.127  11.778   4.694  1.00  0.00     0.225 C 
ATOM     46  O   UNL     1      -6.335  11.350   5.826  1.00  0.00    -0.275 OA
ATOM     47  N   UNL     1      -5.076  12.627   4.434  1.00  0.00    -0.342 N 
ATOM     48  H   UNL     1      -4.833  12.844   3.478  1.00  0.00     0.164 HD
BRANCH  47  49
ATOM     49  C   UNL     1      -4.084  12.955   5.463  1.00  0.00     0.192 C 
BRANCH  49  50
ATOM     50  C   UNL     1      -3.655  14.417   5.315  1.00  0.00     0.047 C 
BRANCH  50  51
ATOM     51  C   UNL     1      -4.248  15.074   4.060  1.00  0.00     0.103 C 
BRANCH  51  52
ATOM     52  C   UNL     1      -3.335  14.917   2.846  1.00  0.00     0.226 C 
ATOM     53  O   UNL     1      -3.409  13.900   2.154  1.00  0.00    -0.275 OA
BRANCH  52  54
ATOM     54  N   UNL     1      -2.499  16.009   2.545  1.00  0.00    -0.311 N 
ATOM     55  C   UNL     1      -2.789  17.350   3.069  1.00  0.00     0.153 C 
BRANCH  54  56
ATOM     56  C   UNL     1      -1.357  15.857   1.741  1.00  0.00     0.102 C 
ATOM     57  C   UNL     1      -1.260  16.253   0.461  1.00  0.00     0.043 C 
BRANCH  56  58
ATOM     58  C   UNL     1      -0.091  15.251   2.299  1.00  0.00     0.268 C 
ATOM     59  O   UNL     1      -0.055  14.152   2.837  1.00  0.00    -0.268 OA
ATOM     60  N   UNL     1       1.021  16.028   2.081  1.00  0.00    -0.339 N 
ATOM     61  H   UNL     1       0.906  16.931   1.637  1.00  0.00     0.164 HD
BRANCH  60  62
ATOM     62  C   UNL     1       2.361  15.601   2.485  1.00  0.00     0.168 CG0
ATOM     63  C   UNL     1       2.461  15.474   4.000  1.00  0.00     0.041 C 
ATOM     64  G   UNL     1       3.405  16.603   1.951  1.00  0.00     0.000 G0
ENDBRANCH  60  62
ENDBRANCH  56  58
ENDBRANCH  54  56
ENDBRANCH  52  54
ENDBRANCH  51  52
ENDBRANCH  50  51
ENDBRANCH  49  50
BRANCH  49  65
ATOM     65  C   UNL     1      -2.846  12.050   5.366  1.00  0.00     0.326 C 
ATOM     66  O   UNL     1      -2.683  11.002   5.975  1.00  0.00    -0.250 OA
BRANCH  65  67
ATOM     67  O   UNL     1      -1.862  12.523   4.571  1.00  0.00    -0.480 OA
ATOM     68  H   UNL     1      -1.290  11.740   4.419  1.00  0.00     0.296 HD
ENDBRANCH  65  67
ENDBRANCH  49  65
ENDBRANCH  47  49
ENDBRANCH  43  45
ENDBRANCH   1  43
BRANCH   1  69
ATOM     69  C   UNL     1      -9.615  11.115   2.943  1.00  0.00    -0.001 C 
ATOM     70  C   UNL     1     -10.015  11.898   1.925  1.00  0.00     0.001 C 
BRANCH  70  71
ATOM     71  C   UNL     1     -11.038  11.585   0.925  1.00  0.00    -0.055 C 
ATOM     72  C   UNL     1     -11.330  10.285   0.711  1.00  0.00    -0.018 C 
ATOM     73  C   UNL     1     -11.697  12.737   0.211  1.00  0.00     0.044 C 
BRANCH  72  74
ATOM     74  C   UNL     1     -12.336   9.670  -0.251  1.00  0.00     0.038 C 
ATOM     75  C   UNL     1     -13.477   9.093   0.596  1.00  0.00     0.015 C 
BRANCH  74  76
ATOM     76  C   UNL     1     -11.601   8.632  -1.149  1.00  0.00     0.128 C 
BRANCH  76  77
ATOM     77  O   UNL     1     -12.296   7.374  -1.117  1.00  0.00    -0.381 OA
ATOM     78  C   UNL     1     -12.667   6.894  -2.402  1.00  0.00     0.195 C 
ENDBRANCH  76  77
BRANCH  76  79
ATOM     79  C   UNL     1     -11.328   9.130  -2.591  1.00  0.00     0.068 C 
BRANCH  79  80
ATOM     80  C   UNL     1     -10.822  10.541  -2.768  1.00  0.00    -0.045 A 
ATOM     81  C   UNL     1     -11.661  11.553  -3.253  1.00  0.00     0.004 A 
ATOM     82  C   UNL     1      -9.487  10.856  -2.474  1.00  0.00     0.004 A 
ATOM     83  C   UNL     1     -11.181  12.853  -3.428  1.00  0.00     0.000 A 
ATOM     84  C   UNL     1      -9.008  12.156  -2.650  1.00  0.00     0.000 A 
ATOM     85  C   UNL     1      -9.855  13.154  -3.125  1.00  0.00     0.000 A 
ENDBRANCH  79  80
ENDBRANCH  76  79
ENDBRANCH  74  76
ENDBRANCH  72  74
ENDBRANCH  70  71
ENDBRANCH   1  69
TORSDOF 17
ENDMDL
MODEL 10
REMARK VINA RESULT:    -5.887     12.495     16.048
REMARK INTER + INTRA:         -24.479
REMARK INTER:                 -16.852
REMARK INTRA:                  -7.626
REMARK UNBOUND:                -6.889
REMARK SMILES C=C1C(=O)N[C@H](C)C(=O)N[C@@H](CC(C)C)C(=O)N[C@@H](C(=O)O)[C@H](C)C(=O)N[C@@H](CCCN=C(N)N)C(=O)N[C@@H](/C=C/C(C)=C/[C@H](C)[C@H](Cc2ccccc2)OC)[C@H](C)C(=O)N[C@@H](C(=O)O)CCC(=O)N1C
REMARK SMILES IDX 39 1 38 2 37 3 36 4 28 6 27 7 25 8 26 9 23 11 24 12 19 13
REMARK SMILES IDX 18 14 16 15 17 16 11 18 10 19 8 20 9 21 12 24 13 25 14 26
REMARK SMILES IDX 15 27 20 28 21 29 22 30 29 32 30 33 31 34 32 35 33 36 34 37
REMARK SMILES IDX 35 38 57 43 58 44 59 45 60 46 61 47 62 49 66 50 67 51 68 52
REMARK SMILES IDX 69 53 70 54 71 55 2 56 1 57 3 58 4 59 5 60 6 62 7 63 63 65
REMARK SMILES IDX 64 66 65 67 40 69 41 70 42 71 44 72 43 73 45 74 46 75 47 76
REMARK SMILES IDX 55 77 56 78 48 79 49 80 50 81 54 82 51 83 53 84 52 85
REMARK H PARENT 38 5 27 10 18 17 10 22 22 31 34 39 34 40 35 41 35 42 61 48
REMARK H PARENT 5 61 65 68
REMARK Flexibility Score:  369.900
ROOT
ATOM      1  C   UNL     1       2.525   4.461   7.317  1.00  0.00     0.117 C 
ENDROOT
BRANCH   1   2
ATOM      2  N   UNL     1       1.305   5.243   7.524  1.00  0.00    -0.347 N 
ATOM      3  O   UNL     1      -0.085   3.508   8.100  1.00  0.00    -0.273 OA
ATOM      4  C   UNL     1       0.117   4.713   7.989  1.00  0.00     0.243 C 
ATOM      5  H   UNL     1       1.324   6.240   7.370  1.00  0.00     0.164 HD
BRANCH   4   6
ATOM      6  C   UNL     1      -0.996   5.771   8.201  1.00  0.00     0.171 C 
BRANCH   6   7
ATOM      7  N   UNL     1      -2.062   5.231   9.061  1.00  0.00    -0.344 N 
ATOM      8  C   UNL     1      -3.197   4.678   8.509  1.00  0.00     0.226 C 
ATOM      9  O   UNL     1      -3.386   4.627   7.300  1.00  0.00    -0.275 OA
ATOM     10  H   UNL     1      -1.972   5.316  10.066  1.00  0.00     0.164 HD
BRANCH   8  11
ATOM     11  C   UNL     1      -4.176   4.116   9.525  1.00  0.00     0.109 C 
ATOM     12  C   UNL     1      -4.780   5.249  10.356  1.00  0.00     0.021 C 
BRANCH  11  13
ATOM     13  C   UNL     1      -5.205   3.214   8.814  1.00  0.00     0.204 C 
BRANCH  13  14
ATOM     14  N   UNL     1      -4.563   2.123   8.074  1.00  0.00    -0.340 N 
ATOM     15  C   UNL     1      -5.102   1.577   6.930  1.00  0.00     0.243 C 
ATOM     16  O   UNL     1      -6.131   2.009   6.413  1.00  0.00    -0.273 OA
ATOM     17  H   UNL     1      -3.795   1.622   8.528  1.00  0.00     0.164 HD
BRANCH  15  18
ATOM     18  C   UNL     1      -4.363   0.306   6.443  1.00  0.00     0.171 C 
BRANCH  18  19
ATOM     19  N   UNL     1      -5.333  -0.786   6.489  1.00  0.00    -0.343 N 
ATOM     20  C   UNL     1      -5.402  -1.654   7.562  1.00  0.00     0.242 CG0
ATOM     21  O   UNL     1      -4.567  -1.630   8.463  1.00  0.00    -0.273 OA
ATOM     22  H   UNL     1      -5.971  -0.919   5.713  1.00  0.00     0.164 HD
ATOM     23  G   UNL     1      -6.539  -2.692   7.469  1.00  0.00     0.000 G0
ENDBRANCH  18  19
BRANCH  18  24
ATOM     24  C   UNL     1      -3.813   0.510   5.025  1.00  0.00     0.038 C 
BRANCH  24  25
ATOM     25  C   UNL     1      -2.959   1.782   4.842  1.00  0.00    -0.015 C 
ATOM     26  C   UNL     1      -3.612   2.793   3.899  1.00  0.00     0.007 C 
ATOM     27  C   UNL     1      -1.575   1.401   4.310  1.00  0.00     0.007 C 
ENDBRANCH  24  25
ENDBRANCH  18  24
ENDBRANCH  15  18
ENDBRANCH  13  14
BRANCH  13  28
ATOM     28  C   UNL     1      -6.215   2.578   9.774  1.00  0.00     0.327 C 
ATOM     29  O   UNL     1      -7.431   2.684   9.718  1.00  0.00    -0.250 OA
BRANCH  28  30
ATOM     30  O   UNL     1      -5.632   1.948  10.814  1.00  0.00    -0.480 OA
ATOM     31  H   UNL     1      -5.356   2.674  11.412  1.00  0.00     0.296 HD
ENDBRANCH  28  30
ENDBRANCH  13  28
ENDBRANCH  11  13
ENDBRANCH   8  11
ENDBRANCH   6   7
BRANCH   6  32
ATOM     32  C   UNL     1      -0.381   7.032   8.819  1.00  0.00     0.037 C 
BRANCH  32  33
ATOM     33  C   UNL     1      -1.422   8.139   9.033  1.00  0.00     0.026 C 
BRANCH  33  34
ATOM     34  C   UNL     1      -1.167   9.361   8.151  1.00  0.00     0.146 C 
BRANCH  34  35
ATOM     35  N   UNL     1      -0.238   8.991   7.093  1.00  0.00    -0.254 NA
ATOM     36  C   UNL     1       0.318   9.922   6.410  1.00  0.00     0.185 C 
ATOM     37  N   UNL     1       1.180   9.592   5.435  1.00  0.00    -0.370 N 
ATOM     38  N   UNL     1       0.169  11.254   6.519  1.00  0.00    -0.370 N 
ATOM     39  H   UNL     1       1.354   8.604   5.298  1.00  0.00     0.159 HD
ATOM     40  H   UNL     1       1.782  10.254   4.978  1.00  0.00     0.159 HD
ATOM     41  H   UNL     1       0.555  11.879   5.830  1.00  0.00     0.159 HD
ATOM     42  H   UNL     1      -0.462  11.645   7.201  1.00  0.00     0.159 HD
ENDBRANCH  34  35
ENDBRANCH  33  34
ENDBRANCH  32  33
ENDBRANCH   6  32
ENDBRANCH   4   6
ENDBRANCH   1   2
BRANCH   1  43
ATOM     43  C   UNL     1       3.752   5.387   7.555  1.00  0.00     0.102 C 
ATOM     44  C   UNL     1       4.226   5.412   9.018  1.00  0.00     0.020 C 
BRANCH  43  45
ATOM     45  C   UNL     1       3.518   6.776   6.954  1.00  0.00     0.225 C 
ATOM     46  O   UNL     1       2.728   6.987   6.038  1.00  0.00    -0.275 OA
ATOM     47  N   UNL     1       4.325   7.777   7.444  1.00  0.00    -0.342 N 
ATOM     48  H   UNL     1       4.854   7.624   8.291  1.00  0.00     0.164 HD
BRANCH  47  49
ATOM     49  C   UNL     1       4.189   9.164   6.988  1.00  0.00     0.192 C 
BRANCH  49  50
ATOM     50  C   UNL     1       5.540   9.674   6.481  1.00  0.00     0.047 C 
BRANCH  50  51
ATOM     51  C   UNL     1       6.527   8.531   6.205  1.00  0.00     0.103 C 
BRANCH  51  52
ATOM     52  C   UNL     1       6.966   8.493   4.743  1.00  0.00     0.226 C 
ATOM     53  O   UNL     1       8.140   8.730   4.451  1.00  0.00    -0.275 OA
BRANCH  52  54
ATOM     54  N   UNL     1       5.990   8.105   3.806  1.00  0.00    -0.311 N 
ATOM     55  C   UNL     1       5.482   6.727   3.769  1.00  0.00     0.153 C 
BRANCH  54  56
ATOM     56  C   UNL     1       5.462   9.018   2.878  1.00  0.00     0.102 C 
ATOM     57  C   UNL     1       4.169   9.372   2.799  1.00  0.00     0.043 C 
BRANCH  56  58
ATOM     58  C   UNL     1       6.360   9.729   1.893  1.00  0.00     0.268 C 
ATOM     59  O   UNL     1       6.255  10.920   1.630  1.00  0.00    -0.268 OA
ATOM     60  N   UNL     1       7.343   8.920   1.377  1.00  0.00    -0.339 N 
ATOM     61  H   UNL     1       7.356   7.941   1.638  1.00  0.00     0.164 HD
BRANCH  60  62
ATOM     62  C   UNL     1       8.360   9.421   0.453  1.00  0.00     0.168 CG0
ATOM     63  C   UNL     1       8.932   8.292  -0.395  1.00  0.00     0.041 C 
ATOM     64  G   UNL     1       9.477  10.128   1.247  1.00  0.00     0.000 G0
ENDBRANCH  60  62
ENDBRANCH  56  58
ENDBRANCH  54  56
ENDBRANCH  52  54
ENDBRANCH  51  52
ENDBRANCH  50  51
ENDBRANCH  49  50
BRANCH  49  65
ATOM     65  C   UNL     1       3.686  10.084   8.112  1.00  0.00     0.326 C 
ATOM     66  O   UNL     1       2.885  10.997   7.978  1.00  0.00    -0.250 OA
BRANCH  65  67
ATOM     67  O   UNL     1       4.250   9.859   9.319  1.00  0.00    -0.480 OA
ATOM     68  H   UNL     1       5.207   9.779   9.116  1.00  0.00     0.296 HD
ENDBRANCH  65  67
ENDBRANCH  49  65
ENDBRANCH  47  49
ENDBRANCH  43  45
ENDBRANCH   1  43
BRANCH   1  69
ATOM     69  C   UNL     1       2.369   3.781   5.969  1.00  0.00    -0.001 C 
ATOM     70  C   UNL     1       3.348   3.341   5.159  1.00  0.00     0.001 C 
BRANCH  70  71
ATOM     71  C   UNL     1       3.185   2.666   3.869  1.00  0.00    -0.055 C 
ATOM     72  C   UNL     1       4.213   2.722   2.997  1.00  0.00    -0.018 C 
ATOM     73  C   UNL     1       1.885   1.950   3.611  1.00  0.00     0.044 C 
BRANCH  72  74
ATOM     74  C   UNL     1       4.329   2.121   1.604  1.00  0.00     0.038 C 
ATOM     75  C   UNL     1       5.184   0.854   1.727  1.00  0.00     0.015 C 
BRANCH  74  76
ATOM     76  C   UNL     1       4.897   3.202   0.637  1.00  0.00     0.128 C 
BRANCH  76  77
ATOM     77  O   UNL     1       5.183   2.613  -0.643  1.00  0.00    -0.381 OA
ATOM     78  C   UNL     1       5.138   3.540  -1.720  1.00  0.00     0.195 C 
ENDBRANCH  76  77
BRANCH  76  79
ATOM     79  C   UNL     1       4.020   4.474   0.530  1.00  0.00     0.068 C 
BRANCH  79  80
ATOM     80  C   UNL     1       2.533   4.328   0.744  1.00  0.00    -0.045 A 
ATOM     81  C   UNL     1       1.805   3.325   0.091  1.00  0.00     0.004 A 
ATOM     82  C   UNL     1       1.849   5.219   1.585  1.00  0.00     0.004 A 
ATOM     83  C   UNL     1       0.427   3.205   0.284  1.00  0.00     0.000 A 
ATOM     84  C   UNL     1       0.470   5.099   1.776  1.00  0.00     0.000 A 
ATOM     85  C   UNL     1      -0.240   4.092   1.127  1.00  0.00     0.000 A 
ENDBRANCH  79  80
ENDBRANCH  76  79
ENDBRANCH  74  76
ENDBRANCH  72  74
ENDBRANCH  70  71
ENDBRANCH   1  69
TORSDOF 17
ENDMDL
