MODEL 1
REMARK VINA RESULT:    -7.214      0.000      0.000
REMARK INTER + INTRA:         -21.728
REMARK INTER:                 -17.967
REMARK INTRA:                  -3.761
REMARK UNBOUND:                -3.761
REMARK SMILES CCCCCCC[C@H](N)[C@H](O)C(=O)N[C@H](C)C(=O)N(C)[C@H](CC(C)C)C(=O)N[C@@H](Cc1ccc(O)cc1)C(=O)N[C@@H](Cc1ccc(O)cc1)C(=O)O
REMARK SMILES IDX 18 1 17 2 15 3 16 4 14 5 12 6 13 7 10 9 11 10 8 12 9 13 7 16
REMARK SMILES IDX 6 17 5 18 4 19 3 20 2 21 1 22 19 23 20 24 21 25 22 26 23 27
REMARK SMILES IDX 24 28 25 29 26 30 27 31 28 32 29 34 30 35 31 36 32 37 37 38
REMARK SMILES IDX 33 39 36 40 34 41 35 42 38 44 39 45 40 46 41 48 42 49 43 50
REMARK SMILES IDX 44 51 49 52 45 53 48 54 46 55 47 56 50 58 51 59 52 60
REMARK H PARENT 14 8 11 11 9 14 9 15 28 33 35 43 40 47 47 57 52 61
ROOT
ATOM      1  O   UNL     1      -7.566   5.301  -2.030  1.00  0.00    -0.272 OA
ATOM      2  C   UNL     1      -6.659   4.518  -2.349  1.00  0.00     0.245 C 
ENDROOT
BRANCH   2   3
ATOM      3  C   UNL     1      -5.224   4.797  -1.837  1.00  0.00     0.168 C 
ATOM      4  C   UNL     1      -5.099   4.448  -0.358  1.00  0.00     0.041 C 
BRANCH   3   5
ATOM      5  N   UNL     1      -4.164   4.193  -2.629  1.00  0.00    -0.342 N 
ATOM      6  C   UNL     1      -2.995   4.865  -2.915  1.00  0.00     0.251 C 
ATOM      7  O   UNL     1      -2.777   6.021  -2.567  1.00  0.00    -0.272 OA
ATOM      8  H   UNL     1      -4.245   3.250  -3.003  1.00  0.00     0.164 HD
BRANCH   6   9
ATOM      9  C   UNL     1      -1.964   3.984  -3.640  1.00  0.00     0.219 C 
BRANCH   9  10
ATOM     10  O   UNL     1      -2.456   2.666  -3.909  1.00  0.00    -0.382 OA
ATOM     11  H   UNL     1      -2.751   2.716  -4.845  1.00  0.00     0.211 HD
ENDBRANCH   9  10
BRANCH   9  12
ATOM     12  C   UNL     1      -1.405   4.638  -4.930  1.00  0.00     0.089 C 
BRANCH  12  13
ATOM     13  N   UNL     1      -0.311   5.561  -4.551  1.00  0.00    -0.325 NA
ATOM     14  H   UNL     1       0.522   5.016  -4.318  1.00  0.00     0.119 HD
ATOM     15  H   UNL     1      -0.568   6.040  -3.684  1.00  0.00     0.119 HD
ENDBRANCH  12  13
BRANCH  12  16
ATOM     16  C   UNL     1      -0.920   3.662  -6.029  1.00  0.00     0.022 C 
BRANCH  16  17
ATOM     17  C   UNL     1      -0.256   4.228  -7.291  1.00  0.00     0.002 C 
BRANCH  17  18
ATOM     18  C   UNL     1      -1.223   4.783  -8.335  1.00  0.00     0.000 C 
BRANCH  18  19
ATOM     19  C   UNL     1      -0.761   4.583  -9.784  1.00  0.00    -0.000 C 
BRANCH  19  20
ATOM     20  C   UNL     1      -0.926   5.804 -10.693  1.00  0.00    -0.000 C 
BRANCH  20  21
ATOM     21  C   UNL     1      -0.920   5.448 -12.182  1.00  0.00    -0.003 C 
ATOM     22  C   UNL     1      -0.174   4.148 -12.439  1.00  0.00     0.004 C 
ENDBRANCH  20  21
ENDBRANCH  19  20
ENDBRANCH  18  19
ENDBRANCH  17  18
ENDBRANCH  16  17
ENDBRANCH  12  16
ENDBRANCH   9  12
ENDBRANCH   6   9
ENDBRANCH   3   5
ENDBRANCH   2   3
BRANCH   2  23
ATOM     23  N   UNL     1      -6.960   3.353  -3.047  1.00  0.00    -0.332 N 
ATOM     24  C   UNL     1      -7.309   2.084  -2.424  1.00  0.00     0.147 C 
BRANCH  23  25
ATOM     25  C   UNL     1      -7.068   3.373  -4.531  1.00  0.00     0.174 C 
BRANCH  25  26
ATOM     26  C   UNL     1      -8.515   3.158  -5.033  1.00  0.00     0.038 C 
BRANCH  26  27
ATOM     27  C   UNL     1      -9.571   4.196  -4.589  1.00  0.00    -0.015 C 
ATOM     28  C   UNL     1      -9.240   5.608  -5.070  1.00  0.00     0.007 C 
ATOM     29  C   UNL     1     -10.997   3.816  -4.980  1.00  0.00     0.007 C 
ENDBRANCH  26  27
ENDBRANCH  25  26
BRANCH  25  30
ATOM     30  C   UNL     1      -6.044   2.396  -5.153  1.00  0.00     0.243 C 
ATOM     31  O   UNL     1      -5.092   1.956  -4.509  1.00  0.00    -0.273 OA
ATOM     32  N   UNL     1      -6.263   2.061  -6.464  1.00  0.00    -0.342 N 
ATOM     33  H   UNL     1      -7.149   2.353  -6.886  1.00  0.00     0.164 HD
BRANCH  32  34
ATOM     34  C   UNL     1      -5.381   1.170  -7.223  1.00  0.00     0.175 C 
BRANCH  34  35
ATOM     35  C   UNL     1      -3.919   1.318  -6.776  1.00  0.00     0.070 C 
BRANCH  35  36
ATOM     36  C   UNL     1      -2.941   0.731  -7.768  1.00  0.00    -0.045 A 
ATOM     37  C   UNL     1      -2.614   1.439  -8.935  1.00  0.00     0.007 A 
ATOM     38  C   UNL     1      -2.368  -0.529  -7.553  1.00  0.00     0.007 A 
ATOM     39  C   UNL     1      -1.724   0.899  -9.863  1.00  0.00     0.046 A 
ATOM     40  C   UNL     1      -1.478  -1.072  -8.483  1.00  0.00     0.046 A 
ATOM     41  C   UNL     1      -1.163  -0.350  -9.630  1.00  0.00     0.115 A 
BRANCH  41  42
ATOM     42  O   UNL     1      -0.300  -0.844 -10.564  1.00  0.00    -0.508 OA
ATOM     43  H   UNL     1       0.390  -0.178 -10.723  1.00  0.00     0.293 HD
ENDBRANCH  41  42
ENDBRANCH  35  36
ENDBRANCH  34  35
BRANCH  34  44
ATOM     44  C   UNL     1      -5.895  -0.277  -7.046  1.00  0.00     0.243 C 
ATOM     45  O   UNL     1      -5.625  -0.997  -6.089  1.00  0.00    -0.273 OA
ATOM     46  N   UNL     1      -6.592  -0.748  -8.138  1.00  0.00    -0.341 N 
ATOM     47  H   UNL     1      -6.690  -0.153  -8.957  1.00  0.00     0.164 HD
BRANCH  46  48
ATOM     48  C   UNL     1      -7.118  -2.112  -8.231  1.00  0.00     0.196 C 
BRANCH  48  49
ATOM     49  C   UNL     1      -8.655  -2.122  -8.219  1.00  0.00     0.072 C 
BRANCH  49  50
ATOM     50  C   UNL     1      -9.223  -3.088  -7.204  1.00  0.00    -0.045 A 
ATOM     51  C   UNL     1     -10.571  -2.993  -6.826  1.00  0.00     0.007 A 
ATOM     52  C   UNL     1      -8.417  -4.070  -6.614  1.00  0.00     0.007 A 
ATOM     53  C   UNL     1     -11.102  -3.870  -5.881  1.00  0.00     0.046 A 
ATOM     54  C   UNL     1      -8.949  -4.947  -5.666  1.00  0.00     0.046 A 
ATOM     55  C   UNL     1     -10.289  -4.840  -5.309  1.00  0.00     0.115 A 
BRANCH  55  56
ATOM     56  O   UNL     1     -10.846  -5.676  -4.387  1.00  0.00    -0.508 OA
ATOM     57  H   UNL     1     -10.308  -5.646  -3.581  1.00  0.00     0.293 HD
ENDBRANCH  55  56
ENDBRANCH  49  50
ENDBRANCH  48  49
BRANCH  48  58
ATOM     58  C   UNL     1      -6.609  -2.756  -9.528  1.00  0.00     0.326 C 
ATOM     59  O   UNL     1      -7.168  -3.608 -10.200  1.00  0.00    -0.250 OA
BRANCH  58  60
ATOM     60  O   UNL     1      -5.405  -2.278  -9.934  1.00  0.00    -0.480 OA
ATOM     61  H   UNL     1      -5.181  -1.617  -9.244  1.00  0.00     0.296 HD
ENDBRANCH  58  60
ENDBRANCH  48  58
ENDBRANCH  46  48
ENDBRANCH  34  44
ENDBRANCH  32  34
ENDBRANCH  25  30
ENDBRANCH  23  25
ENDBRANCH   2  23
TORSDOF 28
ENDMDL
MODEL 2
REMARK VINA RESULT:    -7.147      1.606      2.004
REMARK INTER + INTRA:         -21.562
REMARK INTER:                 -17.796
REMARK INTRA:                  -3.766
REMARK UNBOUND:                -3.761
REMARK SMILES CCCCCCC[C@H](N)[C@H](O)C(=O)N[C@H](C)C(=O)N(C)[C@H](CC(C)C)C(=O)N[C@@H](Cc1ccc(O)cc1)C(=O)N[C@@H](Cc1ccc(O)cc1)C(=O)O
REMARK SMILES IDX 18 1 17 2 15 3 16 4 14 5 12 6 13 7 10 9 11 10 8 12 9 13 7 16
REMARK SMILES IDX 6 17 5 18 4 19 3 20 2 21 1 22 19 23 20 24 21 25 22 26 23 27
REMARK SMILES IDX 24 28 25 29 26 30 27 31 28 32 29 34 30 35 31 36 32 37 37 38
REMARK SMILES IDX 33 39 36 40 34 41 35 42 38 44 39 45 40 46 41 48 42 49 43 50
REMARK SMILES IDX 44 51 49 52 45 53 48 54 46 55 47 56 50 58 51 59 52 60
REMARK H PARENT 14 8 11 11 9 14 9 15 28 33 35 43 40 47 47 57 52 61
ROOT
ATOM      1  O   UNL     1      -7.363   6.320  -4.497  1.00  0.00    -0.272 OA
ATOM      2  C   UNL     1      -6.861   5.285  -4.033  1.00  0.00     0.245 C 
ENDROOT
BRANCH   2   3
ATOM      3  C   UNL     1      -5.617   5.410  -3.119  1.00  0.00     0.168 C 
ATOM      4  C   UNL     1      -6.001   5.226  -1.654  1.00  0.00     0.041 C 
BRANCH   3   5
ATOM      5  N   UNL     1      -4.495   4.564  -3.495  1.00  0.00    -0.342 N 
ATOM      6  C   UNL     1      -3.190   4.930  -3.240  1.00  0.00     0.251 C 
ATOM      7  O   UNL     1      -2.876   5.997  -2.722  1.00  0.00    -0.272 OA
ATOM      8  H   UNL     1      -4.630   3.670  -3.962  1.00  0.00     0.164 HD
BRANCH   6   9
ATOM      9  C   UNL     1      -2.183   3.824  -3.593  1.00  0.00     0.219 C 
BRANCH   9  10
ATOM     10  O   UNL     1      -2.815   2.566  -3.862  1.00  0.00    -0.382 OA
ATOM     11  H   UNL     1      -3.722   2.683  -3.504  1.00  0.00     0.211 HD
ENDBRANCH   9  10
BRANCH   9  12
ATOM     12  C   UNL     1      -1.226   4.218  -4.748  1.00  0.00     0.089 C 
BRANCH  12  13
ATOM     13  N   UNL     1       0.155   3.856  -4.355  1.00  0.00    -0.325 NA
ATOM     14  H   UNL     1       0.473   4.492  -3.622  1.00  0.00     0.119 HD
ATOM     15  H   UNL     1       0.780   4.027  -5.147  1.00  0.00     0.119 HD
ENDBRANCH  12  13
BRANCH  12  16
ATOM     16  C   UNL     1      -1.558   3.620  -6.137  1.00  0.00     0.022 C 
BRANCH  16  17
ATOM     17  C   UNL     1      -0.518   2.733  -6.836  1.00  0.00     0.002 C 
BRANCH  17  18
ATOM     18  C   UNL     1      -0.152   3.165  -8.254  1.00  0.00     0.000 C 
BRANCH  18  19
ATOM     19  C   UNL     1      -1.280   3.896  -8.995  1.00  0.00    -0.000 C 
BRANCH  19  20
ATOM     20  C   UNL     1      -0.930   5.304  -9.485  1.00  0.00    -0.000 C 
BRANCH  20  21
ATOM     21  C   UNL     1      -0.879   5.412 -11.011  1.00  0.00    -0.003 C 
ATOM     22  C   UNL     1      -1.609   4.254 -11.674  1.00  0.00     0.004 C 
ENDBRANCH  20  21
ENDBRANCH  19  20
ENDBRANCH  18  19
ENDBRANCH  17  18
ENDBRANCH  16  17
ENDBRANCH  12  16
ENDBRANCH   9  12
ENDBRANCH   6   9
ENDBRANCH   3   5
ENDBRANCH   2   3
BRANCH   2  23
ATOM     23  N   UNL     1      -7.484   4.058  -4.237  1.00  0.00    -0.332 N 
ATOM     24  C   UNL     1      -8.214   3.323  -3.215  1.00  0.00     0.147 C 
BRANCH  23  25
ATOM     25  C   UNL     1      -7.549   3.466  -5.601  1.00  0.00     0.174 C 
BRANCH  25  26
ATOM     26  C   UNL     1      -8.959   2.947  -5.966  1.00  0.00     0.038 C 
BRANCH  26  27
ATOM     27  C   UNL     1      -9.695   3.670  -7.117  1.00  0.00    -0.015 C 
ATOM     28  C   UNL     1      -9.560   5.190  -7.034  1.00  0.00     0.007 C 
ATOM     29  C   UNL     1      -9.294   3.170  -8.503  1.00  0.00     0.007 C 
ENDBRANCH  26  27
ENDBRANCH  25  26
BRANCH  25  30
ATOM     30  C   UNL     1      -6.434   2.410  -5.775  1.00  0.00     0.243 C 
ATOM     31  O   UNL     1      -5.320   2.551  -5.273  1.00  0.00    -0.273 OA
ATOM     32  N   UNL     1      -6.767   1.314  -6.529  1.00  0.00    -0.342 N 
ATOM     33  H   UNL     1      -7.750   1.201  -6.792  1.00  0.00     0.164 HD
BRANCH  32  34
ATOM     34  C   UNL     1      -5.829   0.227  -6.822  1.00  0.00     0.175 C 
BRANCH  34  35
ATOM     35  C   UNL     1      -4.402   0.585  -6.379  1.00  0.00     0.070 C 
BRANCH  35  36
ATOM     36  C   UNL     1      -3.370   0.305  -7.448  1.00  0.00    -0.045 A 
ATOM     37  C   UNL     1      -2.263  -0.508  -7.159  1.00  0.00     0.007 A 
ATOM     38  C   UNL     1      -3.489   0.865  -8.727  1.00  0.00     0.007 A 
ATOM     39  C   UNL     1      -1.299  -0.761  -8.134  1.00  0.00     0.046 A 
ATOM     40  C   UNL     1      -2.523   0.612  -9.704  1.00  0.00     0.046 A 
ATOM     41  C   UNL     1      -1.436  -0.200  -9.398  1.00  0.00     0.115 A 
BRANCH  41  42
ATOM     42  O   UNL     1      -0.470  -0.470 -10.322  1.00  0.00    -0.508 OA
ATOM     43  H   UNL     1      -0.901  -0.819 -11.120  1.00  0.00     0.293 HD
ENDBRANCH  41  42
ENDBRANCH  35  36
ENDBRANCH  34  35
BRANCH  34  44
ATOM     44  C   UNL     1      -6.346  -1.052  -6.126  1.00  0.00     0.243 C 
ATOM     45  O   UNL     1      -6.592  -1.138  -4.926  1.00  0.00    -0.273 OA
ATOM     46  N   UNL     1      -6.387  -2.151  -6.957  1.00  0.00    -0.341 N 
ATOM     47  H   UNL     1      -6.061  -2.058  -7.916  1.00  0.00     0.164 HD
BRANCH  46  48
ATOM     48  C   UNL     1      -6.778  -3.489  -6.506  1.00  0.00     0.196 C 
BRANCH  48  49
ATOM     49  C   UNL     1      -8.293  -3.576  -6.260  1.00  0.00     0.072 C 
BRANCH  49  50
ATOM     50  C   UNL     1      -8.651  -4.569  -5.177  1.00  0.00    -0.045 A 
ATOM     51  C   UNL     1      -8.292  -4.312  -3.846  1.00  0.00     0.007 A 
ATOM     52  C   UNL     1      -9.320  -5.761  -5.485  1.00  0.00     0.007 A 
ATOM     53  C   UNL     1      -8.605  -5.227  -2.841  1.00  0.00     0.046 A 
ATOM     54  C   UNL     1      -9.633  -6.677  -4.478  1.00  0.00     0.046 A 
ATOM     55  C   UNL     1      -9.273  -6.402  -3.164  1.00  0.00     0.115 A 
BRANCH  55  56
ATOM     56  O   UNL     1      -9.558  -7.270  -2.152  1.00  0.00    -0.508 OA
ATOM     57  H   UNL     1      -9.054  -7.002  -1.367  1.00  0.00     0.293 HD
ENDBRANCH  55  56
ENDBRANCH  49  50
ENDBRANCH  48  49
BRANCH  48  58
ATOM     58  C   UNL     1      -6.369  -4.515  -7.572  1.00  0.00     0.326 C 
ATOM     59  O   UNL     1      -6.947  -4.764  -8.618  1.00  0.00    -0.250 OA
BRANCH  58  60
ATOM     60  O   UNL     1      -5.225  -5.180  -7.273  1.00  0.00    -0.480 OA
ATOM     61  H   UNL     1      -4.538  -4.679  -7.764  1.00  0.00     0.296 HD
ENDBRANCH  58  60
ENDBRANCH  48  58
ENDBRANCH  46  48
ENDBRANCH  34  44
ENDBRANCH  32  34
ENDBRANCH  25  30
ENDBRANCH  23  25
ENDBRANCH   2  23
TORSDOF 28
ENDMDL
MODEL 3
REMARK VINA RESULT:    -6.923      4.092     11.132
REMARK INTER + INTRA:         -21.005
REMARK INTER:                 -17.192
REMARK INTRA:                  -3.813
REMARK UNBOUND:                -3.761
REMARK SMILES CCCCCCC[C@H](N)[C@H](O)C(=O)N[C@H](C)C(=O)N(C)[C@H](CC(C)C)C(=O)N[C@@H](Cc1ccc(O)cc1)C(=O)N[C@@H](Cc1ccc(O)cc1)C(=O)O
REMARK SMILES IDX 18 1 17 2 15 3 16 4 14 5 12 6 13 7 10 9 11 10 8 12 9 13 7 16
REMARK SMILES IDX 6 17 5 18 4 19 3 20 2 21 1 22 19 23 20 24 21 25 22 26 23 27
REMARK SMILES IDX 24 28 25 29 26 30 27 31 28 32 29 34 30 35 31 36 32 37 37 38
REMARK SMILES IDX 33 39 36 40 34 41 35 42 38 44 39 45 40 46 41 48 42 49 43 50
REMARK SMILES IDX 44 51 49 52 45 53 48 54 46 55 47 56 50 58 51 59 52 60
REMARK H PARENT 14 8 11 11 9 14 9 15 28 33 35 43 40 47 47 57 52 61
ROOT
ATOM      1  O   UNL     1     -10.798  -3.084  -6.034  1.00  0.00    -0.272 OA
ATOM      2  C   UNL     1     -10.017  -3.519  -5.175  1.00  0.00     0.245 C 
ENDROOT
BRANCH   2   3
ATOM      3  C   UNL     1     -10.272  -4.930  -4.588  1.00  0.00     0.168 C 
ATOM      4  C   UNL     1      -9.068  -5.837  -4.816  1.00  0.00     0.041 C 
BRANCH   3   5
ATOM      5  N   UNL     1     -10.707  -4.945  -3.200  1.00  0.00    -0.342 N 
ATOM      6  C   UNL     1     -11.157  -6.097  -2.591  1.00  0.00     0.251 C 
ATOM      7  O   UNL     1     -11.265  -7.171  -3.172  1.00  0.00    -0.272 OA
ATOM      8  H   UNL     1     -10.696  -4.105  -2.626  1.00  0.00     0.164 HD
BRANCH   6   9
ATOM      9  C   UNL     1     -11.427  -5.909  -1.089  1.00  0.00     0.219 C 
BRANCH   9  10
ATOM     10  O   UNL     1     -12.483  -6.748  -0.608  1.00  0.00    -0.382 OA
ATOM     11  H   UNL     1     -13.291  -6.353  -1.004  1.00  0.00     0.211 HD
ENDBRANCH   9  10
BRANCH   9  12
ATOM     12  C   UNL     1     -10.154  -6.070  -0.218  1.00  0.00     0.089 C 
BRANCH  12  13
ATOM     13  N   UNL     1      -8.967  -5.925  -1.091  1.00  0.00    -0.325 NA
ATOM     14  H   UNL     1      -8.137  -6.239  -0.586  1.00  0.00     0.119 HD
ATOM     15  H   UNL     1      -8.809  -4.931  -1.272  1.00  0.00     0.119 HD
ENDBRANCH  12  13
BRANCH  12  16
ATOM     16  C   UNL     1     -10.039  -5.119   0.997  1.00  0.00     0.022 C 
BRANCH  16  17
ATOM     17  C   UNL     1     -10.794  -5.462   2.289  1.00  0.00     0.002 C 
BRANCH  17  18
ATOM     18  C   UNL     1     -10.135  -4.961   3.573  1.00  0.00     0.000 C 
BRANCH  18  19
ATOM     19  C   UNL     1      -8.631  -4.690   3.439  1.00  0.00    -0.000 C 
BRANCH  19  20
ATOM     20  C   UNL     1      -7.729  -5.907   3.661  1.00  0.00    -0.000 C 
BRANCH  20  21
ATOM     21  C   UNL     1      -6.856  -6.236   2.447  1.00  0.00    -0.003 C 
ATOM     22  C   UNL     1      -7.259  -7.560   1.817  1.00  0.00     0.004 C 
ENDBRANCH  20  21
ENDBRANCH  19  20
ENDBRANCH  18  19
ENDBRANCH  17  18
ENDBRANCH  16  17
ENDBRANCH  12  16
ENDBRANCH   9  12
ENDBRANCH   6   9
ENDBRANCH   3   5
ENDBRANCH   2   3
BRANCH   2  23
ATOM     23  N   UNL     1      -8.873  -2.799  -4.846  1.00  0.00    -0.332 N 
ATOM     24  C   UNL     1      -8.513  -2.393  -3.496  1.00  0.00     0.147 C 
BRANCH  23  25
ATOM     25  C   UNL     1      -7.849  -2.500  -5.885  1.00  0.00     0.174 C 
BRANCH  25  26
ATOM     26  C   UNL     1      -6.516  -3.248  -5.649  1.00  0.00     0.038 C 
BRANCH  26  27
ATOM     27  C   UNL     1      -5.840  -3.882  -6.885  1.00  0.00    -0.015 C 
ATOM     28  C   UNL     1      -4.336  -4.074  -6.695  1.00  0.00     0.007 C 
ATOM     29  C   UNL     1      -6.496  -5.185  -7.335  1.00  0.00     0.007 C 
ENDBRANCH  26  27
ENDBRANCH  25  26
BRANCH  25  30
ATOM     30  C   UNL     1      -7.684  -0.971  -6.045  1.00  0.00     0.243 C 
ATOM     31  O   UNL     1      -8.634  -0.240  -6.322  1.00  0.00    -0.273 OA
ATOM     32  N   UNL     1      -6.413  -0.490  -5.864  1.00  0.00    -0.342 N 
ATOM     33  H   UNL     1      -5.709  -1.136  -5.498  1.00  0.00     0.164 HD
BRANCH  32  34
ATOM     34  C   UNL     1      -6.065   0.927  -6.003  1.00  0.00     0.175 C 
BRANCH  34  35
ATOM     35  C   UNL     1      -5.431   1.476  -4.715  1.00  0.00     0.070 C 
BRANCH  35  36
ATOM     36  C   UNL     1      -6.389   2.321  -3.907  1.00  0.00    -0.045 A 
ATOM     37  C   UNL     1      -6.117   3.681  -3.695  1.00  0.00     0.007 A 
ATOM     38  C   UNL     1      -7.541   1.760  -3.341  1.00  0.00     0.007 A 
ATOM     39  C   UNL     1      -6.988   4.466  -2.939  1.00  0.00     0.046 A 
ATOM     40  C   UNL     1      -8.413   2.545  -2.582  1.00  0.00     0.046 A 
ATOM     41  C   UNL     1      -8.128   3.893  -2.389  1.00  0.00     0.115 A 
BRANCH  41  42
ATOM     42  O   UNL     1      -8.951   4.694  -1.654  1.00  0.00    -0.508 OA
ATOM     43  H   UNL     1      -8.406   5.366  -1.211  1.00  0.00     0.293 HD
ENDBRANCH  41  42
ENDBRANCH  35  36
ENDBRANCH  34  35
BRANCH  34  44
ATOM     44  C   UNL     1      -5.121   1.071  -7.218  1.00  0.00     0.243 C 
ATOM     45  O   UNL     1      -5.323   0.563  -8.318  1.00  0.00    -0.273 OA
ATOM     46  N   UNL     1      -3.942   1.723  -6.923  1.00  0.00    -0.341 N 
ATOM     47  H   UNL     1      -3.769   2.023  -5.966  1.00  0.00     0.164 HD
BRANCH  46  48
ATOM     48  C   UNL     1      -2.864   1.919  -7.895  1.00  0.00     0.196 C 
BRANCH  48  49
ATOM     49  C   UNL     1      -2.082   3.212  -7.611  1.00  0.00     0.072 C 
BRANCH  49  50
ATOM     50  C   UNL     1      -2.298   3.725  -6.205  1.00  0.00    -0.045 A 
ATOM     51  C   UNL     1      -3.136   4.828  -5.984  1.00  0.00     0.007 A 
ATOM     52  C   UNL     1      -1.655   3.129  -5.113  1.00  0.00     0.007 A 
ATOM     53  C   UNL     1      -3.333   5.318  -4.693  1.00  0.00     0.046 A 
ATOM     54  C   UNL     1      -1.850   3.621  -3.820  1.00  0.00     0.046 A 
ATOM     55  C   UNL     1      -2.689   4.712  -3.622  1.00  0.00     0.115 A 
BRANCH  55  56
ATOM     56  O   UNL     1      -2.906   5.223  -2.376  1.00  0.00    -0.508 OA
ATOM     57  H   UNL     1      -2.148   4.994  -1.815  1.00  0.00     0.293 HD
ENDBRANCH  55  56
ENDBRANCH  49  50
ENDBRANCH  48  49
BRANCH  48  58
ATOM     58  C   UNL     1      -1.912   0.717  -7.834  1.00  0.00     0.326 C 
ATOM     59  O   UNL     1      -0.873   0.629  -7.200  1.00  0.00    -0.250 OA
BRANCH  58  60
ATOM     60  O   UNL     1      -2.327  -0.341  -8.574  1.00  0.00    -0.480 OA
ATOM     61  H   UNL     1      -1.532  -0.575  -9.100  1.00  0.00     0.296 HD
ENDBRANCH  58  60
ENDBRANCH  48  58
ENDBRANCH  46  48
ENDBRANCH  34  44
ENDBRANCH  32  34
ENDBRANCH  25  30
ENDBRANCH  23  25
ENDBRANCH   2  23
TORSDOF 28
ENDMDL
MODEL 4
REMARK VINA RESULT:    -6.882      3.364     10.332
REMARK INTER + INTRA:         -20.902
REMARK INTER:                 -17.011
REMARK INTRA:                  -3.891
REMARK UNBOUND:                -3.761
REMARK SMILES CCCCCCC[C@H](N)[C@H](O)C(=O)N[C@H](C)C(=O)N(C)[C@H](CC(C)C)C(=O)N[C@@H](Cc1ccc(O)cc1)C(=O)N[C@@H](Cc1ccc(O)cc1)C(=O)O
REMARK SMILES IDX 18 1 17 2 15 3 16 4 14 5 12 6 13 7 10 9 11 10 8 12 9 13 7 16
REMARK SMILES IDX 6 17 5 18 4 19 3 20 2 21 1 22 19 23 20 24 21 25 22 26 23 27
REMARK SMILES IDX 24 28 25 29 26 30 27 31 28 32 29 34 30 35 31 36 32 37 37 38
REMARK SMILES IDX 33 39 36 40 34 41 35 42 38 44 39 45 40 46 41 48 42 49 43 50
REMARK SMILES IDX 44 51 49 52 45 53 48 54 46 55 47 56 50 58 51 59 52 60
REMARK H PARENT 14 8 11 11 9 14 9 15 28 33 35 43 40 47 47 57 52 61
ROOT
ATOM      1  O   UNL     1     -10.968  -2.593  -4.580  1.00  0.00    -0.272 OA
ATOM      2  C   UNL     1     -10.033  -2.845  -5.354  1.00  0.00     0.245 C 
ENDROOT
BRANCH   2   3
ATOM      3  C   UNL     1      -9.924  -4.273  -5.944  1.00  0.00     0.168 C 
ATOM      4  C   UNL     1      -8.489  -4.579  -6.358  1.00  0.00     0.041 C 
BRANCH   3   5
ATOM      5  N   UNL     1     -10.484  -5.324  -5.109  1.00  0.00    -0.342 N 
ATOM      6  C   UNL     1      -9.882  -5.717  -3.933  1.00  0.00     0.251 C 
ATOM      7  O   UNL     1      -8.823  -5.250  -3.526  1.00  0.00    -0.272 OA
ATOM      8  H   UNL     1     -11.342  -5.809  -5.361  1.00  0.00     0.164 HD
BRANCH   6   9
ATOM      9  C   UNL     1     -10.721  -6.738  -3.147  1.00  0.00     0.219 C 
BRANCH   9  10
ATOM     10  O   UNL     1      -9.949  -7.855  -2.691  1.00  0.00    -0.382 OA
ATOM     11  H   UNL     1     -10.197  -7.936  -1.744  1.00  0.00     0.211 HD
ENDBRANCH   9  10
BRANCH   9  12
ATOM     12  C   UNL     1     -11.514  -6.101  -1.976  1.00  0.00     0.089 C 
BRANCH  12  13
ATOM     13  N   UNL     1     -12.877  -6.679  -1.966  1.00  0.00    -0.325 NA
ATOM     14  H   UNL     1     -12.823  -7.673  -2.198  1.00  0.00     0.119 HD
ATOM     15  H   UNL     1     -13.421  -6.258  -2.722  1.00  0.00     0.119 HD
ENDBRANCH  12  13
BRANCH  12  16
ATOM     16  C   UNL     1     -10.872  -6.229  -0.574  1.00  0.00     0.022 C 
BRANCH  16  17
ATOM     17  C   UNL     1      -9.735  -5.275  -0.183  1.00  0.00     0.002 C 
BRANCH  17  18
ATOM     18  C   UNL     1      -9.996  -4.439   1.068  1.00  0.00     0.000 C 
BRANCH  18  19
ATOM     19  C   UNL     1     -10.317  -2.966   0.780  1.00  0.00    -0.000 C 
BRANCH  19  20
ATOM     20  C   UNL     1     -10.324  -2.051   2.007  1.00  0.00    -0.000 C 
BRANCH  20  21
ATOM     21  C   UNL     1     -10.794  -0.628   1.691  1.00  0.00    -0.003 C 
ATOM     22  C   UNL     1      -9.648   0.367   1.780  1.00  0.00     0.004 C 
ENDBRANCH  20  21
ENDBRANCH  19  20
ENDBRANCH  18  19
ENDBRANCH  17  18
ENDBRANCH  16  17
ENDBRANCH  12  16
ENDBRANCH   9  12
ENDBRANCH   6   9
ENDBRANCH   3   5
ENDBRANCH   2   3
BRANCH   2  23
ATOM     23  N   UNL     1      -9.182  -1.827  -5.771  1.00  0.00    -0.332 N 
ATOM     24  C   UNL     1      -9.203  -1.223  -7.095  1.00  0.00     0.147 C 
BRANCH  23  25
ATOM     25  C   UNL     1      -8.248  -1.186  -4.805  1.00  0.00     0.174 C 
BRANCH  25  26
ATOM     26  C   UNL     1      -8.785   0.153  -4.247  1.00  0.00     0.038 C 
BRANCH  26  27
ATOM     27  C   UNL     1      -8.646   0.384  -2.725  1.00  0.00    -0.015 C 
ATOM     28  C   UNL     1      -8.766   1.859  -2.344  1.00  0.00     0.007 C 
ATOM     29  C   UNL     1      -9.603  -0.466  -1.893  1.00  0.00     0.007 C 
ENDBRANCH  26  27
ENDBRANCH  25  26
BRANCH  25  30
ATOM     30  C   UNL     1      -6.835  -1.080  -5.422  1.00  0.00     0.243 C 
ATOM     31  O   UNL     1      -6.205  -2.075  -5.779  1.00  0.00    -0.273 OA
ATOM     32  N   UNL     1      -6.331   0.190  -5.537  1.00  0.00    -0.342 N 
ATOM     33  H   UNL     1      -6.966   0.970  -5.351  1.00  0.00     0.164 HD
BRANCH  32  34
ATOM     34  C   UNL     1      -4.998   0.479  -6.072  1.00  0.00     0.175 C 
BRANCH  34  35
ATOM     35  C   UNL     1      -5.082   1.110  -7.470  1.00  0.00     0.070 C 
BRANCH  35  36
ATOM     36  C   UNL     1      -3.794   0.977  -8.251  1.00  0.00    -0.045 A 
ATOM     37  C   UNL     1      -2.799   0.087  -7.817  1.00  0.00     0.007 A 
ATOM     38  C   UNL     1      -3.565   1.749  -9.397  1.00  0.00     0.007 A 
ATOM     39  C   UNL     1      -1.602  -0.033  -8.523  1.00  0.00     0.046 A 
ATOM     40  C   UNL     1      -2.366   1.630 -10.104  1.00  0.00     0.046 A 
ATOM     41  C   UNL     1      -1.395   0.738  -9.661  1.00  0.00     0.115 A 
BRANCH  41  42
ATOM     42  O   UNL     1      -0.210   0.593 -10.320  1.00  0.00    -0.508 OA
ATOM     43  H   UNL     1       0.332  -0.049  -9.833  1.00  0.00     0.293 HD
ENDBRANCH  41  42
ENDBRANCH  35  36
ENDBRANCH  34  35
BRANCH  34  44
ATOM     44  C   UNL     1      -4.266   1.396  -5.067  1.00  0.00     0.243 C 
ATOM     45  O   UNL     1      -3.939   1.061  -3.932  1.00  0.00    -0.273 OA
ATOM     46  N   UNL     1      -4.121   2.693  -5.513  1.00  0.00    -0.341 N 
ATOM     47  H   UNL     1      -4.514   2.952  -6.415  1.00  0.00     0.164 HD
BRANCH  46  48
ATOM     48  C   UNL     1      -3.521   3.759  -4.709  1.00  0.00     0.196 C 
BRANCH  48  49
ATOM     49  C   UNL     1      -2.833   4.811  -5.596  1.00  0.00     0.072 C 
BRANCH  49  50
ATOM     50  C   UNL     1      -1.703   4.231  -6.415  1.00  0.00    -0.045 A 
ATOM     51  C   UNL     1      -0.869   3.250  -5.860  1.00  0.00     0.007 A 
ATOM     52  C   UNL     1      -1.458   4.675  -7.721  1.00  0.00     0.007 A 
ATOM     53  C   UNL     1       0.186   2.717  -6.602  1.00  0.00     0.046 A 
ATOM     54  C   UNL     1      -0.401   4.143  -8.463  1.00  0.00     0.046 A 
ATOM     55  C   UNL     1       0.412   3.167  -7.897  1.00  0.00     0.115 A 
BRANCH  55  56
ATOM     56  O   UNL     1       1.454   2.622  -8.588  1.00  0.00    -0.508 OA
ATOM     57  H   UNL     1       2.206   3.232  -8.537  1.00  0.00     0.293 HD
ENDBRANCH  55  56
ENDBRANCH  49  50
ENDBRANCH  48  49
BRANCH  48  58
ATOM     58  C   UNL     1      -4.617   4.431  -3.870  1.00  0.00     0.326 C 
ATOM     59  O   UNL     1      -5.264   5.425  -4.158  1.00  0.00    -0.250 OA
BRANCH  58  60
ATOM     60  O   UNL     1      -4.863   3.799  -2.695  1.00  0.00    -0.480 OA
ATOM     61  H   UNL     1      -3.978   3.761  -2.270  1.00  0.00     0.296 HD
ENDBRANCH  58  60
ENDBRANCH  48  58
ENDBRANCH  46  48
ENDBRANCH  34  44
ENDBRANCH  32  34
ENDBRANCH  25  30
ENDBRANCH  23  25
ENDBRANCH   2  23
TORSDOF 28
ENDMDL
MODEL 5
REMARK VINA RESULT:    -6.848      2.497     10.512
REMARK INTER + INTRA:         -20.819
REMARK INTER:                 -15.726
REMARK INTRA:                  -5.093
REMARK UNBOUND:                -3.761
REMARK SMILES CCCCCCC[C@H](N)[C@H](O)C(=O)N[C@H](C)C(=O)N(C)[C@H](CC(C)C)C(=O)N[C@@H](Cc1ccc(O)cc1)C(=O)N[C@@H](Cc1ccc(O)cc1)C(=O)O
REMARK SMILES IDX 18 1 17 2 15 3 16 4 14 5 12 6 13 7 10 9 11 10 8 12 9 13 7 16
REMARK SMILES IDX 6 17 5 18 4 19 3 20 2 21 1 22 19 23 20 24 21 25 22 26 23 27
REMARK SMILES IDX 24 28 25 29 26 30 27 31 28 32 29 34 30 35 31 36 32 37 37 38
REMARK SMILES IDX 33 39 36 40 34 41 35 42 38 44 39 45 40 46 41 48 42 49 43 50
REMARK SMILES IDX 44 51 49 52 45 53 48 54 46 55 47 56 50 58 51 59 52 60
REMARK H PARENT 14 8 11 11 9 14 9 15 28 33 35 43 40 47 47 57 52 61
ROOT
ATOM      1  O   UNL     1      -6.444  -2.215  -6.252  1.00  0.00    -0.272 OA
ATOM      2  C   UNL     1      -6.438  -2.747  -7.372  1.00  0.00     0.245 C 
ENDROOT
BRANCH   2   3
ATOM      3  C   UNL     1      -7.101  -4.137  -7.535  1.00  0.00     0.168 C 
ATOM      4  C   UNL     1      -6.085  -5.252  -7.307  1.00  0.00     0.041 C 
BRANCH   3   5
ATOM      5  N   UNL     1      -8.308  -4.335  -6.747  1.00  0.00    -0.342 N 
ATOM      6  C   UNL     1      -9.561  -4.065  -7.254  1.00  0.00     0.251 C 
ATOM      7  O   UNL     1      -9.752  -3.605  -8.374  1.00  0.00    -0.272 OA
ATOM      8  H   UNL     1      -8.273  -4.681  -5.790  1.00  0.00     0.164 HD
BRANCH   6   9
ATOM      9  C   UNL     1     -10.691  -4.482  -6.299  1.00  0.00     0.219 C 
BRANCH   9  10
ATOM     10  O   UNL     1     -10.206  -5.133  -5.119  1.00  0.00    -0.382 OA
ATOM     11  H   UNL     1      -9.658  -4.443  -4.683  1.00  0.00     0.211 HD
ENDBRANCH   9  10
BRANCH   9  12
ATOM     12  C   UNL     1     -11.641  -3.313  -5.932  1.00  0.00     0.089 C 
BRANCH  12  13
ATOM     13  N   UNL     1     -12.368  -3.672  -4.693  1.00  0.00    -0.325 NA
ATOM     14  H   UNL     1     -11.745  -3.556  -3.892  1.00  0.00     0.119 HD
ATOM     15  H   UNL     1     -12.588  -4.671  -4.717  1.00  0.00     0.119 HD
ENDBRANCH  12  13
BRANCH  12  16
ATOM     16  C   UNL     1     -10.977  -1.924  -5.774  1.00  0.00     0.022 C 
BRANCH  16  17
ATOM     17  C   UNL     1     -11.781  -0.778  -5.145  1.00  0.00     0.002 C 
BRANCH  17  18
ATOM     18  C   UNL     1     -11.269  -0.301  -3.788  1.00  0.00     0.000 C 
BRANCH  18  19
ATOM     19  C   UNL     1      -9.868  -0.816  -3.432  1.00  0.00    -0.000 C 
BRANCH  19  20
ATOM     20  C   UNL     1      -9.759  -1.519  -2.076  1.00  0.00    -0.000 C 
BRANCH  20  21
ATOM     21  C   UNL     1      -9.751  -0.544  -0.895  1.00  0.00    -0.003 C 
ATOM     22  C   UNL     1      -8.982   0.725  -1.228  1.00  0.00     0.004 C 
ENDBRANCH  20  21
ENDBRANCH  19  20
ENDBRANCH  18  19
ENDBRANCH  17  18
ENDBRANCH  16  17
ENDBRANCH  12  16
ENDBRANCH   9  12
ENDBRANCH   6   9
ENDBRANCH   3   5
ENDBRANCH   2   3
BRANCH   2  23
ATOM     23  N   UNL     1      -5.955  -2.047  -8.472  1.00  0.00    -0.332 N 
ATOM     24  C   UNL     1      -6.609  -1.997  -9.771  1.00  0.00     0.147 C 
BRANCH  23  25
ATOM     25  C   UNL     1      -4.759  -1.171  -8.339  1.00  0.00     0.174 C 
BRANCH  25  26
ATOM     26  C   UNL     1      -3.584  -1.863  -7.609  1.00  0.00     0.038 C 
BRANCH  26  27
ATOM     27  C   UNL     1      -2.156  -1.451  -8.032  1.00  0.00    -0.015 C 
ATOM     28  C   UNL     1      -1.659  -0.214  -7.283  1.00  0.00     0.007 C 
ATOM     29  C   UNL     1      -1.140  -2.585  -7.930  1.00  0.00     0.007 C 
ENDBRANCH  26  27
ENDBRANCH  25  26
BRANCH  25  30
ATOM     30  C   UNL     1      -5.160   0.188  -7.720  1.00  0.00     0.243 C 
ATOM     31  O   UNL     1      -5.508   1.141  -8.416  1.00  0.00    -0.273 OA
ATOM     32  N   UNL     1      -5.097   0.259  -6.353  1.00  0.00    -0.342 N 
ATOM     33  H   UNL     1      -4.938  -0.612  -5.840  1.00  0.00     0.164 HD
BRANCH  32  34
ATOM     34  C   UNL     1      -5.415   1.474  -5.597  1.00  0.00     0.175 C 
BRANCH  34  35
ATOM     35  C   UNL     1      -6.544   1.224  -4.586  1.00  0.00     0.070 C 
BRANCH  35  36
ATOM     36  C   UNL     1      -7.884   1.734  -5.068  1.00  0.00    -0.045 A 
ATOM     37  C   UNL     1      -8.608   2.648  -4.288  1.00  0.00     0.007 A 
ATOM     38  C   UNL     1      -8.429   1.289  -6.279  1.00  0.00     0.007 A 
ATOM     39  C   UNL     1      -9.851   3.114  -4.718  1.00  0.00     0.046 A 
ATOM     40  C   UNL     1      -9.674   1.754  -6.710  1.00  0.00     0.046 A 
ATOM     41  C   UNL     1     -10.374   2.664  -5.924  1.00  0.00     0.115 A 
BRANCH  41  42
ATOM     42  O   UNL     1     -11.592   3.141  -6.307  1.00  0.00    -0.508 OA
ATOM     43  H   UNL     1     -11.823   3.887  -5.728  1.00  0.00     0.293 HD
ENDBRANCH  41  42
ENDBRANCH  35  36
ENDBRANCH  34  35
BRANCH  34  44
ATOM     44  C   UNL     1      -4.120   1.961  -4.908  1.00  0.00     0.243 C 
ATOM     45  O   UNL     1      -3.347   1.234  -4.291  1.00  0.00    -0.273 OA
ATOM     46  N   UNL     1      -3.967   3.331  -4.933  1.00  0.00    -0.341 N 
ATOM     47  H   UNL     1      -4.695   3.902  -5.356  1.00  0.00     0.164 HD
BRANCH  46  48
ATOM     48  C   UNL     1      -2.854   4.030  -4.287  1.00  0.00     0.196 C 
BRANCH  48  49
ATOM     49  C   UNL     1      -2.185   5.027  -5.248  1.00  0.00     0.072 C 
BRANCH  49  50
ATOM     50  C   UNL     1      -1.148   4.374  -6.134  1.00  0.00    -0.045 A 
ATOM     51  C   UNL     1      -0.866   4.916  -7.396  1.00  0.00     0.007 A 
ATOM     52  C   UNL     1      -0.474   3.217  -5.722  1.00  0.00     0.007 A 
ATOM     53  C   UNL     1       0.079   4.315  -8.227  1.00  0.00     0.046 A 
ATOM     54  C   UNL     1       0.472   2.614  -6.555  1.00  0.00     0.046 A 
ATOM     55  C   UNL     1       0.741   3.170  -7.801  1.00  0.00     0.115 A 
BRANCH  55  56
ATOM     56  O   UNL     1       1.656   2.612  -8.644  1.00  0.00    -0.508 OA
ATOM     57  H   UNL     1       1.235   1.868  -9.104  1.00  0.00     0.293 HD
ENDBRANCH  55  56
ENDBRANCH  49  50
ENDBRANCH  48  49
BRANCH  48  58
ATOM     58  C   UNL     1      -3.383   4.778  -3.055  1.00  0.00     0.326 C 
ATOM     59  O   UNL     1      -2.879   5.744  -2.505  1.00  0.00    -0.250 OA
BRANCH  58  60
ATOM     60  O   UNL     1      -4.548   4.275  -2.575  1.00  0.00    -0.480 OA
ATOM     61  H   UNL     1      -4.753   4.864  -1.817  1.00  0.00     0.296 HD
ENDBRANCH  58  60
ENDBRANCH  48  58
ENDBRANCH  46  48
ENDBRANCH  34  44
ENDBRANCH  32  34
ENDBRANCH  25  30
ENDBRANCH  23  25
ENDBRANCH   2  23
TORSDOF 28
ENDMDL
MODEL 6
REMARK VINA RESULT:    -6.827      5.769     11.483
REMARK INTER + INTRA:         -20.766
REMARK INTER:                 -14.420
REMARK INTRA:                  -6.346
REMARK UNBOUND:                -3.761
REMARK SMILES CCCCCCC[C@H](N)[C@H](O)C(=O)N[C@H](C)C(=O)N(C)[C@H](CC(C)C)C(=O)N[C@@H](Cc1ccc(O)cc1)C(=O)N[C@@H](Cc1ccc(O)cc1)C(=O)O
REMARK SMILES IDX 18 1 17 2 15 3 16 4 14 5 12 6 13 7 10 9 11 10 8 12 9 13 7 16
REMARK SMILES IDX 6 17 5 18 4 19 3 20 2 21 1 22 19 23 20 24 21 25 22 26 23 27
REMARK SMILES IDX 24 28 25 29 26 30 27 31 28 32 29 34 30 35 31 36 32 37 37 38
REMARK SMILES IDX 33 39 36 40 34 41 35 42 38 44 39 45 40 46 41 48 42 49 43 50
REMARK SMILES IDX 44 51 49 52 45 53 48 54 46 55 47 56 50 58 51 59 52 60
REMARK H PARENT 14 8 11 11 9 14 9 15 28 33 35 43 40 47 47 57 52 61
ROOT
ATOM      1  O   UNL     1     -12.078  -4.855  -2.701  1.00  0.00    -0.272 OA
ATOM      2  C   UNL     1     -10.926  -5.009  -3.134  1.00  0.00     0.245 C 
ENDROOT
BRANCH   2   3
ATOM      3  C   UNL     1     -10.220  -3.805  -3.806  1.00  0.00     0.168 C 
ATOM      4  C   UNL     1      -9.223  -3.159  -2.850  1.00  0.00     0.041 C 
BRANCH   3   5
ATOM      5  N   UNL     1      -9.621  -4.093  -5.100  1.00  0.00    -0.342 N 
ATOM      6  C   UNL     1     -10.274  -3.815  -6.282  1.00  0.00     0.251 C 
ATOM      7  O   UNL     1     -11.408  -3.351  -6.335  1.00  0.00    -0.272 OA
ATOM      8  H   UNL     1      -8.697  -4.511  -5.183  1.00  0.00     0.164 HD
BRANCH   6   9
ATOM      9  C   UNL     1      -9.398  -4.068  -7.519  1.00  0.00     0.219 C 
BRANCH   9  10
ATOM     10  O   UNL     1      -9.834  -3.329  -8.666  1.00  0.00    -0.382 OA
ATOM     11  H   UNL     1      -9.008  -2.920  -9.006  1.00  0.00     0.211 HD
ENDBRANCH   9  10
BRANCH   9  12
ATOM     12  C   UNL     1      -7.888  -3.833  -7.255  1.00  0.00     0.089 C 
BRANCH  12  13
ATOM     13  N   UNL     1      -7.116  -4.485  -8.337  1.00  0.00    -0.325 NA
ATOM     14  H   UNL     1      -6.668  -5.327  -7.970  1.00  0.00     0.119 HD
ATOM     15  H   UNL     1      -6.346  -3.871  -8.611  1.00  0.00     0.119 HD
ENDBRANCH  12  13
BRANCH  12  16
ATOM     16  C   UNL     1      -7.448  -2.357  -7.103  1.00  0.00     0.022 C 
BRANCH  16  17
ATOM     17  C   UNL     1      -6.701  -1.926  -5.833  1.00  0.00     0.002 C 
BRANCH  17  18
ATOM     18  C   UNL     1      -6.550  -0.417  -5.655  1.00  0.00     0.000 C 
BRANCH  18  19
ATOM     19  C   UNL     1      -7.493   0.186  -4.605  1.00  0.00    -0.000 C 
BRANCH  19  20
ATOM     20  C   UNL     1      -8.819   0.719  -5.153  1.00  0.00    -0.000 C 
BRANCH  20  21
ATOM     21  C   UNL     1      -9.966  -0.289  -5.034  1.00  0.00    -0.003 C 
ATOM     22  C   UNL     1     -11.224   0.218  -5.722  1.00  0.00     0.004 C 
ENDBRANCH  20  21
ENDBRANCH  19  20
ENDBRANCH  18  19
ENDBRANCH  17  18
ENDBRANCH  16  17
ENDBRANCH  12  16
ENDBRANCH   9  12
ENDBRANCH   6   9
ENDBRANCH   3   5
ENDBRANCH   2   3
BRANCH   2  23
ATOM     23  N   UNL     1     -10.251  -6.203  -2.904  1.00  0.00    -0.332 N 
ATOM     24  C   UNL     1     -10.329  -7.375  -3.763  1.00  0.00     0.147 C 
BRANCH  23  25
ATOM     25  C   UNL     1      -9.271  -6.308  -1.788  1.00  0.00     0.174 C 
BRANCH  25  26
ATOM     26  C   UNL     1      -8.500  -7.649  -1.788  1.00  0.00     0.038 C 
BRANCH  26  27
ATOM     27  C   UNL     1      -7.344  -7.793  -0.773  1.00  0.00    -0.015 C 
ATOM     28  C   UNL     1      -6.674  -9.165  -0.840  1.00  0.00     0.007 C 
ATOM     29  C   UNL     1      -6.303  -6.681  -0.878  1.00  0.00     0.007 C 
ENDBRANCH  26  27
ENDBRANCH  25  26
BRANCH  25  30
ATOM     30  C   UNL     1      -9.961  -5.989  -0.442  1.00  0.00     0.243 C 
ATOM     31  O   UNL     1     -10.918  -6.643  -0.031  1.00  0.00    -0.273 OA
ATOM     32  N   UNL     1      -9.441  -4.929   0.255  1.00  0.00    -0.342 N 
ATOM     33  H   UNL     1      -8.562  -4.527  -0.081  1.00  0.00     0.164 HD
BRANCH  32  34
ATOM     34  C   UNL     1      -9.984  -4.467   1.535  1.00  0.00     0.175 C 
BRANCH  34  35
ATOM     35  C   UNL     1      -8.970  -4.655   2.674  1.00  0.00     0.070 C 
BRANCH  35  36
ATOM     36  C   UNL     1      -8.511  -6.089   2.817  1.00  0.00    -0.045 A 
ATOM     37  C   UNL     1      -7.146  -6.401   2.724  1.00  0.00     0.007 A 
ATOM     38  C   UNL     1      -9.435  -7.122   3.020  1.00  0.00     0.007 A 
ATOM     39  C   UNL     1      -6.715  -7.723   2.841  1.00  0.00     0.046 A 
ATOM     40  C   UNL     1      -9.003  -8.446   3.136  1.00  0.00     0.046 A 
ATOM     41  C   UNL     1      -7.645  -8.734   3.047  1.00  0.00     0.115 A 
BRANCH  41  42
ATOM     42  O   UNL     1      -7.183 -10.012   3.153  1.00  0.00    -0.508 OA
ATOM     43  H   UNL     1      -6.451 -10.019   3.792  1.00  0.00     0.293 HD
ENDBRANCH  41  42
ENDBRANCH  35  36
ENDBRANCH  34  35
BRANCH  34  44
ATOM     44  C   UNL     1     -10.401  -2.988   1.372  1.00  0.00     0.243 C 
ATOM     45  O   UNL     1      -9.963  -2.064   2.052  1.00  0.00    -0.273 OA
ATOM     46  N   UNL     1     -11.423  -2.802   0.465  1.00  0.00    -0.341 N 
ATOM     47  H   UNL     1     -11.833  -3.614   0.010  1.00  0.00     0.164 HD
BRANCH  46  48
ATOM     48  C   UNL     1     -12.031  -1.498   0.191  1.00  0.00     0.196 C 
BRANCH  48  49
ATOM     49  C   UNL     1     -11.894  -1.116  -1.292  1.00  0.00     0.072 C 
BRANCH  49  50
ATOM     50  C   UNL     1     -10.996   0.081  -1.504  1.00  0.00    -0.045 A 
ATOM     51  C   UNL     1      -9.646   0.017  -1.130  1.00  0.00     0.007 A 
ATOM     52  C   UNL     1     -11.495   1.269  -2.052  1.00  0.00     0.007 A 
ATOM     53  C   UNL     1      -8.810   1.119  -1.308  1.00  0.00     0.046 A 
ATOM     54  C   UNL     1     -10.659   2.374  -2.230  1.00  0.00     0.046 A 
ATOM     55  C   UNL     1      -9.322   2.289  -1.857  1.00  0.00     0.115 A 
BRANCH  55  56
ATOM     56  O   UNL     1      -8.473   3.344  -2.013  1.00  0.00    -0.508 OA
ATOM     57  H   UNL     1      -8.385   3.795  -1.158  1.00  0.00     0.293 HD
ENDBRANCH  55  56
ENDBRANCH  49  50
ENDBRANCH  48  49
BRANCH  48  58
ATOM     58  C   UNL     1     -13.517  -1.550   0.574  1.00  0.00     0.326 C 
ATOM     59  O   UNL     1     -14.477  -1.454  -0.173  1.00  0.00    -0.250 OA
BRANCH  58  60
ATOM     60  O   UNL     1     -13.727  -1.738   1.902  1.00  0.00    -0.480 OA
ATOM     61  H   UNL     1     -13.954  -0.839   2.224  1.00  0.00     0.296 HD
ENDBRANCH  58  60
ENDBRANCH  48  58
ENDBRANCH  46  48
ENDBRANCH  34  44
ENDBRANCH  32  34
ENDBRANCH  25  30
ENDBRANCH  23  25
ENDBRANCH   2  23
TORSDOF 28
ENDMDL
MODEL 7
REMARK VINA RESULT:    -6.740      4.394      8.497
REMARK INTER + INTRA:         -20.549
REMARK INTER:                 -15.975
REMARK INTRA:                  -4.574
REMARK UNBOUND:                -3.761
REMARK SMILES CCCCCCC[C@H](N)[C@H](O)C(=O)N[C@H](C)C(=O)N(C)[C@H](CC(C)C)C(=O)N[C@@H](Cc1ccc(O)cc1)C(=O)N[C@@H](Cc1ccc(O)cc1)C(=O)O
REMARK SMILES IDX 18 1 17 2 15 3 16 4 14 5 12 6 13 7 10 9 11 10 8 12 9 13 7 16
REMARK SMILES IDX 6 17 5 18 4 19 3 20 2 21 1 22 19 23 20 24 21 25 22 26 23 27
REMARK SMILES IDX 24 28 25 29 26 30 27 31 28 32 29 34 30 35 31 36 32 37 37 38
REMARK SMILES IDX 33 39 36 40 34 41 35 42 38 44 39 45 40 46 41 48 42 49 43 50
REMARK SMILES IDX 44 51 49 52 45 53 48 54 46 55 47 56 50 58 51 59 52 60
REMARK H PARENT 14 8 11 11 9 14 9 15 28 33 35 43 40 47 47 57 52 61
ROOT
ATOM      1  O   UNL     1     -10.977  -0.474  -5.868  1.00  0.00    -0.272 OA
ATOM      2  C   UNL     1      -9.806  -0.067  -5.866  1.00  0.00     0.245 C 
ENDROOT
BRANCH   2   3
ATOM      3  C   UNL     1      -9.480   1.248  -5.115  1.00  0.00     0.168 C 
ATOM      4  C   UNL     1     -10.672   1.705  -4.280  1.00  0.00     0.041 C 
BRANCH   3   5
ATOM      5  N   UNL     1      -8.252   1.219  -4.336  1.00  0.00    -0.342 N 
ATOM      6  C   UNL     1      -7.114   1.880  -4.746  1.00  0.00     0.251 C 
ATOM      7  O   UNL     1      -7.035   2.500  -5.801  1.00  0.00    -0.272 OA
ATOM      8  H   UNL     1      -8.186   0.708  -3.458  1.00  0.00     0.164 HD
BRANCH   6   9
ATOM      9  C   UNL     1      -5.988   1.830  -3.701  1.00  0.00     0.219 C 
BRANCH   9  10
ATOM     10  O   UNL     1      -6.211   0.834  -2.695  1.00  0.00    -0.382 OA
ATOM     11  H   UNL     1      -5.602   0.106  -2.951  1.00  0.00     0.211 HD
ENDBRANCH   9  10
BRANCH   9  12
ATOM     12  C   UNL     1      -4.579   1.670  -4.331  1.00  0.00     0.089 C 
BRANCH  12  13
ATOM     13  N   UNL     1      -4.658   0.646  -5.397  1.00  0.00    -0.325 NA
ATOM     14  H   UNL     1      -3.975  -0.090  -5.207  1.00  0.00     0.119 HD
ATOM     15  H   UNL     1      -4.359   1.064  -6.281  1.00  0.00     0.119 HD
ENDBRANCH  12  13
BRANCH  12  16
ATOM     16  C   UNL     1      -3.933   2.963  -4.882  1.00  0.00     0.022 C 
BRANCH  16  17
ATOM     17  C   UNL     1      -2.850   2.854  -5.965  1.00  0.00     0.002 C 
BRANCH  17  18
ATOM     18  C   UNL     1      -1.416   2.824  -5.441  1.00  0.00     0.000 C 
BRANCH  18  19
ATOM     19  C   UNL     1      -1.186   3.695  -4.199  1.00  0.00    -0.000 C 
BRANCH  19  20
ATOM     20  C   UNL     1      -0.521   5.048  -4.468  1.00  0.00    -0.000 C 
BRANCH  20  21
ATOM     21  C   UNL     1      -1.453   6.236  -4.214  1.00  0.00    -0.003 C 
ATOM     22  C   UNL     1      -2.471   5.919  -3.130  1.00  0.00     0.004 C 
ENDBRANCH  20  21
ENDBRANCH  19  20
ENDBRANCH  18  19
ENDBRANCH  17  18
ENDBRANCH  16  17
ENDBRANCH  12  16
ENDBRANCH   9  12
ENDBRANCH   6   9
ENDBRANCH   3   5
ENDBRANCH   2   3
BRANCH   2  23
ATOM     23  N   UNL     1      -8.798  -0.846  -6.423  1.00  0.00    -0.332 N 
ATOM     24  C   UNL     1      -7.974  -0.446  -7.554  1.00  0.00     0.147 C 
BRANCH  23  25
ATOM     25  C   UNL     1      -8.405  -2.133  -5.786  1.00  0.00     0.174 C 
BRANCH  25  26
ATOM     26  C   UNL     1      -9.090  -3.360  -6.434  1.00  0.00     0.038 C 
BRANCH  26  27
ATOM     27  C   UNL     1      -8.310  -4.693  -6.406  1.00  0.00    -0.015 C 
ATOM     28  C   UNL     1      -6.806  -4.487  -6.228  1.00  0.00     0.007 C 
ATOM     29  C   UNL     1      -8.842  -5.686  -5.375  1.00  0.00     0.007 C 
ENDBRANCH  26  27
ENDBRANCH  25  26
BRANCH  25  30
ATOM     30  C   UNL     1      -8.598  -2.050  -4.254  1.00  0.00     0.243 C 
ATOM     31  O   UNL     1      -7.716  -1.626  -3.510  1.00  0.00    -0.273 OA
ATOM     32  N   UNL     1      -9.811  -2.485  -3.785  1.00  0.00    -0.342 N 
ATOM     33  H   UNL     1     -10.540  -2.688  -4.474  1.00  0.00     0.164 HD
BRANCH  32  34
ATOM     34  C   UNL     1     -10.160  -2.504  -2.362  1.00  0.00     0.175 C 
BRANCH  34  35
ATOM     35  C   UNL     1     -10.979  -1.265  -1.971  1.00  0.00     0.070 C 
BRANCH  35  36
ATOM     36  C   UNL     1     -10.486  -0.617  -0.696  1.00  0.00    -0.045 A 
ATOM     37  C   UNL     1     -11.230  -0.740   0.487  1.00  0.00     0.007 A 
ATOM     38  C   UNL     1      -9.300   0.129  -0.681  1.00  0.00     0.007 A 
ATOM     39  C   UNL     1     -10.791  -0.134   1.664  1.00  0.00     0.046 A 
ATOM     40  C   UNL     1      -8.860   0.737   0.497  1.00  0.00     0.046 A 
ATOM     41  C   UNL     1      -9.610   0.598   1.661  1.00  0.00     0.115 A 
BRANCH  41  42
ATOM     42  O   UNL     1      -9.217   1.176   2.831  1.00  0.00    -0.508 OA
ATOM     43  H   UNL     1      -9.357   0.537   3.549  1.00  0.00     0.293 HD
ENDBRANCH  41  42
ENDBRANCH  35  36
ENDBRANCH  34  35
BRANCH  34  44
ATOM     44  C   UNL     1     -10.926  -3.816  -2.075  1.00  0.00     0.243 C 
ATOM     45  O   UNL     1     -12.145  -3.939  -2.154  1.00  0.00    -0.273 OA
ATOM     46  N   UNL     1     -10.122  -4.825  -1.587  1.00  0.00    -0.341 N 
ATOM     47  H   UNL     1      -9.135  -4.637  -1.429  1.00  0.00     0.164 HD
BRANCH  46  48
ATOM     48  C   UNL     1     -10.632  -6.136  -1.180  1.00  0.00     0.196 C 
BRANCH  48  49
ATOM     49  C   UNL     1     -11.435  -6.042   0.128  1.00  0.00     0.072 C 
BRANCH  49  50
ATOM     50  C   UNL     1     -10.647  -5.407   1.251  1.00  0.00    -0.045 A 
ATOM     51  C   UNL     1      -9.503  -6.046   1.751  1.00  0.00     0.007 A 
ATOM     52  C   UNL     1     -11.052  -4.192   1.819  1.00  0.00     0.007 A 
ATOM     53  C   UNL     1      -8.775  -5.476   2.795  1.00  0.00     0.046 A 
ATOM     54  C   UNL     1     -10.323  -3.621   2.865  1.00  0.00     0.046 A 
ATOM     55  C   UNL     1      -9.190  -4.268   3.344  1.00  0.00     0.115 A 
BRANCH  55  56
ATOM     56  O   UNL     1      -8.452  -3.745   4.364  1.00  0.00    -0.508 OA
ATOM     57  H   UNL     1      -7.777  -3.160   3.985  1.00  0.00     0.293 HD
ENDBRANCH  55  56
ENDBRANCH  49  50
ENDBRANCH  48  49
BRANCH  48  58
ATOM     58  C   UNL     1     -11.529  -6.691  -2.295  1.00  0.00     0.326 C 
ATOM     59  O   UNL     1     -11.181  -7.078  -3.399  1.00  0.00    -0.250 OA
BRANCH  58  60
ATOM     60  O   UNL     1     -12.842  -6.747  -1.957  1.00  0.00    -0.480 OA
ATOM     61  H   UNL     1     -12.924  -6.063  -1.258  1.00  0.00     0.296 HD
ENDBRANCH  58  60
ENDBRANCH  48  58
ENDBRANCH  46  48
ENDBRANCH  34  44
ENDBRANCH  32  34
ENDBRANCH  25  30
ENDBRANCH  23  25
ENDBRANCH   2  23
TORSDOF 28
ENDMDL
MODEL 8
REMARK VINA RESULT:    -6.693      3.662      9.896
REMARK INTER + INTRA:         -20.431
REMARK INTER:                 -15.283
REMARK INTRA:                  -5.148
REMARK UNBOUND:                -3.761
REMARK SMILES CCCCCCC[C@H](N)[C@H](O)C(=O)N[C@H](C)C(=O)N(C)[C@H](CC(C)C)C(=O)N[C@@H](Cc1ccc(O)cc1)C(=O)N[C@@H](Cc1ccc(O)cc1)C(=O)O
REMARK SMILES IDX 18 1 17 2 15 3 16 4 14 5 12 6 13 7 10 9 11 10 8 12 9 13 7 16
REMARK SMILES IDX 6 17 5 18 4 19 3 20 2 21 1 22 19 23 20 24 21 25 22 26 23 27
REMARK SMILES IDX 24 28 25 29 26 30 27 31 28 32 29 34 30 35 31 36 32 37 37 38
REMARK SMILES IDX 33 39 36 40 34 41 35 42 38 44 39 45 40 46 41 48 42 49 43 50
REMARK SMILES IDX 44 51 49 52 45 53 48 54 46 55 47 56 50 58 51 59 52 60
REMARK H PARENT 14 8 11 11 9 14 9 15 28 33 35 43 40 47 47 57 52 61
ROOT
ATOM      1  O   UNL     1      -8.303  -0.147  -2.741  1.00  0.00    -0.272 OA
ATOM      2  C   UNL     1      -9.350  -0.543  -3.273  1.00  0.00     0.245 C 
ENDROOT
BRANCH   2   3
ATOM      3  C   UNL     1     -10.489  -1.071  -2.366  1.00  0.00     0.168 C 
ATOM      4  C   UNL     1     -11.324  -2.117  -3.097  1.00  0.00     0.041 C 
BRANCH   3   5
ATOM      5  N   UNL     1     -10.061  -1.537  -1.056  1.00  0.00    -0.342 N 
ATOM      6  C   UNL     1     -10.518  -0.958   0.108  1.00  0.00     0.251 C 
ATOM      7  O   UNL     1     -11.275   0.006   0.132  1.00  0.00    -0.272 OA
ATOM      8  H   UNL     1      -9.407  -2.309  -0.950  1.00  0.00     0.164 HD
BRANCH   6   9
ATOM      9  C   UNL     1     -10.046  -1.702   1.368  1.00  0.00     0.219 C 
BRANCH   9  10
ATOM     10  O   UNL     1      -9.906  -0.837   2.501  1.00  0.00    -0.382 OA
ATOM     11  H   UNL     1      -8.939  -0.842   2.678  1.00  0.00     0.211 HD
ENDBRANCH   9  10
BRANCH   9  12
ATOM     12  C   UNL     1     -10.929  -2.929   1.717  1.00  0.00     0.089 C 
BRANCH  12  13
ATOM     13  N   UNL     1     -12.174  -2.851   0.918  1.00  0.00    -0.325 NA
ATOM     14  H   UNL     1     -12.970  -3.083   1.514  1.00  0.00     0.119 HD
ATOM     15  H   UNL     1     -12.154  -3.582   0.203  1.00  0.00     0.119 HD
ENDBRANCH  12  13
BRANCH  12  16
ATOM     16  C   UNL     1     -10.266  -4.315   1.535  1.00  0.00     0.022 C 
BRANCH  16  17
ATOM     17  C   UNL     1     -10.973  -5.375   0.678  1.00  0.00     0.002 C 
BRANCH  17  18
ATOM     18  C   UNL     1     -10.169  -6.650   0.435  1.00  0.00     0.000 C 
BRANCH  18  19
ATOM     19  C   UNL     1      -8.823  -6.415  -0.265  1.00  0.00    -0.000 C 
BRANCH  19  20
ATOM     20  C   UNL     1      -8.747  -6.914  -1.710  1.00  0.00    -0.000 C 
BRANCH  20  21
ATOM     21  C   UNL     1      -8.963  -5.802  -2.740  1.00  0.00    -0.003 C 
ATOM     22  C   UNL     1     -10.411  -5.748  -3.203  1.00  0.00     0.004 C 
ENDBRANCH  20  21
ENDBRANCH  19  20
ENDBRANCH  18  19
ENDBRANCH  17  18
ENDBRANCH  16  17
ENDBRANCH  12  16
ENDBRANCH   9  12
ENDBRANCH   6   9
ENDBRANCH   3   5
ENDBRANCH   2   3
BRANCH   2  23
ATOM     23  N   UNL     1      -9.532  -0.396  -4.644  1.00  0.00    -0.332 N 
ATOM     24  C   UNL     1     -10.391   0.604  -5.261  1.00  0.00     0.147 C 
BRANCH  23  25
ATOM     25  C   UNL     1      -8.727  -1.206  -5.600  1.00  0.00     0.174 C 
BRANCH  25  26
ATOM     26  C   UNL     1      -8.970  -2.726  -5.454  1.00  0.00     0.038 C 
BRANCH  26  27
ATOM     27  C   UNL     1      -9.454  -3.482  -6.712  1.00  0.00    -0.015 C 
ATOM     28  C   UNL     1     -10.840  -4.100  -6.526  1.00  0.00     0.007 C 
ATOM     29  C   UNL     1      -9.410  -2.637  -7.983  1.00  0.00     0.007 C 
ENDBRANCH  26  27
ENDBRANCH  25  26
BRANCH  25  30
ATOM     30  C   UNL     1      -7.237  -0.803  -5.514  1.00  0.00     0.243 C 
ATOM     31  O   UNL     1      -6.340  -1.642  -5.445  1.00  0.00    -0.273 OA
ATOM     32  N   UNL     1      -6.986   0.545  -5.515  1.00  0.00    -0.342 N 
ATOM     33  H   UNL     1      -7.768   1.172  -5.718  1.00  0.00     0.164 HD
BRANCH  32  34
ATOM     34  C   UNL     1      -5.637   1.109  -5.413  1.00  0.00     0.175 C 
BRANCH  34  35
ATOM     35  C   UNL     1      -5.341   2.064  -6.579  1.00  0.00     0.070 C 
BRANCH  35  36
ATOM     36  C   UNL     1      -3.990   1.816  -7.210  1.00  0.00    -0.045 A 
ATOM     37  C   UNL     1      -3.734   2.256  -8.518  1.00  0.00     0.007 A 
ATOM     38  C   UNL     1      -2.987   1.128  -6.515  1.00  0.00     0.007 A 
ATOM     39  C   UNL     1      -2.495   2.020  -9.114  1.00  0.00     0.046 A 
ATOM     40  C   UNL     1      -1.747   0.889  -7.112  1.00  0.00     0.046 A 
ATOM     41  C   UNL     1      -1.512   1.339  -8.407  1.00  0.00     0.115 A 
BRANCH  41  42
ATOM     42  O   UNL     1      -0.316   1.126  -9.026  1.00  0.00    -0.508 OA
ATOM     43  H   UNL     1      -0.085   0.187  -8.927  1.00  0.00     0.293 HD
ENDBRANCH  41  42
ENDBRANCH  35  36
ENDBRANCH  34  35
BRANCH  34  44
ATOM     44  C   UNL     1      -5.515   1.814  -4.043  1.00  0.00     0.243 C 
ATOM     45  O   UNL     1      -5.721   1.270  -2.962  1.00  0.00    -0.273 OA
ATOM     46  N   UNL     1      -5.278   3.169  -4.143  1.00  0.00    -0.341 N 
ATOM     47  H   UNL     1      -5.231   3.596  -5.065  1.00  0.00     0.164 HD
BRANCH  46  48
ATOM     48  C   UNL     1      -5.191   4.059  -2.983  1.00  0.00     0.196 C 
BRANCH  48  49
ATOM     49  C   UNL     1      -4.228   5.229  -3.246  1.00  0.00     0.072 C 
BRANCH  49  50
ATOM     50  C   UNL     1      -3.069   4.839  -4.135  1.00  0.00    -0.045 A 
ATOM     51  C   UNL     1      -1.984   4.130  -3.599  1.00  0.00     0.007 A 
ATOM     52  C   UNL     1      -3.048   5.195  -5.490  1.00  0.00     0.007 A 
ATOM     53  C   UNL     1      -0.903   3.777  -4.407  1.00  0.00     0.046 A 
ATOM     54  C   UNL     1      -1.965   4.842  -6.298  1.00  0.00     0.046 A 
ATOM     55  C   UNL     1      -0.902   4.135  -5.749  1.00  0.00     0.115 A 
BRANCH  55  56
ATOM     56  O   UNL     1       0.175   3.772  -6.504  1.00  0.00    -0.508 OA
ATOM     57  H   UNL     1      -0.084   3.801  -7.439  1.00  0.00     0.293 HD
ENDBRANCH  55  56
ENDBRANCH  49  50
ENDBRANCH  48  49
BRANCH  48  58
ATOM     58  C   UNL     1      -6.590   4.605  -2.668  1.00  0.00     0.326 C 
ATOM     59  O   UNL     1      -7.097   5.631  -3.093  1.00  0.00    -0.250 OA
BRANCH  58  60
ATOM     60  O   UNL     1      -7.304   3.813  -1.828  1.00  0.00    -0.480 OA
ATOM     61  H   UNL     1      -7.853   4.454  -1.325  1.00  0.00     0.296 HD
ENDBRANCH  58  60
ENDBRANCH  48  58
ENDBRANCH  46  48
ENDBRANCH  34  44
ENDBRANCH  32  34
ENDBRANCH  25  30
ENDBRANCH  23  25
ENDBRANCH   2  23
TORSDOF 28
ENDMDL
MODEL 9
REMARK VINA RESULT:    -6.682      2.413      8.063
REMARK INTER + INTRA:         -20.405
REMARK INTER:                 -15.512
REMARK INTRA:                  -4.892
REMARK UNBOUND:                -3.761
REMARK SMILES CCCCCCC[C@H](N)[C@H](O)C(=O)N[C@H](C)C(=O)N(C)[C@H](CC(C)C)C(=O)N[C@@H](Cc1ccc(O)cc1)C(=O)N[C@@H](Cc1ccc(O)cc1)C(=O)O
REMARK SMILES IDX 18 1 17 2 15 3 16 4 14 5 12 6 13 7 10 9 11 10 8 12 9 13 7 16
REMARK SMILES IDX 6 17 5 18 4 19 3 20 2 21 1 22 19 23 20 24 21 25 22 26 23 27
REMARK SMILES IDX 24 28 25 29 26 30 27 31 28 32 29 34 30 35 31 36 32 37 37 38
REMARK SMILES IDX 33 39 36 40 34 41 35 42 38 44 39 45 40 46 41 48 42 49 43 50
REMARK SMILES IDX 44 51 49 52 45 53 48 54 46 55 47 56 50 58 51 59 52 60
REMARK H PARENT 14 8 11 11 9 14 9 15 28 33 35 43 40 47 47 57 52 61
ROOT
ATOM      1  O   UNL     1      -9.550  -0.684  -6.667  1.00  0.00    -0.272 OA
ATOM      2  C   UNL     1      -9.451  -1.606  -5.845  1.00  0.00     0.245 C 
ENDROOT
BRANCH   2   3
ATOM      3  C   UNL     1      -9.166  -3.037  -6.366  1.00  0.00     0.168 C 
ATOM      4  C   UNL     1     -10.315  -3.535  -7.237  1.00  0.00     0.041 C 
BRANCH   3   5
ATOM      5  N   UNL     1      -7.878  -3.203  -7.022  1.00  0.00    -0.342 N 
ATOM      6  C   UNL     1      -7.688  -2.875  -8.347  1.00  0.00     0.251 C 
ATOM      7  O   UNL     1      -8.583  -2.464  -9.078  1.00  0.00    -0.272 OA
ATOM      8  H   UNL     1      -7.068  -3.568  -6.527  1.00  0.00     0.164 HD
BRANCH   6   9
ATOM      9  C   UNL     1      -6.219  -2.997  -8.785  1.00  0.00     0.219 C 
BRANCH   9  10
ATOM     10  O   UNL     1      -6.021  -2.643 -10.159  1.00  0.00    -0.382 OA
ATOM     11  H   UNL     1      -5.384  -3.317 -10.482  1.00  0.00     0.211 HD
ENDBRANCH   9  10
BRANCH   9  12
ATOM     12  C   UNL     1      -5.243  -2.214  -7.868  1.00  0.00     0.089 C 
BRANCH  12  13
ATOM     13  N   UNL     1      -5.001  -3.018  -6.649  1.00  0.00    -0.325 NA
ATOM     14  H   UNL     1      -5.187  -4.002  -6.853  1.00  0.00     0.119 HD
ATOM     15  H   UNL     1      -5.689  -2.759  -5.939  1.00  0.00     0.119 HD
ENDBRANCH  12  13
BRANCH  12  16
ATOM     16  C   UNL     1      -3.897  -1.799  -8.509  1.00  0.00     0.022 C 
BRANCH  16  17
ATOM     17  C   UNL     1      -2.665  -1.625  -7.610  1.00  0.00     0.002 C 
BRANCH  17  18
ATOM     18  C   UNL     1      -1.799  -2.873  -7.454  1.00  0.00     0.000 C 
BRANCH  18  19
ATOM     19  C   UNL     1      -0.473  -2.814  -8.223  1.00  0.00    -0.000 C 
BRANCH  19  20
ATOM     20  C   UNL     1      -0.136  -4.067  -9.036  1.00  0.00    -0.000 C 
BRANCH  20  21
ATOM     21  C   UNL     1      -0.148  -3.822 -10.547  1.00  0.00    -0.003 C 
ATOM     22  C   UNL     1      -0.825  -2.504 -10.890  1.00  0.00     0.004 C 
ENDBRANCH  20  21
ENDBRANCH  19  20
ENDBRANCH  18  19
ENDBRANCH  17  18
ENDBRANCH  16  17
ENDBRANCH  12  16
ENDBRANCH   9  12
ENDBRANCH   6   9
ENDBRANCH   3   5
ENDBRANCH   2   3
BRANCH   2  23
ATOM     23  N   UNL     1      -9.474  -1.329  -4.482  1.00  0.00    -0.332 N 
ATOM     24  C   UNL     1     -10.332  -2.001  -3.517  1.00  0.00     0.147 C 
BRANCH  23  25
ATOM     25  C   UNL     1      -8.493  -0.378  -3.892  1.00  0.00     0.174 C 
BRANCH  25  26
ATOM     26  C   UNL     1      -9.100   1.016  -3.608  1.00  0.00     0.038 C 
BRANCH  26  27
ATOM     27  C   UNL     1      -8.830   1.627  -2.216  1.00  0.00    -0.015 C 
ATOM     28  C   UNL     1      -9.260   0.702  -1.078  1.00  0.00     0.007 C 
ATOM     29  C   UNL     1      -7.385   2.082  -2.022  1.00  0.00     0.007 C 
ENDBRANCH  26  27
ENDBRANCH  25  26
BRANCH  25  30
ATOM     30  C   UNL     1      -7.211  -0.334  -4.755  1.00  0.00     0.243 C 
ATOM     31  O   UNL     1      -6.520  -1.334  -4.945  1.00  0.00    -0.273 OA
ATOM     32  N   UNL     1      -6.895   0.891  -5.285  1.00  0.00    -0.342 N 
ATOM     33  H   UNL     1      -7.589   1.637  -5.200  1.00  0.00     0.164 HD
BRANCH  32  34
ATOM     34  C   UNL     1      -5.703   1.126  -6.104  1.00  0.00     0.175 C 
BRANCH  34  35
ATOM     35  C   UNL     1      -6.009   2.071  -7.277  1.00  0.00     0.070 C 
BRANCH  35  36
ATOM     36  C   UNL     1      -5.244   1.713  -8.531  1.00  0.00    -0.045 A 
ATOM     37  C   UNL     1      -3.859   1.933  -8.596  1.00  0.00     0.007 A 
ATOM     38  C   UNL     1      -5.902   1.182  -9.648  1.00  0.00     0.007 A 
ATOM     39  C   UNL     1      -3.147   1.619  -9.753  1.00  0.00     0.046 A 
ATOM     40  C   UNL     1      -5.190   0.869 -10.808  1.00  0.00     0.046 A 
ATOM     41  C   UNL     1      -3.817   1.089 -10.849  1.00  0.00     0.115 A 
BRANCH  41  42
ATOM     42  O   UNL     1      -3.085   0.799 -11.962  1.00  0.00    -0.508 OA
ATOM     43  H   UNL     1      -3.335  -0.089 -12.269  1.00  0.00     0.293 HD
ENDBRANCH  41  42
ENDBRANCH  35  36
ENDBRANCH  34  35
BRANCH  34  44
ATOM     44  C   UNL     1      -4.593   1.686  -5.186  1.00  0.00     0.243 C 
ATOM     45  O   UNL     1      -3.897   1.001  -4.443  1.00  0.00    -0.273 OA
ATOM     46  N   UNL     1      -4.535   3.064  -5.173  1.00  0.00    -0.341 N 
ATOM     47  H   UNL     1      -5.212   3.592  -5.718  1.00  0.00     0.164 HD
BRANCH  46  48
ATOM     48  C   UNL     1      -3.610   3.823  -4.329  1.00  0.00     0.196 C 
BRANCH  48  49
ATOM     49  C   UNL     1      -2.827   4.862  -5.149  1.00  0.00     0.072 C 
BRANCH  49  50
ATOM     50  C   UNL     1      -1.781   4.231  -6.040  1.00  0.00    -0.045 A 
ATOM     51  C   UNL     1      -0.953   3.218  -5.536  1.00  0.00     0.007 A 
ATOM     52  C   UNL     1      -1.608   4.657  -7.363  1.00  0.00     0.007 A 
ATOM     53  C   UNL     1       0.025   2.637  -6.344  1.00  0.00     0.046 A 
ATOM     54  C   UNL     1      -0.629   4.077  -8.172  1.00  0.00     0.046 A 
ATOM     55  C   UNL     1       0.179   3.070  -7.655  1.00  0.00     0.115 A 
BRANCH  55  56
ATOM     56  O   UNL     1       1.147   2.479  -8.411  1.00  0.00    -0.508 OA
ATOM     57  H   UNL     1       0.886   1.559  -8.578  1.00  0.00     0.293 HD
ENDBRANCH  55  56
ENDBRANCH  49  50
ENDBRANCH  48  49
BRANCH  48  58
ATOM     58  C   UNL     1      -4.409   4.534  -3.227  1.00  0.00     0.326 C 
ATOM     59  O   UNL     1      -5.588   4.849  -3.255  1.00  0.00    -0.250 OA
BRANCH  58  60
ATOM     60  O   UNL     1      -3.678   4.804  -2.117  1.00  0.00    -0.480 OA
ATOM     61  H   UNL     1      -2.837   4.323  -2.277  1.00  0.00     0.296 HD
ENDBRANCH  58  60
ENDBRANCH  48  58
ENDBRANCH  46  48
ENDBRANCH  34  44
ENDBRANCH  32  34
ENDBRANCH  25  30
ENDBRANCH  23  25
ENDBRANCH   2  23
TORSDOF 28
ENDMDL
MODEL 10
REMARK VINA RESULT:    -6.677      2.912     10.755
REMARK INTER + INTRA:         -20.393
REMARK INTER:                 -16.636
REMARK INTRA:                  -3.757
REMARK UNBOUND:                -3.761
REMARK SMILES CCCCCCC[C@H](N)[C@H](O)C(=O)N[C@H](C)C(=O)N(C)[C@H](CC(C)C)C(=O)N[C@@H](Cc1ccc(O)cc1)C(=O)N[C@@H](Cc1ccc(O)cc1)C(=O)O
REMARK SMILES IDX 18 1 17 2 15 3 16 4 14 5 12 6 13 7 10 9 11 10 8 12 9 13 7 16
REMARK SMILES IDX 6 17 5 18 4 19 3 20 2 21 1 22 19 23 20 24 21 25 22 26 23 27
REMARK SMILES IDX 24 28 25 29 26 30 27 31 28 32 29 34 30 35 31 36 32 37 37 38
REMARK SMILES IDX 33 39 36 40 34 41 35 42 38 44 39 45 40 46 41 48 42 49 43 50
REMARK SMILES IDX 44 51 49 52 45 53 48 54 46 55 47 56 50 58 51 59 52 60
REMARK H PARENT 14 8 11 11 9 14 9 15 28 33 35 43 40 47 47 57 52 61
ROOT
ATOM      1  O   UNL     1      -6.763  -3.096  -9.458  1.00  0.00    -0.272 OA
ATOM      2  C   UNL     1      -6.469  -3.085  -8.253  1.00  0.00     0.245 C 
ENDROOT
BRANCH   2   3
ATOM      3  C   UNL     1      -7.218  -4.048  -7.298  1.00  0.00     0.168 C 
ATOM      4  C   UNL     1      -6.558  -5.422  -7.288  1.00  0.00     0.041 C 
BRANCH   3   5
ATOM      5  N   UNL     1      -7.424  -3.536  -5.952  1.00  0.00    -0.342 N 
ATOM      6  C   UNL     1      -8.529  -3.882  -5.203  1.00  0.00     0.251 C 
ATOM      7  O   UNL     1      -9.430  -4.602  -5.620  1.00  0.00    -0.272 OA
ATOM      8  H   UNL     1      -6.761  -2.902  -5.512  1.00  0.00     0.164 HD
BRANCH   6   9
ATOM      9  C   UNL     1      -8.466  -3.340  -3.766  1.00  0.00     0.219 C 
BRANCH   9  10
ATOM     10  O   UNL     1      -7.298  -2.546  -3.526  1.00  0.00    -0.382 OA
ATOM     11  H   UNL     1      -6.866  -2.994  -2.766  1.00  0.00     0.211 HD
ENDBRANCH   9  10
BRANCH   9  12
ATOM     12  C   UNL     1      -9.748  -2.575  -3.347  1.00  0.00     0.089 C 
BRANCH  12  13
ATOM     13  N   UNL     1     -10.718  -3.552  -2.802  1.00  0.00    -0.325 NA
ATOM     14  H   UNL     1     -11.598  -3.073  -2.598  1.00  0.00     0.119 HD
ATOM     15  H   UNL     1     -10.380  -3.885  -1.897  1.00  0.00     0.119 HD
ENDBRANCH  12  13
BRANCH  12  16
ATOM     16  C   UNL     1      -9.547  -1.411  -2.347  1.00  0.00     0.022 C 
BRANCH  16  17
ATOM     17  C   UNL     1      -9.917  -1.621  -0.872  1.00  0.00     0.002 C 
BRANCH  17  18
ATOM     18  C   UNL     1     -10.427  -0.375  -0.152  1.00  0.00     0.000 C 
BRANCH  18  19
ATOM     19  C   UNL     1      -9.564   0.054   1.042  1.00  0.00    -0.000 C 
BRANCH  19  20
ATOM     20  C   UNL     1     -10.141  -0.290   2.418  1.00  0.00    -0.000 C 
BRANCH  20  21
ATOM     21  C   UNL     1     -10.209  -1.797   2.680  1.00  0.00    -0.003 C 
ATOM     22  C   UNL     1     -11.643  -2.259   2.890  1.00  0.00     0.004 C 
ENDBRANCH  20  21
ENDBRANCH  19  20
ENDBRANCH  18  19
ENDBRANCH  17  18
ENDBRANCH  16  17
ENDBRANCH  12  16
ENDBRANCH   9  12
ENDBRANCH   6   9
ENDBRANCH   3   5
ENDBRANCH   2   3
BRANCH   2  23
ATOM     23  N   UNL     1      -5.404  -2.310  -7.804  1.00  0.00    -0.332 N 
ATOM     24  C   UNL     1      -4.167  -2.845  -7.255  1.00  0.00     0.147 C 
BRANCH  23  25
ATOM     25  C   UNL     1      -5.423  -0.832  -7.984  1.00  0.00     0.174 C 
BRANCH  25  26
ATOM     26  C   UNL     1      -4.135  -0.291  -8.650  1.00  0.00     0.038 C 
BRANCH  26  27
ATOM     27  C   UNL     1      -3.242   0.635  -7.795  1.00  0.00    -0.015 C 
ATOM     28  C   UNL     1      -1.906  -0.013  -7.433  1.00  0.00     0.007 C 
ATOM     29  C   UNL     1      -3.020   2.010  -8.419  1.00  0.00     0.007 C 
ENDBRANCH  26  27
ENDBRANCH  25  26
BRANCH  25  30
ATOM     30  C   UNL     1      -5.771  -0.138  -6.648  1.00  0.00     0.243 C 
ATOM     31  O   UNL     1      -5.912  -0.772  -5.603  1.00  0.00    -0.273 OA
ATOM     32  N   UNL     1      -5.916   1.224  -6.708  1.00  0.00    -0.342 N 
ATOM     33  H   UNL     1      -5.645   1.692  -7.576  1.00  0.00     0.164 HD
BRANCH  32  34
ATOM     34  C   UNL     1      -6.272   2.045  -5.547  1.00  0.00     0.175 C 
BRANCH  34  35
ATOM     35  C   UNL     1      -7.328   1.349  -4.673  1.00  0.00     0.070 C 
BRANCH  35  36
ATOM     36  C   UNL     1      -8.121   2.321  -3.829  1.00  0.00    -0.045 A 
ATOM     37  C   UNL     1      -8.181   3.676  -4.189  1.00  0.00     0.007 A 
ATOM     38  C   UNL     1      -8.784   1.893  -2.672  1.00  0.00     0.007 A 
ATOM     39  C   UNL     1      -8.899   4.583  -3.409  1.00  0.00     0.046 A 
ATOM     40  C   UNL     1      -9.502   2.801  -1.889  1.00  0.00     0.046 A 
ATOM     41  C   UNL     1      -9.554   4.139  -2.266  1.00  0.00     0.115 A 
BRANCH  41  42
ATOM     42  O   UNL     1     -10.241   5.057  -1.530  1.00  0.00    -0.508 OA
ATOM     43  H   UNL     1      -9.696   5.304  -0.764  1.00  0.00     0.293 HD
ENDBRANCH  41  42
ENDBRANCH  35  36
ENDBRANCH  34  35
BRANCH  34  44
ATOM     44  C   UNL     1      -4.977   2.345  -4.758  1.00  0.00     0.243 C 
ATOM     45  O   UNL     1      -4.444   1.562  -3.976  1.00  0.00    -0.273 OA
ATOM     46  N   UNL     1      -4.531   3.640  -4.909  1.00  0.00    -0.341 N 
ATOM     47  H   UNL     1      -5.073   4.287  -5.476  1.00  0.00     0.164 HD
BRANCH  46  48
ATOM     48  C   UNL     1      -3.362   4.177  -4.207  1.00  0.00     0.196 C 
BRANCH  48  49
ATOM     49  C   UNL     1      -2.587   5.170  -5.089  1.00  0.00     0.072 C 
BRANCH  49  50
ATOM     50  C   UNL     1      -1.536   4.494  -5.941  1.00  0.00    -0.045 A 
ATOM     51  C   UNL     1      -0.900   3.334  -5.476  1.00  0.00     0.007 A 
ATOM     52  C   UNL     1      -1.169   5.021  -7.186  1.00  0.00     0.007 A 
ATOM     53  C   UNL     1       0.080   2.709  -6.247  1.00  0.00     0.046 A 
ATOM     54  C   UNL     1      -0.187   4.396  -7.957  1.00  0.00     0.046 A 
ATOM     55  C   UNL     1       0.429   3.244  -7.482  1.00  0.00     0.115 A 
BRANCH  55  56
ATOM     56  O   UNL     1       1.392   2.604  -8.204  1.00  0.00    -0.508 OA
ATOM     57  H   UNL     1       0.989   1.837  -8.641  1.00  0.00     0.293 HD
ENDBRANCH  55  56
ENDBRANCH  49  50
ENDBRANCH  48  49
BRANCH  48  58
ATOM     58  C   UNL     1      -3.830   4.882  -2.926  1.00  0.00     0.326 C 
ATOM     59  O   UNL     1      -4.853   5.527  -2.769  1.00  0.00    -0.250 OA
BRANCH  58  60
ATOM     60  O   UNL     1      -2.979   4.726  -1.881  1.00  0.00    -0.480 OA
ATOM     61  H   UNL     1      -3.568   4.786  -1.098  1.00  0.00     0.296 HD
ENDBRANCH  58  60
ENDBRANCH  48  58
ENDBRANCH  46  48
ENDBRANCH  34  44
ENDBRANCH  32  34
ENDBRANCH  25  30
ENDBRANCH  23  25
ENDBRANCH   2  23
TORSDOF 28
ENDMDL
