MODEL 1
REMARK VINA RESULT:    -5.946      0.000      0.000
REMARK INTER + INTRA:         -27.657
REMARK INTER:                 -17.765
REMARK INTRA:                  -9.892
REMARK UNBOUND:                -9.892
REMARK SMILES C=C1C(=O)N[C@H](C)C(=O)N[C@@H](CC(C)C)C(=O)N[C@@H](C(=O)O)[C@H](C)C(=O)N[C@@H](CCCN=C(N)N)C(=O)N[C@@H](/C=C/C(C)=C/[C@H](C)[C@H](Cc2ccccc2)OC)[C@H](C)C(=O)N[C@@H](C(=O)O)CCC(=O)N1C
REMARK SMILES IDX 39 1 38 2 37 3 36 4 28 6 27 7 25 8 26 9 23 11 24 12 19 13
REMARK SMILES IDX 18 14 16 15 17 16 11 18 10 19 8 20 9 21 12 24 13 25 14 26
REMARK SMILES IDX 15 27 20 28 21 29 22 30 29 32 30 33 31 34 32 35 33 36 34 37
REMARK SMILES IDX 35 38 57 43 58 44 59 45 60 46 61 47 62 49 66 50 67 51 68 52
REMARK SMILES IDX 69 53 70 54 71 55 2 56 1 57 3 58 4 59 5 60 6 62 7 63 63 65
REMARK SMILES IDX 64 66 65 67 40 69 41 70 42 71 44 72 43 73 45 74 46 75 47 76
REMARK SMILES IDX 55 77 56 78 48 79 49 80 50 81 54 82 51 83 53 84 52 85
REMARK H PARENT 38 5 27 10 18 17 10 22 22 31 34 39 34 40 35 41 35 42 61 48
REMARK H PARENT 5 61 65 68
REMARK Flexibility Score:  369.900
ROOT
ATOM      1  C   UNL     1     -10.760  -2.213   2.887  1.00  0.00     0.117 C 
ENDROOT
BRANCH   1   2
ATOM      2  N   UNL     1     -10.816  -3.121   1.740  1.00  0.00    -0.347 N 
ATOM      3  O   UNL     1     -13.010  -2.764   1.166  1.00  0.00    -0.273 OA
ATOM      4  C   UNL     1     -11.915  -3.255   0.913  1.00  0.00     0.243 C 
ATOM      5  H   UNL     1      -9.997  -3.655   1.491  1.00  0.00     0.164 HD
BRANCH   4   6
ATOM      6  C   UNL     1     -11.684  -4.218  -0.279  1.00  0.00     0.171 C 
BRANCH   6   7
ATOM      7  N   UNL     1     -11.700  -5.617   0.180  1.00  0.00    -0.344 N 
ATOM      8  C   UNL     1     -10.540  -6.233   0.595  1.00  0.00     0.226 C 
ATOM      9  O   UNL     1      -9.452  -5.670   0.584  1.00  0.00    -0.275 OA
ATOM     10  H   UNL     1     -12.568  -6.136   0.140  1.00  0.00     0.164 HD
BRANCH   8  11
ATOM     11  C   UNL     1     -10.730  -7.657   1.089  1.00  0.00     0.109 C 
ATOM     12  C   UNL     1     -12.220  -7.984   1.188  1.00  0.00     0.021 C 
BRANCH  11  13
ATOM     13  C   UNL     1      -9.910  -8.626   0.216  1.00  0.00     0.204 C 
BRANCH  13  14
ATOM     14  N   UNL     1      -9.460  -7.999  -1.031  1.00  0.00    -0.340 N 
ATOM     15  C   UNL     1      -9.972  -8.336  -2.265  1.00  0.00     0.243 C 
ATOM     16  O   UNL     1     -10.888  -9.145  -2.402  1.00  0.00    -0.273 OA
ATOM     17  H   UNL     1      -8.605  -7.437  -1.005  1.00  0.00     0.164 HD
BRANCH  15  18
ATOM     18  C   UNL     1      -9.203  -7.699  -3.449  1.00  0.00     0.171 C 
BRANCH  18  19
ATOM     19  N   UNL     1      -9.693  -8.347  -4.664  1.00  0.00    -0.343 N 
ATOM     20  C   UNL     1      -8.858  -8.626  -5.729  1.00  0.00     0.242 CG0
ATOM     21  O   UNL     1      -7.697  -8.223  -5.758  1.00  0.00    -0.273 OA
ATOM     22  H   UNL     1     -10.673  -8.596  -4.734  1.00  0.00     0.164 HD
ATOM     23  G   UNL     1      -9.536  -9.383  -6.889  1.00  0.00     0.000 G0
ENDBRANCH  18  19
BRANCH  18  24
ATOM     24  C   UNL     1      -9.431  -6.183  -3.490  1.00  0.00     0.038 C 
BRANCH  24  25
ATOM     25  C   UNL     1      -8.191  -5.335  -3.138  1.00  0.00    -0.015 C 
ATOM     26  C   UNL     1      -8.551  -4.054  -2.385  1.00  0.00     0.007 C 
ATOM     27  C   UNL     1      -7.429  -4.982  -4.419  1.00  0.00     0.007 C 
ENDBRANCH  24  25
ENDBRANCH  18  24
ENDBRANCH  15  18
ENDBRANCH  13  14
BRANCH  13  28
ATOM     28  C   UNL     1      -8.666  -9.172   0.924  1.00  0.00     0.327 C 
ATOM     29  O   UNL     1      -7.507  -8.867   0.687  1.00  0.00    -0.250 OA
BRANCH  28  30
ATOM     30  O   UNL     1      -8.947 -10.153   1.805  1.00  0.00    -0.480 OA
ATOM     31  H   UNL     1      -9.153 -10.929   1.243  1.00  0.00     0.296 HD
ENDBRANCH  28  30
ENDBRANCH  13  28
ENDBRANCH  11  13
ENDBRANCH   8  11
ENDBRANCH   6   7
BRANCH   6  32
ATOM     32  C   UNL     1     -12.765  -3.977  -1.338  1.00  0.00     0.037 C 
BRANCH  32  33
ATOM     33  C   UNL     1     -12.214  -3.251  -2.573  1.00  0.00     0.026 C 
BRANCH  33  34
ATOM     34  C   UNL     1     -13.068  -2.047  -2.973  1.00  0.00     0.146 C 
BRANCH  34  35
ATOM     35  N   UNL     1     -13.818  -1.595  -1.810  1.00  0.00    -0.254 NA
ATOM     36  C   UNL     1     -13.505  -0.474  -1.275  1.00  0.00     0.185 C 
ATOM     37  N   UNL     1     -14.193  -0.045  -0.205  1.00  0.00    -0.370 N 
ATOM     38  N   UNL     1     -12.544   0.395  -1.635  1.00  0.00    -0.370 N 
ATOM     39  H   UNL     1     -14.943  -0.641   0.121  1.00  0.00     0.159 HD
ATOM     40  H   UNL     1     -14.127   0.890   0.160  1.00  0.00     0.159 HD
ATOM     41  H   UNL     1     -12.304   1.178  -1.050  1.00  0.00     0.159 HD
ATOM     42  H   UNL     1     -11.937   0.194  -2.415  1.00  0.00     0.159 HD
ENDBRANCH  34  35
ENDBRANCH  33  34
ENDBRANCH  32  33
ENDBRANCH   6  32
ENDBRANCH   4   6
ENDBRANCH   1   2
BRANCH   1  43
ATOM     43  C   UNL     1      -9.393  -1.470   2.862  1.00  0.00     0.102 C 
ATOM     44  C   UNL     1      -9.275  -0.443   1.723  1.00  0.00     0.020 C 
BRANCH  43  45
ATOM     45  C   UNL     1      -8.227  -2.460   2.930  1.00  0.00     0.225 C 
ATOM     46  O   UNL     1      -7.827  -3.092   1.956  1.00  0.00    -0.275 OA
ATOM     47  N   UNL     1      -7.703  -2.674   4.184  1.00  0.00    -0.342 N 
ATOM     48  H   UNL     1      -7.936  -2.043   4.938  1.00  0.00     0.164 HD
BRANCH  47  49
ATOM     49  C   UNL     1      -6.560  -3.568   4.395  1.00  0.00     0.192 C 
BRANCH  49  50
ATOM     50  C   UNL     1      -6.588  -4.109   5.827  1.00  0.00     0.047 C 
BRANCH  50  51
ATOM     51  C   UNL     1      -7.857  -3.691   6.582  1.00  0.00     0.103 C 
BRANCH  51  52
ATOM     52  C   UNL     1      -7.636  -2.437   7.425  1.00  0.00     0.226 C 
ATOM     53  O   UNL     1      -6.780  -1.617   7.086  1.00  0.00    -0.275 OA
BRANCH  52  54
ATOM     54  N   UNL     1      -8.500  -2.258   8.521  1.00  0.00    -0.311 N 
ATOM     55  C   UNL     1      -8.588  -3.265   9.587  1.00  0.00     0.153 C 
BRANCH  54  56
ATOM     56  C   UNL     1      -9.304  -1.112   8.641  1.00  0.00     0.102 C 
ATOM     57  C   UNL     1     -10.279  -0.764   7.786  1.00  0.00     0.043 C 
BRANCH  56  58
ATOM     58  C   UNL     1      -9.148  -0.176   9.817  1.00  0.00     0.268 C 
ATOM     59  O   UNL     1     -10.093   0.374  10.365  1.00  0.00    -0.268 OA
ATOM     60  N   UNL     1      -7.847  -0.058  10.245  1.00  0.00    -0.339 N 
ATOM     61  H   UNL     1      -7.119  -0.538   9.729  1.00  0.00     0.164 HD
BRANCH  60  62
ATOM     62  C   UNL     1      -7.479   0.749  11.407  1.00  0.00     0.168 CG0
ATOM     63  C   UNL     1      -7.419  -0.104  12.668  1.00  0.00     0.041 C 
ATOM     64  G   UNL     1      -8.490   1.902  11.577  1.00  0.00     0.000 G0
ENDBRANCH  60  62
ENDBRANCH  56  58
ENDBRANCH  54  56
ENDBRANCH  52  54
ENDBRANCH  51  52
ENDBRANCH  50  51
ENDBRANCH  49  50
BRANCH  49  65
ATOM     65  C   UNL     1      -5.225  -2.849   4.148  1.00  0.00     0.326 C 
ATOM     66  O   UNL     1      -4.281  -3.300   3.516  1.00  0.00    -0.250 OA
BRANCH  65  67
ATOM     67  O   UNL     1      -5.115  -1.643   4.747  1.00  0.00    -0.480 OA
ATOM     68  H   UNL     1      -4.415  -1.782   5.420  1.00  0.00     0.296 HD
ENDBRANCH  65  67
ENDBRANCH  49  65
ENDBRANCH  47  49
ENDBRANCH  43  45
ENDBRANCH   1  43
BRANCH   1  69
ATOM     69  C   UNL     1     -11.121  -3.045   4.104  1.00  0.00    -0.001 C 
ATOM     70  C   UNL     1     -12.352  -3.376   4.531  1.00  0.00     0.001 C 
BRANCH  70  71
ATOM     71  C   UNL     1     -12.687  -4.197   5.696  1.00  0.00    -0.055 C 
ATOM     72  C   UNL     1     -12.067  -3.916   6.862  1.00  0.00    -0.018 C 
ATOM     73  C   UNL     1     -13.706  -5.292   5.514  1.00  0.00     0.044 C 
BRANCH  72  74
ATOM     74  C   UNL     1     -12.217  -4.590   8.219  1.00  0.00     0.038 C 
ATOM     75  C   UNL     1     -12.318  -3.476   9.268  1.00  0.00     0.015 C 
BRANCH  74  76
ATOM     76  C   UNL     1     -11.027  -5.573   8.423  1.00  0.00     0.128 C 
BRANCH  76  77
ATOM     77  O   UNL     1     -10.878  -5.880   9.820  1.00  0.00    -0.381 OA
ATOM     78  C   UNL     1     -11.124  -7.244  10.135  1.00  0.00     0.195 C 
ENDBRANCH  76  77
BRANCH  76  79
ATOM     79  C   UNL     1     -11.099  -6.841   7.536  1.00  0.00     0.068 C 
BRANCH  79  80
ATOM     80  C   UNL     1     -10.014  -7.047   6.507  1.00  0.00    -0.045 A 
ATOM     81  C   UNL     1      -8.744  -7.507   6.879  1.00  0.00     0.004 A 
ATOM     82  C   UNL     1     -10.254  -6.751   5.156  1.00  0.00     0.004 A 
ATOM     83  C   UNL     1      -7.741  -7.681   5.923  1.00  0.00     0.000 A 
ATOM     84  C   UNL     1      -9.250  -6.925   4.201  1.00  0.00     0.000 A 
ATOM     85  C   UNL     1      -7.994  -7.391   4.585  1.00  0.00     0.000 A 
ENDBRANCH  79  80
ENDBRANCH  76  79
ENDBRANCH  74  76
ENDBRANCH  72  74
ENDBRANCH  70  71
ENDBRANCH   1  69
TORSDOF 17
ENDMDL
MODEL 2
REMARK VINA RESULT:    -5.539      1.837      2.603
REMARK INTER + INTRA:         -26.442
REMARK INTER:                 -17.424
REMARK INTRA:                  -9.018
REMARK UNBOUND:                -9.892
REMARK SMILES C=C1C(=O)N[C@H](C)C(=O)N[C@@H](CC(C)C)C(=O)N[C@@H](C(=O)O)[C@H](C)C(=O)N[C@@H](CCCN=C(N)N)C(=O)N[C@@H](/C=C/C(C)=C/[C@H](C)[C@H](Cc2ccccc2)OC)[C@H](C)C(=O)N[C@@H](C(=O)O)CCC(=O)N1C
REMARK SMILES IDX 39 1 38 2 37 3 36 4 28 6 27 7 25 8 26 9 23 11 24 12 19 13
REMARK SMILES IDX 18 14 16 15 17 16 11 18 10 19 8 20 9 21 12 24 13 25 14 26
REMARK SMILES IDX 15 27 20 28 21 29 22 30 29 32 30 33 31 34 32 35 33 36 34 37
REMARK SMILES IDX 35 38 57 43 58 44 59 45 60 46 61 47 62 49 66 50 67 51 68 52
REMARK SMILES IDX 69 53 70 54 71 55 2 56 1 57 3 58 4 59 5 60 6 62 7 63 63 65
REMARK SMILES IDX 64 66 65 67 40 69 41 70 42 71 44 72 43 73 45 74 46 75 47 76
REMARK SMILES IDX 55 77 56 78 48 79 49 80 50 81 54 82 51 83 53 84 52 85
REMARK H PARENT 38 5 27 10 18 17 10 22 22 31 34 39 34 40 35 41 35 42 61 48
REMARK H PARENT 5 61 65 68
REMARK Flexibility Score:  369.900
ROOT
ATOM      1  C   UNL     1      -9.718  -1.740   3.088  1.00  0.00     0.117 C 
ENDROOT
BRANCH   1   2
ATOM      2  N   UNL     1      -9.721  -2.672   1.960  1.00  0.00    -0.347 N 
ATOM      3  O   UNL     1     -11.987  -2.707   1.590  1.00  0.00    -0.273 OA
ATOM      4  C   UNL     1     -10.851  -3.011   1.240  1.00  0.00     0.243 C 
ATOM      5  H   UNL     1      -8.849  -3.065   1.640  1.00  0.00     0.164 HD
BRANCH   4   6
ATOM      6  C   UNL     1     -10.567  -3.950   0.040  1.00  0.00     0.171 C 
BRANCH   6   7
ATOM      7  N   UNL     1     -11.000  -5.322   0.347  1.00  0.00    -0.344 N 
ATOM      8  C   UNL     1     -10.186  -6.173   1.062  1.00  0.00     0.226 C 
ATOM      9  O   UNL     1      -9.071  -5.847   1.453  1.00  0.00    -0.275 OA
ATOM     10  H   UNL     1     -11.886  -5.650  -0.017  1.00  0.00     0.164 HD
BRANCH   8  11
ATOM     11  C   UNL     1     -10.797  -7.535   1.344  1.00  0.00     0.109 C 
ATOM     12  C   UNL     1     -12.318  -7.466   1.211  1.00  0.00     0.021 C 
BRANCH  11  13
ATOM     13  C   UNL     1     -10.117  -8.604   0.466  1.00  0.00     0.204 C 
BRANCH  13  14
ATOM     14  N   UNL     1      -9.543  -8.031  -0.755  1.00  0.00    -0.340 N 
ATOM     15  C   UNL     1      -9.996  -8.350  -2.017  1.00  0.00     0.243 C 
ATOM     16  O   UNL     1     -10.957  -9.094  -2.204  1.00  0.00    -0.273 OA
ATOM     17  H   UNL     1      -8.653  -7.530  -0.679  1.00  0.00     0.164 HD
BRANCH  15  18
ATOM     18  C   UNL     1      -9.107  -7.789  -3.154  1.00  0.00     0.171 C 
BRANCH  18  19
ATOM     19  N   UNL     1      -9.694  -8.252  -4.410  1.00  0.00    -0.343 N 
ATOM     20  C   UNL     1      -8.918  -8.516  -5.523  1.00  0.00     0.242 CG0
ATOM     21  O   UNL     1      -7.719  -8.248  -5.549  1.00  0.00    -0.273 OA
ATOM     22  H   UNL     1     -10.697  -8.378  -4.474  1.00  0.00     0.164 HD
ATOM     23  G   UNL     1      -9.703  -9.070  -6.729  1.00  0.00     0.000 G0
ENDBRANCH  18  19
BRANCH  18  24
ATOM     24  C   UNL     1      -9.051  -6.258  -3.091  1.00  0.00     0.038 C 
BRANCH  24  25
ATOM     25  C   UNL     1      -7.625  -5.667  -3.041  1.00  0.00    -0.015 C 
ATOM     26  C   UNL     1      -6.893  -6.014  -1.745  1.00  0.00     0.007 C 
ATOM     27  C   UNL     1      -7.692  -4.146  -3.204  1.00  0.00     0.007 C 
ENDBRANCH  24  25
ENDBRANCH  18  24
ENDBRANCH  15  18
ENDBRANCH  13  14
BRANCH  13  28
ATOM     28  C   UNL     1      -8.992  -9.352   1.189  1.00  0.00     0.327 C 
ATOM     29  O   UNL     1      -8.347  -8.943   2.142  1.00  0.00    -0.250 OA
BRANCH  28  30
ATOM     30  O   UNL     1      -8.667 -10.518   0.595  1.00  0.00    -0.480 OA
ATOM     31  H   UNL     1      -8.418 -10.263  -0.318  1.00  0.00     0.296 HD
ENDBRANCH  28  30
ENDBRANCH  13  28
ENDBRANCH  11  13
ENDBRANCH   8  11
ENDBRANCH   6   7
BRANCH   6  32
ATOM     32  C   UNL     1     -11.288  -3.413  -1.201  1.00  0.00     0.037 C 
BRANCH  32  33
ATOM     33  C   UNL     1     -12.629  -4.120  -1.443  1.00  0.00     0.026 C 
BRANCH  33  34
ATOM     34  C   UNL     1     -13.817  -3.161  -1.375  1.00  0.00     0.146 C 
BRANCH  34  35
ATOM     35  N   UNL     1     -13.411  -1.871  -1.916  1.00  0.00    -0.254 NA
ATOM     36  C   UNL     1     -13.445  -0.845  -1.149  1.00  0.00     0.185 C 
ATOM     37  N   UNL     1     -13.068   0.348  -1.635  1.00  0.00    -0.370 N 
ATOM     38  N   UNL     1     -13.818  -0.767   0.141  1.00  0.00    -0.370 N 
ATOM     39  H   UNL     1     -12.762   0.369  -2.599  1.00  0.00     0.159 HD
ATOM     40  H   UNL     1     -12.901   1.155  -1.059  1.00  0.00     0.159 HD
ATOM     41  H   UNL     1     -13.934   0.124   0.596  1.00  0.00     0.159 HD
ATOM     42  H   UNL     1     -14.141  -1.586   0.632  1.00  0.00     0.159 HD
ENDBRANCH  34  35
ENDBRANCH  33  34
ENDBRANCH  32  33
ENDBRANCH   6  32
ENDBRANCH   4   6
ENDBRANCH   1   2
BRANCH   1  43
ATOM     43  C   UNL     1      -8.448  -0.846   2.988  1.00  0.00     0.102 C 
ATOM     44  C   UNL     1      -8.440   0.068   1.751  1.00  0.00     0.020 C 
BRANCH  43  45
ATOM     45  C   UNL     1      -7.174  -1.680   3.153  1.00  0.00     0.225 C 
ATOM     46  O   UNL     1      -6.931  -2.675   2.477  1.00  0.00    -0.275 OA
ATOM     47  N   UNL     1      -6.346  -1.298   4.184  1.00  0.00    -0.342 N 
ATOM     48  H   UNL     1      -6.480  -0.400   4.627  1.00  0.00     0.164 HD
BRANCH  47  49
ATOM     49  C   UNL     1      -5.075  -1.981   4.439  1.00  0.00     0.192 C 
BRANCH  49  50
ATOM     50  C   UNL     1      -4.732  -1.892   5.928  1.00  0.00     0.047 C 
BRANCH  50  51
ATOM     51  C   UNL     1      -5.815  -2.524   6.814  1.00  0.00     0.103 C 
BRANCH  51  52
ATOM     52  C   UNL     1      -5.875  -1.876   8.196  1.00  0.00     0.226 C 
ATOM     53  O   UNL     1      -6.886  -1.259   8.537  1.00  0.00    -0.275 OA
BRANCH  52  54
ATOM     54  N   UNL     1      -4.771  -2.097   9.040  1.00  0.00    -0.311 N 
ATOM     55  C   UNL     1      -4.372  -3.458   9.423  1.00  0.00     0.153 C 
BRANCH  54  56
ATOM     56  C   UNL     1      -4.008  -1.030   9.542  1.00  0.00     0.102 C 
ATOM     57  C   UNL     1      -2.773  -0.706   9.125  1.00  0.00     0.043 C 
BRANCH  56  58
ATOM     58  C   UNL     1      -4.566  -0.107  10.599  1.00  0.00     0.268 C 
ATOM     59  O   UNL     1      -4.121   1.012  10.814  1.00  0.00    -0.268 OA
ATOM     60  N   UNL     1      -5.662  -0.627  11.246  1.00  0.00    -0.339 N 
ATOM     61  H   UNL     1      -5.962  -1.568  11.017  1.00  0.00     0.164 HD
BRANCH  60  62
ATOM     62  C   UNL     1      -6.396   0.124  12.263  1.00  0.00     0.168 CG0
ATOM     63  C   UNL     1      -7.835   0.373  11.827  1.00  0.00     0.041 C 
ATOM     64  G   UNL     1      -5.672   1.458  12.543  1.00  0.00     0.000 G0
ENDBRANCH  60  62
ENDBRANCH  56  58
ENDBRANCH  54  56
ENDBRANCH  52  54
ENDBRANCH  51  52
ENDBRANCH  50  51
ENDBRANCH  49  50
BRANCH  49  65
ATOM     65  C   UNL     1      -3.929  -1.372   3.616  1.00  0.00     0.326 C 
ATOM     66  O   UNL     1      -3.181  -0.481   3.990  1.00  0.00    -0.250 OA
BRANCH  65  67
ATOM     67  O   UNL     1      -3.817  -1.859   2.360  1.00  0.00    -0.480 OA
ATOM     68  H   UNL     1      -3.431  -1.110   1.856  1.00  0.00     0.296 HD
ENDBRANCH  65  67
ENDBRANCH  49  65
ENDBRANCH  47  49
ENDBRANCH  43  45
ENDBRANCH   1  43
BRANCH   1  69
ATOM     69  C   UNL     1      -9.926  -2.582   4.334  1.00  0.00    -0.001 C 
ATOM     70  C   UNL     1      -9.801  -2.191   5.614  1.00  0.00     0.001 C 
BRANCH  70  71
ATOM     71  C   UNL     1     -10.025  -3.007   6.809  1.00  0.00    -0.055 C 
ATOM     72  C   UNL     1      -9.114  -3.958   7.099  1.00  0.00    -0.018 C 
ATOM     73  C   UNL     1     -11.253  -2.721   7.634  1.00  0.00     0.044 C 
BRANCH  72  74
ATOM     74  C   UNL     1      -9.084  -4.941   8.261  1.00  0.00     0.038 C 
ATOM     75  C   UNL     1      -7.955  -4.498   9.200  1.00  0.00     0.015 C 
BRANCH  74  76
ATOM     76  C   UNL     1      -8.932  -6.383   7.694  1.00  0.00     0.128 C 
BRANCH  76  77
ATOM     77  O   UNL     1      -8.040  -7.146   8.524  1.00  0.00    -0.381 OA
ATOM     78  C   UNL     1      -8.593  -8.375   8.977  1.00  0.00     0.195 C 
ENDBRANCH  76  77
BRANCH  76  79
ATOM     79  C   UNL     1     -10.280  -7.105   7.441  1.00  0.00     0.068 C 
BRANCH  79  80
ATOM     80  C   UNL     1     -11.259  -6.460   6.490  1.00  0.00    -0.045 A 
ATOM     81  C   UNL     1     -10.941  -6.282   5.137  1.00  0.00     0.004 A 
ATOM     82  C   UNL     1     -12.501  -6.002   6.956  1.00  0.00     0.004 A 
ATOM     83  C   UNL     1     -11.847  -5.672   4.267  1.00  0.00     0.000 A 
ATOM     84  C   UNL     1     -13.406  -5.391   6.085  1.00  0.00     0.000 A 
ATOM     85  C   UNL     1     -13.079  -5.228   4.740  1.00  0.00     0.000 A 
ENDBRANCH  79  80
ENDBRANCH  76  79
ENDBRANCH  74  76
ENDBRANCH  72  74
ENDBRANCH  70  71
ENDBRANCH   1  69
TORSDOF 17
ENDMDL
MODEL 3
REMARK VINA RESULT:    -5.457      2.233      3.236
REMARK INTER + INTRA:         -26.197
REMARK INTER:                 -17.533
REMARK INTRA:                  -8.665
REMARK UNBOUND:                -9.892
REMARK SMILES C=C1C(=O)N[C@H](C)C(=O)N[C@@H](CC(C)C)C(=O)N[C@@H](C(=O)O)[C@H](C)C(=O)N[C@@H](CCCN=C(N)N)C(=O)N[C@@H](/C=C/C(C)=C/[C@H](C)[C@H](Cc2ccccc2)OC)[C@H](C)C(=O)N[C@@H](C(=O)O)CCC(=O)N1C
REMARK SMILES IDX 39 1 38 2 37 3 36 4 28 6 27 7 25 8 26 9 23 11 24 12 19 13
REMARK SMILES IDX 18 14 16 15 17 16 11 18 10 19 8 20 9 21 12 24 13 25 14 26
REMARK SMILES IDX 15 27 20 28 21 29 22 30 29 32 30 33 31 34 32 35 33 36 34 37
REMARK SMILES IDX 35 38 57 43 58 44 59 45 60 46 61 47 62 49 66 50 67 51 68 52
REMARK SMILES IDX 69 53 70 54 71 55 2 56 1 57 3 58 4 59 5 60 6 62 7 63 63 65
REMARK SMILES IDX 64 66 65 67 40 69 41 70 42 71 44 72 43 73 45 74 46 75 47 76
REMARK SMILES IDX 55 77 56 78 48 79 49 80 50 81 54 82 51 83 53 84 52 85
REMARK H PARENT 38 5 27 10 18 17 10 22 22 31 34 39 34 40 35 41 35 42 61 48
REMARK H PARENT 5 61 65 68
REMARK Flexibility Score:  369.900
ROOT
ATOM      1  C   UNL     1      -9.089  -1.707   4.155  1.00  0.00     0.117 C 
ENDROOT
BRANCH   1   2
ATOM      2  N   UNL     1      -9.198  -2.525   2.946  1.00  0.00    -0.347 N 
ATOM      3  O   UNL     1     -11.455  -2.278   2.604  1.00  0.00    -0.273 OA
ATOM      4  C   UNL     1     -10.361  -2.671   2.214  1.00  0.00     0.243 C 
ATOM      5  H   UNL     1      -8.375  -2.979   2.581  1.00  0.00     0.164 HD
BRANCH   4   6
ATOM      6  C   UNL     1     -10.185  -3.521   0.930  1.00  0.00     0.171 C 
BRANCH   6   7
ATOM      7  N   UNL     1     -10.790  -4.850   1.106  1.00  0.00    -0.344 N 
ATOM      8  C   UNL     1      -9.998  -5.967   1.262  1.00  0.00     0.226 C 
ATOM      9  O   UNL     1      -8.774  -5.917   1.239  1.00  0.00    -0.275 OA
ATOM     10  H   UNL     1     -11.797  -4.941   1.063  1.00  0.00     0.164 HD
BRANCH   8  11
ATOM     11  C   UNL     1     -10.770  -7.255   1.488  1.00  0.00     0.109 C 
ATOM     12  C   UNL     1     -12.272  -6.993   1.382  1.00  0.00     0.021 C 
BRANCH  11  13
ATOM     13  C   UNL     1     -10.236  -8.356   0.549  1.00  0.00     0.204 C 
BRANCH  13  14
ATOM     14  N   UNL     1      -9.634  -7.799  -0.666  1.00  0.00    -0.340 N 
ATOM     15  C   UNL     1     -10.038  -8.159  -1.934  1.00  0.00     0.243 C 
ATOM     16  O   UNL     1     -10.976  -8.928  -2.134  1.00  0.00    -0.273 OA
ATOM     17  H   UNL     1      -8.758  -7.277  -0.573  1.00  0.00     0.164 HD
BRANCH  15  18
ATOM     18  C   UNL     1      -9.125  -7.605  -3.055  1.00  0.00     0.171 C 
BRANCH  18  19
ATOM     19  N   UNL     1      -9.718  -8.023  -4.323  1.00  0.00    -0.343 N 
ATOM     20  C   UNL     1      -8.943  -8.332  -5.424  1.00  0.00     0.242 CG0
ATOM     21  O   UNL     1      -7.729  -8.142  -5.430  1.00  0.00    -0.273 OA
ATOM     22  H   UNL     1     -10.727  -8.084  -4.404  1.00  0.00     0.164 HD
ATOM     23  G   UNL     1      -9.742  -8.828  -6.647  1.00  0.00     0.000 G0
ENDBRANCH  18  19
BRANCH  18  24
ATOM     24  C   UNL     1      -9.017  -6.078  -2.961  1.00  0.00     0.038 C 
BRANCH  24  25
ATOM     25  C   UNL     1      -7.573  -5.533  -2.952  1.00  0.00    -0.015 C 
ATOM     26  C   UNL     1      -7.147  -5.027  -1.574  1.00  0.00     0.007 C 
ATOM     27  C   UNL     1      -7.443  -4.404  -3.978  1.00  0.00     0.007 C 
ENDBRANCH  24  25
ENDBRANCH  18  24
ENDBRANCH  15  18
ENDBRANCH  13  14
BRANCH  13  28
ATOM     28  C   UNL     1      -9.183  -9.252   1.208  1.00  0.00     0.327 C 
ATOM     29  O   UNL     1      -8.764 -10.314   0.774  1.00  0.00    -0.250 OA
BRANCH  28  30
ATOM     30  O   UNL     1      -8.808  -8.818   2.429  1.00  0.00    -0.480 OA
ATOM     31  H   UNL     1      -8.128  -8.137   2.244  1.00  0.00     0.296 HD
ENDBRANCH  28  30
ENDBRANCH  13  28
ENDBRANCH  11  13
ENDBRANCH   8  11
ENDBRANCH   6   7
BRANCH   6  32
ATOM     32  C   UNL     1     -10.822  -2.783  -0.253  1.00  0.00     0.037 C 
BRANCH  32  33
ATOM     33  C   UNL     1     -11.088  -3.716  -1.443  1.00  0.00     0.026 C 
BRANCH  33  34
ATOM     34  C   UNL     1     -12.572  -3.798  -1.802  1.00  0.00     0.146 C 
BRANCH  34  35
ATOM     35  N   UNL     1     -12.709  -4.478  -3.082  1.00  0.00    -0.254 NA
ATOM     36  C   UNL     1     -12.934  -5.739  -3.086  1.00  0.00     0.185 C 
ATOM     37  N   UNL     1     -13.067  -6.376  -4.260  1.00  0.00    -0.370 N 
ATOM     38  N   UNL     1     -13.068  -6.577  -2.043  1.00  0.00    -0.370 N 
ATOM     39  H   UNL     1     -12.990  -5.810  -5.095  1.00  0.00     0.159 HD
ATOM     40  H   UNL     1     -13.413  -7.316  -4.347  1.00  0.00     0.159 HD
ATOM     41  H   UNL     1     -13.104  -7.574  -2.177  1.00  0.00     0.159 HD
ATOM     42  H   UNL     1     -12.975  -6.238  -1.098  1.00  0.00     0.159 HD
ENDBRANCH  34  35
ENDBRANCH  33  34
ENDBRANCH  32  33
ENDBRANCH   6  32
ENDBRANCH   4   6
ENDBRANCH   1   2
BRANCH   1  43
ATOM     43  C   UNL     1      -7.638  -1.155   4.250  1.00  0.00     0.102 C 
ATOM     44  C   UNL     1      -7.046  -0.751   2.889  1.00  0.00     0.020 C 
BRANCH  43  45
ATOM     45  C   UNL     1      -6.743  -2.097   5.061  1.00  0.00     0.225 C 
ATOM     46  O   UNL     1      -6.620  -3.291   4.805  1.00  0.00    -0.275 OA
ATOM     47  N   UNL     1      -6.147  -1.540   6.169  1.00  0.00    -0.342 N 
ATOM     48  H   UNL     1      -6.134  -0.535   6.278  1.00  0.00     0.164 HD
BRANCH  47  49
ATOM     49  C   UNL     1      -5.236  -2.312   7.019  1.00  0.00     0.192 C 
BRANCH  49  50
ATOM     50  C   UNL     1      -5.279  -1.766   8.449  1.00  0.00     0.047 C 
BRANCH  50  51
ATOM     51  C   UNL     1      -6.500  -2.273   9.229  1.00  0.00     0.103 C 
BRANCH  51  52
ATOM     52  C   UNL     1      -7.316  -1.127   9.824  1.00  0.00     0.226 C 
ATOM     53  O   UNL     1      -8.220  -0.614   9.162  1.00  0.00    -0.275 OA
BRANCH  52  54
ATOM     54  N   UNL     1      -7.022  -0.774  11.154  1.00  0.00    -0.311 N 
ATOM     55  C   UNL     1      -7.818  -1.302  12.270  1.00  0.00     0.153 C 
BRANCH  54  56
ATOM     56  C   UNL     1      -5.958   0.089  11.465  1.00  0.00     0.102 C 
ATOM     57  C   UNL     1      -5.943   1.410  11.220  1.00  0.00     0.043 C 
BRANCH  56  58
ATOM     58  C   UNL     1      -4.723  -0.425  12.167  1.00  0.00     0.268 C 
ATOM     59  O   UNL     1      -4.139  -1.446  11.832  1.00  0.00    -0.268 OA
ATOM     60  N   UNL     1      -4.289   0.406  13.173  1.00  0.00    -0.339 N 
ATOM     61  H   UNL     1      -4.835   1.229  13.395  1.00  0.00     0.164 HD
BRANCH  60  62
ATOM     62  C   UNL     1      -3.075   0.130  13.940  1.00  0.00     0.168 CG0
ATOM     63  C   UNL     1      -1.900   0.949  13.419  1.00  0.00     0.041 C 
ATOM     64  G   UNL     1      -2.758  -1.378  13.882  1.00  0.00     0.000 G0
ENDBRANCH  60  62
ENDBRANCH  56  58
ENDBRANCH  54  56
ENDBRANCH  52  54
ENDBRANCH  51  52
ENDBRANCH  50  51
ENDBRANCH  49  50
BRANCH  49  65
ATOM     65  C   UNL     1      -3.792  -2.259   6.497  1.00  0.00     0.326 C 
ATOM     66  O   UNL     1      -3.376  -1.501   5.633  1.00  0.00    -0.250 OA
BRANCH  65  67
ATOM     67  O   UNL     1      -2.965  -3.185   7.031  1.00  0.00    -0.480 OA
ATOM     68  H   UNL     1      -2.070  -2.807   6.886  1.00  0.00     0.296 HD
ENDBRANCH  65  67
ENDBRANCH  49  65
ENDBRANCH  47  49
ENDBRANCH  43  45
ENDBRANCH   1  43
BRANCH   1  69
ATOM     69  C   UNL     1      -9.627  -2.556   5.292  1.00  0.00    -0.001 C 
ATOM     70  C   UNL     1      -9.965  -2.148   6.528  1.00  0.00     0.001 C 
BRANCH  70  71
ATOM     71  C   UNL     1     -10.503  -2.974   7.611  1.00  0.00    -0.055 C 
ATOM     72  C   UNL     1      -9.672  -3.862   8.195  1.00  0.00    -0.018 C 
ATOM     73  C   UNL     1     -11.943  -2.768   8.001  1.00  0.00     0.044 C 
BRANCH  72  74
ATOM     74  C   UNL     1      -9.948  -4.837   9.330  1.00  0.00     0.038 C 
ATOM     75  C   UNL     1      -9.111  -4.383  10.531  1.00  0.00     0.015 C 
BRANCH  74  76
ATOM     76  C   UNL     1      -9.648  -6.282   8.834  1.00  0.00     0.128 C 
BRANCH  76  77
ATOM     77  O   UNL     1      -9.008  -7.037   9.877  1.00  0.00    -0.381 OA
ATOM     78  C   UNL     1      -9.440  -8.389   9.951  1.00  0.00     0.195 C 
ENDBRANCH  76  77
BRANCH  76  79
ATOM     79  C   UNL     1     -10.877  -7.011   8.235  1.00  0.00     0.068 C 
BRANCH  79  80
ATOM     80  C   UNL     1     -11.518  -6.420   7.002  1.00  0.00    -0.045 A 
ATOM     81  C   UNL     1     -12.854  -6.001   7.013  1.00  0.00     0.004 A 
ATOM     82  C   UNL     1     -10.786  -6.308   5.810  1.00  0.00     0.004 A 
ATOM     83  C   UNL     1     -13.443  -5.469   5.864  1.00  0.00     0.000 A 
ATOM     84  C   UNL     1     -11.376  -5.776   4.661  1.00  0.00     0.000 A 
ATOM     85  C   UNL     1     -12.703  -5.355   4.689  1.00  0.00     0.000 A 
ENDBRANCH  79  80
ENDBRANCH  76  79
ENDBRANCH  74  76
ENDBRANCH  72  74
ENDBRANCH  70  71
ENDBRANCH   1  69
TORSDOF 17
ENDMDL
MODEL 4
REMARK VINA RESULT:    -5.373      4.249      6.695
REMARK INTER + INTRA:         -25.946
REMARK INTER:                 -19.606
REMARK INTRA:                  -6.340
REMARK UNBOUND:                -9.892
REMARK SMILES C=C1C(=O)N[C@H](C)C(=O)N[C@@H](CC(C)C)C(=O)N[C@@H](C(=O)O)[C@H](C)C(=O)N[C@@H](CCCN=C(N)N)C(=O)N[C@@H](/C=C/C(C)=C/[C@H](C)[C@H](Cc2ccccc2)OC)[C@H](C)C(=O)N[C@@H](C(=O)O)CCC(=O)N1C
REMARK SMILES IDX 39 1 38 2 37 3 36 4 28 6 27 7 25 8 26 9 23 11 24 12 19 13
REMARK SMILES IDX 18 14 16 15 17 16 11 18 10 19 8 20 9 21 12 24 13 25 14 26
REMARK SMILES IDX 15 27 20 28 21 29 22 30 29 32 30 33 31 34 32 35 33 36 34 37
REMARK SMILES IDX 35 38 57 43 58 44 59 45 60 46 61 47 62 49 66 50 67 51 68 52
REMARK SMILES IDX 69 53 70 54 71 55 2 56 1 57 3 58 4 59 5 60 6 62 7 63 63 65
REMARK SMILES IDX 64 66 65 67 40 69 41 70 42 71 44 72 43 73 45 74 46 75 47 76
REMARK SMILES IDX 55 77 56 78 48 79 49 80 50 81 54 82 51 83 53 84 52 85
REMARK H PARENT 38 5 27 10 18 17 10 22 22 31 34 39 34 40 35 41 35 42 61 48
REMARK H PARENT 5 61 65 68
REMARK Flexibility Score:  369.900
ROOT
ATOM      1  C   UNL     1      -7.600  -0.736   3.300  1.00  0.00     0.117 C 
ENDROOT
BRANCH   1   2
ATOM      2  N   UNL     1      -8.407  -1.776   2.660  1.00  0.00    -0.347 N 
ATOM      3  O   UNL     1     -10.363  -0.589   2.481  1.00  0.00    -0.273 OA
ATOM      4  C   UNL     1      -9.702  -1.587   2.218  1.00  0.00     0.243 C 
ATOM      5  H   UNL     1      -7.995  -2.678   2.477  1.00  0.00     0.164 HD
BRANCH   4   6
ATOM      6  C   UNL     1     -10.300  -2.823   1.498  1.00  0.00     0.171 C 
BRANCH   6   7
ATOM      7  N   UNL     1     -10.967  -2.418   0.250  1.00  0.00    -0.344 N 
ATOM      8  C   UNL     1     -12.338  -2.492   0.131  1.00  0.00     0.226 C 
ATOM      9  O   UNL     1     -13.058  -2.911   1.029  1.00  0.00    -0.275 OA
ATOM     10  H   UNL     1     -10.401  -2.129  -0.538  1.00  0.00     0.164 HD
BRANCH   8  11
ATOM     11  C   UNL     1     -12.878  -1.987  -1.196  1.00  0.00     0.109 C 
ATOM     12  C   UNL     1     -12.445  -0.539  -1.424  1.00  0.00     0.021 C 
BRANCH  11  13
ATOM     13  C   UNL     1     -12.490  -2.965  -2.323  1.00  0.00     0.204 C 
BRANCH  13  14
ATOM     14  N   UNL     1     -12.454  -4.355  -1.859  1.00  0.00    -0.340 N 
ATOM     15  C   UNL     1     -11.293  -5.094  -1.797  1.00  0.00     0.243 C 
ATOM     16  O   UNL     1     -10.192  -4.618  -2.069  1.00  0.00    -0.273 OA
ATOM     17  H   UNL     1     -13.344  -4.853  -1.765  1.00  0.00     0.164 HD
BRANCH  15  18
ATOM     18  C   UNL     1     -11.528  -6.591  -1.479  1.00  0.00     0.171 C 
BRANCH  18  19
ATOM     19  N   UNL     1     -12.563  -6.642  -0.448  1.00  0.00    -0.343 N 
ATOM     20  C   UNL     1     -12.317  -7.167   0.806  1.00  0.00     0.242 CG0
ATOM     21  O   UNL     1     -11.260  -7.734   1.070  1.00  0.00    -0.273 OA
ATOM     22  H   UNL     1     -13.490  -6.290  -0.657  1.00  0.00     0.164 HD
ATOM     23  G   UNL     1     -13.506  -7.064   1.784  1.00  0.00     0.000 G0
ENDBRANCH  18  19
BRANCH  18  24
ATOM     24  C   UNL     1     -11.953  -7.352  -2.741  1.00  0.00     0.038 C 
BRANCH  24  25
ATOM     25  C   UNL     1     -11.029  -8.526  -3.127  1.00  0.00    -0.015 C 
ATOM     26  C   UNL     1     -10.625  -9.374  -1.920  1.00  0.00     0.007 C 
ATOM     27  C   UNL     1      -9.775  -7.988  -3.821  1.00  0.00     0.007 C 
ENDBRANCH  24  25
ENDBRANCH  18  24
ENDBRANCH  15  18
ENDBRANCH  13  14
BRANCH  13  28
ATOM     28  C   UNL     1     -13.440  -2.910  -3.523  1.00  0.00     0.327 C 
ATOM     29  O   UNL     1     -14.194  -3.800  -3.889  1.00  0.00    -0.250 OA
BRANCH  28  30
ATOM     30  O   UNL     1     -13.299  -1.789  -4.259  1.00  0.00    -0.480 OA
ATOM     31  H   UNL     1     -14.019  -1.843  -4.921  1.00  0.00     0.296 HD
ENDBRANCH  28  30
ENDBRANCH  13  28
ENDBRANCH  11  13
ENDBRANCH   8  11
ENDBRANCH   6   7
BRANCH   6  32
ATOM     32  C   UNL     1      -9.182  -3.833   1.218  1.00  0.00     0.037 C 
BRANCH  32  33
ATOM     33  C   UNL     1      -9.259  -5.053   2.146  1.00  0.00     0.026 C 
BRANCH  33  34
ATOM     34  C   UNL     1      -7.880  -5.633   2.465  1.00  0.00     0.146 C 
BRANCH  34  35
ATOM     35  N   UNL     1      -8.052  -6.942   3.081  1.00  0.00    -0.254 NA
ATOM     36  C   UNL     1      -8.181  -7.966   2.322  1.00  0.00     0.185 C 
ATOM     37  N   UNL     1      -8.335  -9.177   2.879  1.00  0.00    -0.370 N 
ATOM     38  N   UNL     1      -8.187  -8.026   0.979  1.00  0.00    -0.370 N 
ATOM     39  H   UNL     1      -8.330  -9.216   3.891  1.00  0.00     0.159 HD
ATOM     40  H   UNL     1      -8.268 -10.038   2.365  1.00  0.00     0.159 HD
ATOM     41  H   UNL     1      -8.437  -8.874   0.497  1.00  0.00     0.159 HD
ATOM     42  H   UNL     1      -8.097  -7.187   0.427  1.00  0.00     0.159 HD
ENDBRANCH  34  35
ENDBRANCH  33  34
ENDBRANCH  32  33
ENDBRANCH   6  32
ENDBRANCH   4   6
ENDBRANCH   1   2
BRANCH   1  43
ATOM     43  C   UNL     1      -6.346  -0.469   2.417  1.00  0.00     0.102 C 
ATOM     44  C   UNL     1      -6.688   0.007   0.995  1.00  0.00     0.020 C 
BRANCH  43  45
ATOM     45  C   UNL     1      -5.381  -1.658   2.459  1.00  0.00     0.225 C 
ATOM     46  O   UNL     1      -5.697  -2.791   2.107  1.00  0.00    -0.275 OA
ATOM     47  N   UNL     1      -4.147  -1.400   3.011  1.00  0.00    -0.342 N 
ATOM     48  H   UNL     1      -3.853  -0.444   3.153  1.00  0.00     0.164 HD
BRANCH  47  49
ATOM     49  C   UNL     1      -3.110  -2.433   3.085  1.00  0.00     0.192 C 
BRANCH  49  50
ATOM     50  C   UNL     1      -2.205  -2.169   4.291  1.00  0.00     0.047 C 
BRANCH  50  51
ATOM     51  C   UNL     1      -2.566  -0.864   5.014  1.00  0.00     0.103 C 
BRANCH  51  52
ATOM     52  C   UNL     1      -1.447   0.171   4.921  1.00  0.00     0.226 C 
ATOM     53  O   UNL     1      -1.225   0.734   3.847  1.00  0.00    -0.275 OA
BRANCH  52  54
ATOM     54  N   UNL     1      -0.775   0.478   6.118  1.00  0.00    -0.311 N 
ATOM     55  C   UNL     1      -1.405   0.236   7.423  1.00  0.00     0.153 C 
BRANCH  54  56
ATOM     56  C   UNL     1       0.522   1.019   6.113  1.00  0.00     0.102 C 
ATOM     57  C   UNL     1       1.612   0.395   5.638  1.00  0.00     0.043 C 
BRANCH  56  58
ATOM     58  C   UNL     1       0.780   2.418   6.621  1.00  0.00     0.268 C 
ATOM     59  O   UNL     1       0.046   3.365   6.376  1.00  0.00    -0.268 OA
ATOM     60  N   UNL     1       1.884   2.501   7.436  1.00  0.00    -0.339 N 
ATOM     61  H   UNL     1       2.446   1.671   7.581  1.00  0.00     0.164 HD
BRANCH  60  62
ATOM     62  C   UNL     1       2.279   3.749   8.086  1.00  0.00     0.168 CG0
ATOM     63  C   UNL     1       3.453   4.395   7.361  1.00  0.00     0.041 C 
ATOM     64  G   UNL     1       2.634   3.474   9.562  1.00  0.00     0.000 G0
ENDBRANCH  60  62
ENDBRANCH  56  58
ENDBRANCH  54  56
ENDBRANCH  52  54
ENDBRANCH  51  52
ENDBRANCH  50  51
ENDBRANCH  49  50
BRANCH  49  65
ATOM     65  C   UNL     1      -2.256  -2.471   1.807  1.00  0.00     0.326 C 
ATOM     66  O   UNL     1      -1.202  -1.875   1.639  1.00  0.00    -0.250 OA
BRANCH  65  67
ATOM     67  O   UNL     1      -2.787  -3.193   0.796  1.00  0.00    -0.480 OA
ATOM     68  H   UNL     1      -2.831  -2.553   0.053  1.00  0.00     0.296 HD
ENDBRANCH  65  67
ENDBRANCH  49  65
ENDBRANCH  47  49
ENDBRANCH  43  45
ENDBRANCH   1  43
BRANCH   1  69
ATOM     69  C   UNL     1      -7.404  -1.176   4.739  1.00  0.00    -0.001 C 
ATOM     70  C   UNL     1      -8.349  -1.321   5.685  1.00  0.00     0.001 C 
BRANCH  70  71
ATOM     71  C   UNL     1      -8.150  -1.768   7.065  1.00  0.00    -0.055 C 
ATOM     72  C   UNL     1      -9.177  -2.395   7.676  1.00  0.00    -0.018 C 
ATOM     73  C   UNL     1      -6.811  -1.504   7.703  1.00  0.00     0.044 C 
BRANCH  72  74
ATOM     74  C   UNL     1      -9.258  -2.963   9.085  1.00  0.00     0.038 C 
ATOM     75  C   UNL     1      -8.419  -4.246   9.105  1.00  0.00     0.015 C 
BRANCH  74  76
ATOM     76  C   UNL     1     -10.756  -3.157   9.463  1.00  0.00     0.128 C 
BRANCH  76  77
ATOM     77  O   UNL     1     -11.026  -2.540  10.733  1.00  0.00    -0.381 OA
ATOM     78  C   UNL     1     -10.731  -3.373  11.846  1.00  0.00     0.195 C 
ENDBRANCH  76  77
BRANCH  76  79
ATOM     79  C   UNL     1     -11.746  -2.711   8.357  1.00  0.00     0.068 C 
BRANCH  79  80
ATOM     80  C   UNL     1     -12.140  -3.725   7.310  1.00  0.00    -0.045 A 
ATOM     81  C   UNL     1     -12.308  -3.351   5.971  1.00  0.00     0.004 A 
ATOM     82  C   UNL     1     -12.372  -5.061   7.672  1.00  0.00     0.004 A 
ATOM     83  C   UNL     1     -12.687  -4.292   5.011  1.00  0.00     0.000 A 
ATOM     84  C   UNL     1     -12.751  -6.001   6.711  1.00  0.00     0.000 A 
ATOM     85  C   UNL     1     -12.906  -5.617   5.381  1.00  0.00     0.000 A 
ENDBRANCH  79  80
ENDBRANCH  76  79
ENDBRANCH  74  76
ENDBRANCH  72  74
ENDBRANCH  70  71
ENDBRANCH   1  69
TORSDOF 17
ENDMDL
MODEL 5
REMARK VINA RESULT:    -5.342      4.438      6.689
REMARK INTER + INTRA:         -25.852
REMARK INTER:                 -19.988
REMARK INTRA:                  -5.864
REMARK UNBOUND:                -9.892
REMARK SMILES C=C1C(=O)N[C@H](C)C(=O)N[C@@H](CC(C)C)C(=O)N[C@@H](C(=O)O)[C@H](C)C(=O)N[C@@H](CCCN=C(N)N)C(=O)N[C@@H](/C=C/C(C)=C/[C@H](C)[C@H](Cc2ccccc2)OC)[C@H](C)C(=O)N[C@@H](C(=O)O)CCC(=O)N1C
REMARK SMILES IDX 39 1 38 2 37 3 36 4 28 6 27 7 25 8 26 9 23 11 24 12 19 13
REMARK SMILES IDX 18 14 16 15 17 16 11 18 10 19 8 20 9 21 12 24 13 25 14 26
REMARK SMILES IDX 15 27 20 28 21 29 22 30 29 32 30 33 31 34 32 35 33 36 34 37
REMARK SMILES IDX 35 38 57 43 58 44 59 45 60 46 61 47 62 49 66 50 67 51 68 52
REMARK SMILES IDX 69 53 70 54 71 55 2 56 1 57 3 58 4 59 5 60 6 62 7 63 63 65
REMARK SMILES IDX 64 66 65 67 40 69 41 70 42 71 44 72 43 73 45 74 46 75 47 76
REMARK SMILES IDX 55 77 56 78 48 79 49 80 50 81 54 82 51 83 53 84 52 85
REMARK H PARENT 38 5 27 10 18 17 10 22 22 31 34 39 34 40 35 41 35 42 61 48
REMARK H PARENT 5 61 65 68
REMARK Flexibility Score:  369.900
ROOT
ATOM      1  C   UNL     1      -7.623  -0.711   3.300  1.00  0.00     0.117 C 
ENDROOT
BRANCH   1   2
ATOM      2  N   UNL     1      -8.396  -1.763   2.638  1.00  0.00    -0.347 N 
ATOM      3  O   UNL     1     -10.380  -0.622   2.452  1.00  0.00    -0.273 OA
ATOM      4  C   UNL     1      -9.690  -1.600   2.183  1.00  0.00     0.243 C 
ATOM      5  H   UNL     1      -7.960  -2.652   2.448  1.00  0.00     0.164 HD
BRANCH   4   6
ATOM      6  C   UNL     1     -10.250  -2.840   1.440  1.00  0.00     0.171 C 
BRANCH   6   7
ATOM      7  N   UNL     1     -10.964  -2.431   0.220  1.00  0.00    -0.344 N 
ATOM      8  C   UNL     1     -12.341  -2.454   0.170  1.00  0.00     0.226 C 
ATOM      9  O   UNL     1     -13.029  -2.832   1.111  1.00  0.00    -0.275 OA
ATOM     10  H   UNL     1     -10.428  -2.177  -0.600  1.00  0.00     0.164 HD
BRANCH   8  11
ATOM     11  C   UNL     1     -12.928  -1.951  -1.136  1.00  0.00     0.109 C 
ATOM     12  C   UNL     1     -12.601  -0.469  -1.324  1.00  0.00     0.021 C 
BRANCH  11  13
ATOM     13  C   UNL     1     -12.482  -2.865  -2.295  1.00  0.00     0.204 C 
BRANCH  13  14
ATOM     14  N   UNL     1     -12.384  -4.269  -1.884  1.00  0.00    -0.340 N 
ATOM     15  C   UNL     1     -11.221  -5.000  -1.990  1.00  0.00     0.243 C 
ATOM     16  O   UNL     1     -10.164  -4.507  -2.381  1.00  0.00    -0.273 OA
ATOM     17  H   UNL     1     -13.253  -4.776  -1.696  1.00  0.00     0.164 HD
BRANCH  15  18
ATOM     18  C   UNL     1     -11.409  -6.508  -1.693  1.00  0.00     0.171 C 
BRANCH  18  19
ATOM     19  N   UNL     1     -12.517  -6.613  -0.746  1.00  0.00    -0.343 N 
ATOM     20  C   UNL     1     -12.320  -7.008   0.564  1.00  0.00     0.242 CG0
ATOM     21  O   UNL     1     -11.230  -7.416   0.956  1.00  0.00    -0.273 OA
ATOM     22  H   UNL     1     -13.458  -6.398  -1.054  1.00  0.00     0.164 HD
ATOM     23  G   UNL     1     -13.594  -6.983   1.434  1.00  0.00     0.000 G0
ENDBRANCH  18  19
BRANCH  18  24
ATOM     24  C   UNL     1     -11.699  -7.282  -2.985  1.00  0.00     0.038 C 
BRANCH  24  25
ATOM     25  C   UNL     1     -10.862  -8.565  -3.170  1.00  0.00    -0.015 C 
ATOM     26  C   UNL     1     -11.064  -9.564  -2.030  1.00  0.00     0.007 C 
ATOM     27  C   UNL     1      -9.379  -8.201  -3.280  1.00  0.00     0.007 C 
ENDBRANCH  24  25
ENDBRANCH  18  24
ENDBRANCH  15  18
ENDBRANCH  13  14
BRANCH  13  28
ATOM     28  C   UNL     1     -13.422  -2.810  -3.503  1.00  0.00     0.327 C 
ATOM     29  O   UNL     1     -14.190  -3.690  -3.862  1.00  0.00    -0.250 OA
BRANCH  28  30
ATOM     30  O   UNL     1     -13.253  -1.703  -4.255  1.00  0.00    -0.480 OA
ATOM     31  H   UNL     1     -13.990  -1.115  -3.987  1.00  0.00     0.296 HD
ENDBRANCH  28  30
ENDBRANCH  13  28
ENDBRANCH  11  13
ENDBRANCH   8  11
ENDBRANCH   6   7
BRANCH   6  32
ATOM     32  C   UNL     1      -9.094  -3.790   1.105  1.00  0.00     0.037 C 
BRANCH  32  33
ATOM     33  C   UNL     1      -8.243  -3.277  -0.065  1.00  0.00     0.026 C 
BRANCH  33  34
ATOM     34  C   UNL     1      -7.201  -4.298  -0.523  1.00  0.00     0.146 C 
BRANCH  34  35
ATOM     35  N   UNL     1      -6.408  -3.711  -1.594  1.00  0.00    -0.254 NA
ATOM     36  C   UNL     1      -6.553  -4.162  -2.784  1.00  0.00     0.185 C 
ATOM     37  N   UNL     1      -5.830  -3.625  -3.780  1.00  0.00    -0.370 N 
ATOM     38  N   UNL     1      -7.361  -5.143  -3.223  1.00  0.00    -0.370 N 
ATOM     39  H   UNL     1      -5.204  -2.871  -3.530  1.00  0.00     0.159 HD
ATOM     40  H   UNL     1      -6.010  -3.799  -4.754  1.00  0.00     0.159 HD
ATOM     41  H   UNL     1      -7.283  -5.502  -4.161  1.00  0.00     0.159 HD
ATOM     42  H   UNL     1      -7.951  -5.647  -2.580  1.00  0.00     0.159 HD
ENDBRANCH  34  35
ENDBRANCH  33  34
ENDBRANCH  32  33
ENDBRANCH   6  32
ENDBRANCH   4   6
ENDBRANCH   1   2
BRANCH   1  43
ATOM     43  C   UNL     1      -6.356  -0.416   2.447  1.00  0.00     0.102 C 
ATOM     44  C   UNL     1      -6.674  -0.032   0.992  1.00  0.00     0.020 C 
BRANCH  43  45
ATOM     45  C   UNL     1      -5.327  -1.543   2.581  1.00  0.00     0.225 C 
ATOM     46  O   UNL     1      -5.594  -2.723   2.375  1.00  0.00    -0.275 OA
ATOM     47  N   UNL     1      -4.089  -1.162   3.045  1.00  0.00    -0.342 N 
ATOM     48  H   UNL     1      -3.841  -0.183   3.063  1.00  0.00     0.164 HD
BRANCH  47  49
ATOM     49  C   UNL     1      -2.995  -2.127   3.190  1.00  0.00     0.192 C 
BRANCH  49  50
ATOM     50  C   UNL     1      -1.838  -1.482   3.958  1.00  0.00     0.047 C 
BRANCH  50  51
ATOM     51  C   UNL     1      -1.976   0.044   4.044  1.00  0.00     0.103 C 
BRANCH  51  52
ATOM     52  C   UNL     1      -0.679   0.712   4.495  1.00  0.00     0.226 C 
ATOM     53  O   UNL     1       0.404   0.195   4.213  1.00  0.00    -0.275 OA
BRANCH  52  54
ATOM     54  N   UNL     1      -0.807   1.948   5.156  1.00  0.00    -0.311 N 
ATOM     55  C   UNL     1      -1.443   3.096   4.496  1.00  0.00     0.153 C 
BRANCH  54  56
ATOM     56  C   UNL     1      -0.338   2.129   6.467  1.00  0.00     0.102 C 
ATOM     57  C   UNL     1      -1.020   1.806   7.578  1.00  0.00     0.043 C 
BRANCH  56  58
ATOM     58  C   UNL     1       1.044   2.682   6.728  1.00  0.00     0.268 C 
ATOM     59  O   UNL     1       1.247   3.689   7.392  1.00  0.00    -0.268 OA
ATOM     60  N   UNL     1       2.045   1.904   6.199  1.00  0.00    -0.339 N 
ATOM     61  H   UNL     1       1.793   1.090   5.651  1.00  0.00     0.164 HD
BRANCH  60  62
ATOM     62  C   UNL     1       3.460   2.222   6.386  1.00  0.00     0.168 CG0
ATOM     63  C   UNL     1       4.128   1.217   7.316  1.00  0.00     0.041 C 
ATOM     64  G   UNL     1       3.599   3.655   6.941  1.00  0.00     0.000 G0
ENDBRANCH  60  62
ENDBRANCH  56  58
ENDBRANCH  54  56
ENDBRANCH  52  54
ENDBRANCH  51  52
ENDBRANCH  50  51
ENDBRANCH  49  50
BRANCH  49  65
ATOM     65  C   UNL     1      -2.488  -2.618   1.824  1.00  0.00     0.326 C 
ATOM     66  O   UNL     1      -1.820  -1.963   1.037  1.00  0.00    -0.250 OA
BRANCH  65  67
ATOM     67  O   UNL     1      -2.887  -3.864   1.489  1.00  0.00    -0.480 OA
ATOM     68  H   UNL     1      -3.082  -4.285   2.354  1.00  0.00     0.296 HD
ENDBRANCH  65  67
ENDBRANCH  49  65
ENDBRANCH  47  49
ENDBRANCH  43  45
ENDBRANCH   1  43
BRANCH   1  69
ATOM     69  C   UNL     1      -7.449  -1.157   4.741  1.00  0.00    -0.001 C 
ATOM     70  C   UNL     1      -8.412  -1.327   5.665  1.00  0.00     0.001 C 
BRANCH  70  71
ATOM     71  C   UNL     1      -8.234  -1.778   7.046  1.00  0.00    -0.055 C 
ATOM     72  C   UNL     1      -9.262  -2.430   7.631  1.00  0.00    -0.018 C 
ATOM     73  C   UNL     1      -6.915  -1.490   7.715  1.00  0.00     0.044 C 
BRANCH  72  74
ATOM     74  C   UNL     1      -9.361  -3.008   9.035  1.00  0.00     0.038 C 
ATOM     75  C   UNL     1      -8.823  -4.443   8.973  1.00  0.00     0.015 C 
BRANCH  74  76
ATOM     76  C   UNL     1     -10.834  -2.884   9.525  1.00  0.00     0.128 C 
BRANCH  76  77
ATOM     77  O   UNL     1     -10.911  -1.951  10.616  1.00  0.00    -0.381 OA
ATOM     78  C   UNL     1     -11.069  -0.600  10.203  1.00  0.00     0.195 C 
ENDBRANCH  76  77
BRANCH  76  79
ATOM     79  C   UNL     1     -11.848  -2.571   8.396  1.00  0.00     0.068 C 
BRANCH  79  80
ATOM     80  C   UNL     1     -12.157  -3.663   7.400  1.00  0.00    -0.045 A 
ATOM     81  C   UNL     1     -12.308  -4.993   7.812  1.00  0.00     0.004 A 
ATOM     82  C   UNL     1     -12.270  -3.362   6.034  1.00  0.00     0.004 A 
ATOM     83  C   UNL     1     -12.580  -6.000   6.882  1.00  0.00     0.000 A 
ATOM     84  C   UNL     1     -12.541  -4.370   5.106  1.00  0.00     0.000 A 
ATOM     85  C   UNL     1     -12.697  -5.687   5.530  1.00  0.00     0.000 A 
ENDBRANCH  79  80
ENDBRANCH  76  79
ENDBRANCH  74  76
ENDBRANCH  72  74
ENDBRANCH  70  71
ENDBRANCH   1  69
TORSDOF 17
ENDMDL
MODEL 6
REMARK VINA RESULT:    -5.218     16.493     23.162
REMARK INTER + INTRA:         -25.483
REMARK INTER:                 -17.894
REMARK INTRA:                  -7.589
REMARK UNBOUND:                -9.892
REMARK SMILES C=C1C(=O)N[C@H](C)C(=O)N[C@@H](CC(C)C)C(=O)N[C@@H](C(=O)O)[C@H](C)C(=O)N[C@@H](CCCN=C(N)N)C(=O)N[C@@H](/C=C/C(C)=C/[C@H](C)[C@H](Cc2ccccc2)OC)[C@H](C)C(=O)N[C@@H](C(=O)O)CCC(=O)N1C
REMARK SMILES IDX 39 1 38 2 37 3 36 4 28 6 27 7 25 8 26 9 23 11 24 12 19 13
REMARK SMILES IDX 18 14 16 15 17 16 11 18 10 19 8 20 9 21 12 24 13 25 14 26
REMARK SMILES IDX 15 27 20 28 21 29 22 30 29 32 30 33 31 34 32 35 33 36 34 37
REMARK SMILES IDX 35 38 57 43 58 44 59 45 60 46 61 47 62 49 66 50 67 51 68 52
REMARK SMILES IDX 69 53 70 54 71 55 2 56 1 57 3 58 4 59 5 60 6 62 7 63 63 65
REMARK SMILES IDX 64 66 65 67 40 69 41 70 42 71 44 72 43 73 45 74 46 75 47 76
REMARK SMILES IDX 55 77 56 78 48 79 49 80 50 81 54 82 51 83 53 84 52 85
REMARK H PARENT 38 5 27 10 18 17 10 22 22 31 34 39 34 40 35 41 35 42 61 48
REMARK H PARENT 5 61 65 68
REMARK Flexibility Score:  369.900
ROOT
ATOM      1  C   UNL     1       6.143   5.431   6.468  1.00  0.00     0.117 C 
ENDROOT
BRANCH   1   2
ATOM      2  N   UNL     1       7.229   5.423   7.448  1.00  0.00    -0.347 N 
ATOM      3  O   UNL     1       8.784   4.305   6.182  1.00  0.00    -0.273 OA
ATOM      4  C   UNL     1       8.498   4.939   7.192  1.00  0.00     0.243 C 
ATOM      5  H   UNL     1       7.079   5.835   8.356  1.00  0.00     0.164 HD
BRANCH   4   6
ATOM      6  C   UNL     1       9.486   5.127   8.371  1.00  0.00     0.171 C 
BRANCH   6   7
ATOM      7  N   UNL     1       8.773   5.596   9.570  1.00  0.00    -0.344 N 
ATOM      8  C   UNL     1       9.427   6.334  10.532  1.00  0.00     0.226 C 
ATOM      9  O   UNL     1      10.617   6.614  10.454  1.00  0.00    -0.275 OA
ATOM     10  H   UNL     1       7.806   5.328   9.702  1.00  0.00     0.164 HD
BRANCH   8  11
ATOM     11  C   UNL     1       8.542   6.789  11.680  1.00  0.00     0.109 C 
ATOM     12  C   UNL     1       9.176   6.405  13.017  1.00  0.00     0.021 C 
BRANCH  11  13
ATOM     13  C   UNL     1       8.216   8.288  11.524  1.00  0.00     0.204 C 
BRANCH  13  14
ATOM     14  N   UNL     1       9.424   9.120  11.536  1.00  0.00    -0.340 N 
ATOM     15  C   UNL     1       9.760   9.936  12.595  1.00  0.00     0.243 C 
ATOM     16  O   UNL     1       9.100   9.978  13.632  1.00  0.00    -0.273 OA
ATOM     17  H   UNL     1       9.929   9.246  10.655  1.00  0.00     0.164 HD
BRANCH  15  18
ATOM     18  C   UNL     1      10.958  10.871  12.299  1.00  0.00     0.171 C 
BRANCH  18  19
ATOM     19  N   UNL     1      10.753  12.079  13.096  1.00  0.00    -0.343 N 
ATOM     20  C   UNL     1      11.074  13.333  12.614  1.00  0.00     0.242 CG0
ATOM     21  O   UNL     1      11.668  13.481  11.549  1.00  0.00    -0.273 OA
ATOM     22  H   UNL     1      10.371  11.998  14.032  1.00  0.00     0.164 HD
ATOM     23  G   UNL     1      10.714  14.492  13.566  1.00  0.00     0.000 G0
ENDBRANCH  18  19
BRANCH  18  24
ATOM     24  C   UNL     1      12.282  10.183  12.652  1.00  0.00     0.038 C 
BRANCH  24  25
ATOM     25  C   UNL     1      13.370  10.281  11.561  1.00  0.00    -0.015 C 
ATOM     26  C   UNL     1      12.781  10.363  10.153  1.00  0.00     0.007 C 
ATOM     27  C   UNL     1      14.307   9.074  11.658  1.00  0.00     0.007 C 
ENDBRANCH  24  25
ENDBRANCH  18  24
ENDBRANCH  15  18
ENDBRANCH  13  14
BRANCH  13  28
ATOM     28  C   UNL     1       7.457   8.610  10.233  1.00  0.00     0.327 C 
ATOM     29  O   UNL     1       6.635   7.895   9.681  1.00  0.00    -0.250 OA
BRANCH  28  30
ATOM     30  O   UNL     1       7.864   9.757   9.653  1.00  0.00    -0.480 OA
ATOM     31  H   UNL     1       7.613   9.653   8.711  1.00  0.00     0.296 HD
ENDBRANCH  28  30
ENDBRANCH  13  28
ENDBRANCH  11  13
ENDBRANCH   8  11
ENDBRANCH   6   7
BRANCH   6  32
ATOM     32  C   UNL     1      10.202   3.800   8.644  1.00  0.00     0.037 C 
BRANCH  32  33
ATOM     33  C   UNL     1      11.714   3.896   8.397  1.00  0.00     0.026 C 
BRANCH  33  34
ATOM     34  C   UNL     1      12.110   5.191   7.688  1.00  0.00     0.146 C 
BRANCH  34  35
ATOM     35  N   UNL     1      12.590   4.867   6.352  1.00  0.00    -0.254 NA
ATOM     36  C   UNL     1      12.057   5.459   5.348  1.00  0.00     0.185 C 
ATOM     37  N   UNL     1      12.495   5.172   4.112  1.00  0.00    -0.370 N 
ATOM     38  N   UNL     1      11.074   6.376   5.332  1.00  0.00    -0.370 N 
ATOM     39  H   UNL     1      13.245   4.496   4.041  1.00  0.00     0.159 HD
ATOM     40  H   UNL     1      12.256   5.711   3.298  1.00  0.00     0.159 HD
ATOM     41  H   UNL     1      10.645   6.665   4.468  1.00  0.00     0.159 HD
ATOM     42  H   UNL     1      10.638   6.676   6.190  1.00  0.00     0.159 HD
ENDBRANCH  34  35
ENDBRANCH  33  34
ENDBRANCH  32  33
ENDBRANCH   6  32
ENDBRANCH   4   6
ENDBRANCH   1   2
BRANCH   1  43
ATOM     43  C   UNL     1       6.190   6.777   5.688  1.00  0.00     0.102 C 
ATOM     44  C   UNL     1       4.814   7.449   5.544  1.00  0.00     0.020 C 
BRANCH  43  45
ATOM     45  C   UNL     1       6.946   6.620   4.365  1.00  0.00     0.225 C 
ATOM     46  O   UNL     1       7.440   7.567   3.759  1.00  0.00    -0.275 OA
ATOM     47  N   UNL     1       6.961   5.349   3.838  1.00  0.00    -0.342 N 
ATOM     48  H   UNL     1       6.687   4.566   4.414  1.00  0.00     0.164 HD
BRANCH  47  49
ATOM     49  C   UNL     1       7.676   5.043   2.596  1.00  0.00     0.192 C 
BRANCH  49  50
ATOM     50  C   UNL     1       7.296   3.641   2.115  1.00  0.00     0.047 C 
BRANCH  50  51
ATOM     51  C   UNL     1       7.695   3.398   0.653  1.00  0.00     0.103 C 
BRANCH  51  52
ATOM     52  C   UNL     1       8.870   2.430   0.532  1.00  0.00     0.226 C 
ATOM     53  O   UNL     1      10.023   2.857   0.614  1.00  0.00    -0.275 OA
BRANCH  52  54
ATOM     54  N   UNL     1       8.548   1.066   0.407  1.00  0.00    -0.311 N 
ATOM     55  C   UNL     1       8.838   0.117   1.490  1.00  0.00     0.153 C 
BRANCH  54  56
ATOM     56  C   UNL     1       7.934   0.562  -0.752  1.00  0.00     0.102 C 
ATOM     57  C   UNL     1       8.550   0.385  -1.933  1.00  0.00     0.043 C 
BRANCH  56  58
ATOM     58  C   UNL     1       6.488   0.125  -0.736  1.00  0.00     0.268 C 
ATOM     59  O   UNL     1       5.847  -0.029   0.295  1.00  0.00    -0.268 OA
ATOM     60  N   UNL     1       5.952  -0.017  -1.994  1.00  0.00    -0.339 N 
ATOM     61  H   UNL     1       6.554   0.119  -2.797  1.00  0.00     0.164 HD
BRANCH  60  62
ATOM     62  C   UNL     1       4.550  -0.373  -2.208  1.00  0.00     0.168 CG0
ATOM     63  C   UNL     1       4.389  -1.877  -2.386  1.00  0.00     0.041 C 
ATOM     64  G   UNL     1       4.007   0.384  -3.437  1.00  0.00     0.000 G0
ENDBRANCH  60  62
ENDBRANCH  56  58
ENDBRANCH  54  56
ENDBRANCH  52  54
ENDBRANCH  51  52
ENDBRANCH  50  51
ENDBRANCH  49  50
BRANCH  49  65
ATOM     65  C   UNL     1       9.199   5.121   2.786  1.00  0.00     0.326 C 
ATOM     66  O   UNL     1       9.927   5.999   2.345  1.00  0.00    -0.250 OA
BRANCH  65  67
ATOM     67  O   UNL     1       9.738   4.078   3.456  1.00  0.00    -0.480 OA
ATOM     68  H   UNL     1       9.410   4.198   4.373  1.00  0.00     0.296 HD
ENDBRANCH  65  67
ENDBRANCH  49  65
ENDBRANCH  47  49
ENDBRANCH  43  45
ENDBRANCH   1  43
BRANCH   1  69
ATOM     69  C   UNL     1       4.882   5.069   7.230  1.00  0.00    -0.001 C 
ATOM     70  C   UNL     1       4.163   3.936   7.129  1.00  0.00     0.001 C 
BRANCH  70  71
ATOM     71  C   UNL     1       2.959   3.589   7.886  1.00  0.00    -0.055 C 
ATOM     72  C   UNL     1       3.113   2.854   9.007  1.00  0.00    -0.018 C 
ATOM     73  C   UNL     1       1.634   4.082   7.364  1.00  0.00     0.044 C 
BRANCH  72  74
ATOM     74  C   UNL     1       2.058   2.353   9.983  1.00  0.00     0.038 C 
ATOM     75  C   UNL     1       0.840   1.926   9.154  1.00  0.00     0.015 C 
BRANCH  74  76
ATOM     76  C   UNL     1       1.775   3.469  11.032  1.00  0.00     0.128 C 
BRANCH  76  77
ATOM     77  O   UNL     1       1.241   2.889  12.234  1.00  0.00    -0.381 OA
ATOM     78  C   UNL     1       1.954   1.744  12.681  1.00  0.00     0.195 C 
ENDBRANCH  76  77
BRANCH  76  79
ATOM     79  C   UNL     1       2.983   4.401  11.301  1.00  0.00     0.068 C 
BRANCH  79  80
ATOM     80  C   UNL     1       2.789   5.885  11.103  1.00  0.00    -0.045 A 
ATOM     81  C   UNL     1       2.133   6.662  12.066  1.00  0.00     0.004 A 
ATOM     82  C   UNL     1       3.241   6.507   9.929  1.00  0.00     0.004 A 
ATOM     83  C   UNL     1       1.946   8.032  11.869  1.00  0.00     0.000 A 
ATOM     84  C   UNL     1       3.052   7.876   9.732  1.00  0.00     0.000 A 
ATOM     85  C   UNL     1       2.406   8.639  10.703  1.00  0.00     0.000 A 
ENDBRANCH  79  80
ENDBRANCH  76  79
ENDBRANCH  74  76
ENDBRANCH  72  74
ENDBRANCH  70  71
ENDBRANCH   1  69
TORSDOF 17
ENDMDL
MODEL 7
REMARK VINA RESULT:    -5.161      2.143      3.153
REMARK INTER + INTRA:         -25.312
REMARK INTER:                 -17.822
REMARK INTRA:                  -7.490
REMARK UNBOUND:                -9.892
REMARK SMILES C=C1C(=O)N[C@H](C)C(=O)N[C@@H](CC(C)C)C(=O)N[C@@H](C(=O)O)[C@H](C)C(=O)N[C@@H](CCCN=C(N)N)C(=O)N[C@@H](/C=C/C(C)=C/[C@H](C)[C@H](Cc2ccccc2)OC)[C@H](C)C(=O)N[C@@H](C(=O)O)CCC(=O)N1C
REMARK SMILES IDX 39 1 38 2 37 3 36 4 28 6 27 7 25 8 26 9 23 11 24 12 19 13
REMARK SMILES IDX 18 14 16 15 17 16 11 18 10 19 8 20 9 21 12 24 13 25 14 26
REMARK SMILES IDX 15 27 20 28 21 29 22 30 29 32 30 33 31 34 32 35 33 36 34 37
REMARK SMILES IDX 35 38 57 43 58 44 59 45 60 46 61 47 62 49 66 50 67 51 68 52
REMARK SMILES IDX 69 53 70 54 71 55 2 56 1 57 3 58 4 59 5 60 6 62 7 63 63 65
REMARK SMILES IDX 64 66 65 67 40 69 41 70 42 71 44 72 43 73 45 74 46 75 47 76
REMARK SMILES IDX 55 77 56 78 48 79 49 80 50 81 54 82 51 83 53 84 52 85
REMARK H PARENT 38 5 27 10 18 17 10 22 22 31 34 39 34 40 35 41 35 42 61 48
REMARK H PARENT 5 61 65 68
REMARK Flexibility Score:  369.900
ROOT
ATOM      1  C   UNL     1      -8.910  -0.929   3.152  1.00  0.00     0.117 C 
ENDROOT
BRANCH   1   2
ATOM      2  N   UNL     1      -9.364  -1.971   2.230  1.00  0.00    -0.347 N 
ATOM      3  O   UNL     1     -11.206  -0.878   1.405  1.00  0.00    -0.273 OA
ATOM      4  C   UNL     1     -10.427  -1.824   1.361  1.00  0.00     0.243 C 
ATOM      5  H   UNL     1      -8.853  -2.839   2.175  1.00  0.00     0.164 HD
BRANCH   4   6
ATOM      6  C   UNL     1     -10.645  -3.045   0.431  1.00  0.00     0.171 C 
BRANCH   6   7
ATOM      7  N   UNL     1      -9.561  -4.024   0.606  1.00  0.00    -0.344 N 
ATOM      8  C   UNL     1      -8.683  -4.292  -0.422  1.00  0.00     0.226 C 
ATOM      9  O   UNL     1      -8.770  -3.757  -1.521  1.00  0.00    -0.275 OA
ATOM     10  H   UNL     1      -9.498  -4.536   1.477  1.00  0.00     0.164 HD
BRANCH   8  11
ATOM     11  C   UNL     1      -7.589  -5.284  -0.068  1.00  0.00     0.109 C 
ATOM     12  C   UNL     1      -8.013  -6.129   1.133  1.00  0.00     0.021 C 
BRANCH  11  13
ATOM     13  C   UNL     1      -7.192  -6.092  -1.320  1.00  0.00     0.204 C 
BRANCH  13  14
ATOM     14  N   UNL     1      -8.361  -6.514  -2.098  1.00  0.00    -0.340 N 
ATOM     15  C   UNL     1      -8.462  -7.759  -2.681  1.00  0.00     0.243 C 
ATOM     16  O   UNL     1      -7.602  -8.626  -2.539  1.00  0.00    -0.273 OA
ATOM     17  H   UNL     1      -9.036  -5.798  -2.379  1.00  0.00     0.164 HD
BRANCH  15  18
ATOM     18  C   UNL     1      -9.684  -7.904  -3.621  1.00  0.00     0.171 C 
BRANCH  18  19
ATOM     19  N   UNL     1      -9.219  -8.625  -4.804  1.00  0.00    -0.343 N 
ATOM     20  C   UNL     1      -8.809  -7.964  -5.946  1.00  0.00     0.242 CG0
ATOM     21  O   UNL     1      -8.941  -6.748  -6.068  1.00  0.00    -0.273 OA
ATOM     22  H   UNL     1      -9.200  -9.638  -4.794  1.00  0.00     0.164 HD
ATOM     23  G   UNL     1      -8.277  -8.888  -7.061  1.00  0.00     0.000 G0
ENDBRANCH  18  19
BRANCH  18  24
ATOM     24  C   UNL     1     -10.822  -8.654  -2.917  1.00  0.00     0.038 C 
BRANCH  24  25
ATOM     25  C   UNL     1     -11.944  -7.751  -2.363  1.00  0.00    -0.015 C 
ATOM     26  C   UNL     1     -12.094  -6.452  -3.157  1.00  0.00     0.007 C 
ATOM     27  C   UNL     1     -11.666  -7.427  -0.893  1.00  0.00     0.007 C 
ENDBRANCH  24  25
ENDBRANCH  18  24
ENDBRANCH  15  18
ENDBRANCH  13  14
BRANCH  13  28
ATOM     28  C   UNL     1      -6.271  -5.319  -2.269  1.00  0.00     0.327 C 
ATOM     29  O   UNL     1      -5.112  -5.001  -2.052  1.00  0.00    -0.250 OA
BRANCH  28  30
ATOM     30  O   UNL     1      -6.899  -4.892  -3.384  1.00  0.00    -0.480 OA
ATOM     31  H   UNL     1      -7.801  -4.662  -3.079  1.00  0.00     0.296 HD
ENDBRANCH  28  30
ENDBRANCH  13  28
ENDBRANCH  11  13
ENDBRANCH   8  11
ENDBRANCH   6   7
BRANCH   6  32
ATOM     32  C   UNL     1     -12.008  -3.675   0.739  1.00  0.00     0.037 C 
BRANCH  32  33
ATOM     33  C   UNL     1     -12.784  -4.029  -0.537  1.00  0.00     0.026 C 
BRANCH  33  34
ATOM     34  C   UNL     1     -13.869  -3.003  -0.865  1.00  0.00     0.146 C 
BRANCH  34  35
ATOM     35  N   UNL     1     -13.253  -1.863  -1.530  1.00  0.00    -0.254 NA
ATOM     36  C   UNL     1     -13.426  -0.695  -1.033  1.00  0.00     0.185 C 
ATOM     37  N   UNL     1     -12.858   0.362  -1.635  1.00  0.00    -0.370 N 
ATOM     38  N   UNL     1     -14.124  -0.336   0.058  1.00  0.00    -0.370 N 
ATOM     39  H   UNL     1     -12.305   0.171  -2.461  1.00  0.00     0.159 HD
ATOM     40  H   UNL     1     -12.800   1.275  -1.218  1.00  0.00     0.159 HD
ATOM     41  H   UNL     1     -14.301   0.633   0.268  1.00  0.00     0.159 HD
ATOM     42  H   UNL     1     -14.618  -1.027   0.601  1.00  0.00     0.159 HD
ENDBRANCH  34  35
ENDBRANCH  33  34
ENDBRANCH  32  33
ENDBRANCH   6  32
ENDBRANCH   4   6
ENDBRANCH   1   2
BRANCH   1  43
ATOM     43  C   UNL     1      -7.432  -0.579   2.816  1.00  0.00     0.102 C 
ATOM     44  C   UNL     1      -7.248   0.013   1.408  1.00  0.00     0.020 C 
BRANCH  43  45
ATOM     45  C   UNL     1      -6.504  -1.760   3.119  1.00  0.00     0.225 C 
ATOM     46  O   UNL     1      -6.731  -2.905   2.740  1.00  0.00    -0.275 OA
ATOM     47  N   UNL     1      -5.431  -1.477   3.933  1.00  0.00    -0.342 N 
ATOM     48  H   UNL     1      -5.176  -0.515   4.108  1.00  0.00     0.164 HD
BRANCH  47  49
ATOM     49  C   UNL     1      -4.440  -2.500   4.278  1.00  0.00     0.192 C 
BRANCH  49  50
ATOM     50  C   UNL     1      -3.841  -2.193   5.652  1.00  0.00     0.047 C 
BRANCH  50  51
ATOM     51  C   UNL     1      -4.919  -1.932   6.713  1.00  0.00     0.103 C 
BRANCH  51  52
ATOM     52  C   UNL     1      -4.331  -1.848   8.120  1.00  0.00     0.226 C 
ATOM     53  O   UNL     1      -3.324  -1.165   8.321  1.00  0.00    -0.275 OA
BRANCH  52  54
ATOM     54  N   UNL     1      -5.040  -2.514   9.137  1.00  0.00    -0.311 N 
ATOM     55  C   UNL     1      -5.773  -3.756   8.858  1.00  0.00     0.153 C 
BRANCH  54  56
ATOM     56  C   UNL     1      -5.070  -2.021  10.452  1.00  0.00     0.102 C 
ATOM     57  C   UNL     1      -4.359  -2.522  11.476  1.00  0.00     0.043 C 
BRANCH  56  58
ATOM     58  C   UNL     1      -5.905  -0.814  10.809  1.00  0.00     0.268 C 
ATOM     59  O   UNL     1      -5.487   0.334  10.740  1.00  0.00    -0.268 OA
ATOM     60  N   UNL     1      -7.196  -1.134  11.155  1.00  0.00    -0.339 N 
ATOM     61  H   UNL     1      -7.461  -2.111  11.199  1.00  0.00     0.164 HD
BRANCH  60  62
ATOM     62  C   UNL     1      -8.193  -0.113  11.477  1.00  0.00     0.168 CG0
ATOM     63  C   UNL     1      -9.139   0.116  10.305  1.00  0.00     0.041 C 
ATOM     64  G   UNL     1      -7.481   1.198  11.869  1.00  0.00     0.000 G0
ENDBRANCH  60  62
ENDBRANCH  56  58
ENDBRANCH  54  56
ENDBRANCH  52  54
ENDBRANCH  51  52
ENDBRANCH  50  51
ENDBRANCH  49  50
BRANCH  49  65
ATOM     65  C   UNL     1      -3.314  -2.573   3.235  1.00  0.00     0.326 C 
ATOM     66  O   UNL     1      -2.142  -2.829   3.472  1.00  0.00    -0.250 OA
BRANCH  65  67
ATOM     67  O   UNL     1      -3.691  -2.265   1.975  1.00  0.00    -0.480 OA
ATOM     68  H   UNL     1      -4.359  -1.557   2.099  1.00  0.00     0.296 HD
ENDBRANCH  65  67
ENDBRANCH  49  65
ENDBRANCH  47  49
ENDBRANCH  43  45
ENDBRANCH   1  43
BRANCH   1  69
ATOM     69  C   UNL     1      -9.248  -1.422   4.548  1.00  0.00    -0.001 C 
ATOM     70  C   UNL     1      -9.937  -2.528   4.879  1.00  0.00     0.001 C 
BRANCH  70  71
ATOM     71  C   UNL     1     -10.238  -3.005   6.230  1.00  0.00    -0.055 C 
ATOM     72  C   UNL     1     -11.519  -2.931   6.651  1.00  0.00    -0.018 C 
ATOM     73  C   UNL     1      -9.100  -3.552   7.052  1.00  0.00     0.044 C 
BRANCH  72  74
ATOM     74  C   UNL     1     -12.119  -3.348   7.986  1.00  0.00     0.038 C 
ATOM     75  C   UNL     1     -11.574  -2.386   9.048  1.00  0.00     0.015 C 
BRANCH  74  76
ATOM     76  C   UNL     1     -11.792  -4.850   8.235  1.00  0.00     0.128 C 
BRANCH  76  77
ATOM     77  O   UNL     1     -11.968  -5.167   9.626  1.00  0.00    -0.381 OA
ATOM     78  C   UNL     1     -12.226  -6.543   9.870  1.00  0.00     0.195 C 
ENDBRANCH  76  77
BRANCH  76  79
ATOM     79  C   UNL     1     -12.549  -5.824   7.297  1.00  0.00     0.068 C 
BRANCH  79  80
ATOM     80  C   UNL     1     -12.028  -6.001   5.892  1.00  0.00    -0.045 A 
ATOM     81  C   UNL     1     -12.800  -5.630   4.783  1.00  0.00     0.004 A 
ATOM     82  C   UNL     1     -10.764  -6.570   5.673  1.00  0.00     0.004 A 
ATOM     83  C   UNL     1     -12.316  -5.811   3.486  1.00  0.00     0.000 A 
ATOM     84  C   UNL     1     -10.281  -6.751   4.375  1.00  0.00     0.000 A 
ATOM     85  C   UNL     1     -11.057  -6.370   3.282  1.00  0.00     0.000 A 
ENDBRANCH  79  80
ENDBRANCH  76  79
ENDBRANCH  74  76
ENDBRANCH  72  74
ENDBRANCH  70  71
ENDBRANCH   1  69
TORSDOF 17
ENDMDL
MODEL 8
REMARK VINA RESULT:    -4.919     16.380     23.165
REMARK INTER + INTRA:         -24.589
REMARK INTER:                 -17.345
REMARK INTRA:                  -7.244
REMARK UNBOUND:                -9.892
REMARK SMILES C=C1C(=O)N[C@H](C)C(=O)N[C@@H](CC(C)C)C(=O)N[C@@H](C(=O)O)[C@H](C)C(=O)N[C@@H](CCCN=C(N)N)C(=O)N[C@@H](/C=C/C(C)=C/[C@H](C)[C@H](Cc2ccccc2)OC)[C@H](C)C(=O)N[C@@H](C(=O)O)CCC(=O)N1C
REMARK SMILES IDX 39 1 38 2 37 3 36 4 28 6 27 7 25 8 26 9 23 11 24 12 19 13
REMARK SMILES IDX 18 14 16 15 17 16 11 18 10 19 8 20 9 21 12 24 13 25 14 26
REMARK SMILES IDX 15 27 20 28 21 29 22 30 29 32 30 33 31 34 32 35 33 36 34 37
REMARK SMILES IDX 35 38 57 43 58 44 59 45 60 46 61 47 62 49 66 50 67 51 68 52
REMARK SMILES IDX 69 53 70 54 71 55 2 56 1 57 3 58 4 59 5 60 6 62 7 63 63 65
REMARK SMILES IDX 64 66 65 67 40 69 41 70 42 71 44 72 43 73 45 74 46 75 47 76
REMARK SMILES IDX 55 77 56 78 48 79 49 80 50 81 54 82 51 83 53 84 52 85
REMARK H PARENT 38 5 27 10 18 17 10 22 22 31 34 39 34 40 35 41 35 42 61 48
REMARK H PARENT 5 61 65 68
REMARK Flexibility Score:  369.900
ROOT
ATOM      1  C   UNL     1       7.048   4.886   6.824  1.00  0.00     0.117 C 
ENDROOT
BRANCH   1   2
ATOM      2  N   UNL     1       7.835   4.790   8.054  1.00  0.00    -0.347 N 
ATOM      3  O   UNL     1       9.892   4.473   7.086  1.00  0.00    -0.273 OA
ATOM      4  C   UNL     1       9.212   4.682   8.085  1.00  0.00     0.243 C 
ATOM      5  H   UNL     1       7.368   4.854   8.946  1.00  0.00     0.164 HD
BRANCH   4   6
ATOM      6  C   UNL     1       9.806   4.684   9.516  1.00  0.00     0.171 C 
BRANCH   6   7
ATOM      7  N   UNL     1       9.063   5.616  10.380  1.00  0.00    -0.344 N 
ATOM      8  C   UNL     1       9.722   6.605  11.077  1.00  0.00     0.226 C 
ATOM      9  O   UNL     1      10.939   6.744  11.034  1.00  0.00    -0.275 OA
ATOM     10  H   UNL     1       8.065   5.491  10.493  1.00  0.00     0.164 HD
BRANCH   8  11
ATOM     11  C   UNL     1       8.811   7.519  11.879  1.00  0.00     0.109 C 
ATOM     12  C   UNL     1       9.158   7.434  13.365  1.00  0.00     0.021 C 
BRANCH  11  13
ATOM     13  C   UNL     1       8.846   8.941  11.285  1.00  0.00     0.204 C 
BRANCH  13  14
ATOM     14  N   UNL     1      10.216   9.438  11.122  1.00  0.00    -0.340 N 
ATOM     15  C   UNL     1      10.801  10.322  12.002  1.00  0.00     0.243 C 
ATOM     16  O   UNL     1      10.235  10.711  13.022  1.00  0.00    -0.273 OA
ATOM     17  H   UNL     1      10.682   9.276  10.225  1.00  0.00     0.164 HD
BRANCH  15  18
ATOM     18  C   UNL     1      12.168  10.864  11.516  1.00  0.00     0.171 C 
BRANCH  18  19
ATOM     19  N   UNL     1      12.060  12.322  11.504  1.00  0.00    -0.343 N 
ATOM     20  C   UNL     1      12.742  13.096  10.585  1.00  0.00     0.242 CG0
ATOM     21  O   UNL     1      13.572  12.607   9.823  1.00  0.00    -0.273 OA
ATOM     22  H   UNL     1      11.474  12.783  12.191  1.00  0.00     0.164 HD
ATOM     23  G   UNL     1      12.442  14.606  10.678  1.00  0.00     0.000 G0
ENDBRANCH  18  19
BRANCH  18  24
ATOM     24  C   UNL     1      13.297  10.392  12.440  1.00  0.00     0.038 C 
BRANCH  24  25
ATOM     25  C   UNL     1      14.287   9.400  11.793  1.00  0.00    -0.015 C 
ATOM     26  C   UNL     1      14.017   9.192  10.302  1.00  0.00     0.007 C 
ATOM     27  C   UNL     1      14.219   8.056  12.521  1.00  0.00     0.007 C 
ENDBRANCH  24  25
ENDBRANCH  18  24
ENDBRANCH  15  18
ENDBRANCH  13  14
BRANCH  13  28
ATOM     28  C   UNL     1       8.160   9.042   9.919  1.00  0.00     0.327 C 
ATOM     29  O   UNL     1       8.688   9.372   8.868  1.00  0.00    -0.250 OA
BRANCH  28  30
ATOM     30  O   UNL     1       6.829   8.837   9.979  1.00  0.00    -0.480 OA
ATOM     31  H   UNL     1       6.444   9.625   9.542  1.00  0.00     0.296 HD
ENDBRANCH  28  30
ENDBRANCH  13  28
ENDBRANCH  11  13
ENDBRANCH   8  11
ENDBRANCH   6   7
BRANCH   6  32
ATOM     32  C   UNL     1       9.761   3.261  10.082  1.00  0.00     0.037 C 
BRANCH  32  33
ATOM     33  C   UNL     1      10.430   3.164  11.460  1.00  0.00     0.026 C 
BRANCH  33  34
ATOM     34  C   UNL     1       9.479   2.638  12.536  1.00  0.00     0.146 C 
BRANCH  34  35
ATOM     35  N   UNL     1       8.575   3.710  12.929  1.00  0.00    -0.254 NA
ATOM     36  C   UNL     1       7.313   3.519  12.826  1.00  0.00     0.185 C 
ATOM     37  N   UNL     1       6.471   4.498  13.190  1.00  0.00    -0.370 N 
ATOM     38  N   UNL     1       6.657   2.430  12.388  1.00  0.00    -0.370 N 
ATOM     39  H   UNL     1       6.890   5.350  13.542  1.00  0.00     0.159 HD
ATOM     40  H   UNL     1       5.480   4.366  13.304  1.00  0.00     0.159 HD
ATOM     41  H   UNL     1       5.664   2.451  12.222  1.00  0.00     0.159 HD
ATOM     42  H   UNL     1       7.165   1.620  12.066  1.00  0.00     0.159 HD
ENDBRANCH  34  35
ENDBRANCH  33  34
ENDBRANCH  32  33
ENDBRANCH   6  32
ENDBRANCH   4   6
ENDBRANCH   1   2
BRANCH   1  43
ATOM     43  C   UNL     1       7.035   6.371   6.360  1.00  0.00     0.102 C 
ATOM     44  C   UNL     1       5.768   7.134   6.782  1.00  0.00     0.020 C 
BRANCH  43  45
ATOM     45  C   UNL     1       7.360   6.484   4.867  1.00  0.00     0.225 C 
ATOM     46  O   UNL     1       6.928   7.384   4.152  1.00  0.00    -0.275 OA
ATOM     47  N   UNL     1       8.100   5.449   4.342  1.00  0.00    -0.342 N 
ATOM     48  H   UNL     1       8.570   4.805   4.963  1.00  0.00     0.164 HD
BRANCH  47  49
ATOM     49  C   UNL     1       8.515   5.440   2.936  1.00  0.00     0.192 C 
BRANCH  49  50
ATOM     50  C   UNL     1       8.064   4.136   2.275  1.00  0.00     0.047 C 
BRANCH  50  51
ATOM     51  C   UNL     1       7.691   3.060   3.304  1.00  0.00     0.103 C 
BRANCH  51  52
ATOM     52  C   UNL     1       6.892   1.919   2.677  1.00  0.00     0.226 C 
ATOM     53  O   UNL     1       5.704   1.774   2.969  1.00  0.00    -0.275 OA
BRANCH  52  54
ATOM     54  N   UNL     1       7.565   1.132   1.723  1.00  0.00    -0.311 N 
ATOM     55  C   UNL     1       8.692   0.273   2.111  1.00  0.00     0.153 C 
BRANCH  54  56
ATOM     56  C   UNL     1       7.184   1.135   0.371  1.00  0.00     0.102 C 
ATOM     57  C   UNL     1       7.569   2.049  -0.534  1.00  0.00     0.043 C 
BRANCH  56  58
ATOM     58  C   UNL     1       6.313   0.035  -0.190  1.00  0.00     0.268 C 
ATOM     59  O   UNL     1       5.719  -0.772   0.511  1.00  0.00    -0.268 OA
ATOM     60  N   UNL     1       6.206   0.077  -1.560  1.00  0.00    -0.339 N 
ATOM     61  H   UNL     1       6.740   0.772  -2.069  1.00  0.00     0.164 HD
BRANCH  60  62
ATOM     62  C   UNL     1       5.363  -0.857  -2.304  1.00  0.00     0.168 CG0
ATOM     63  C   UNL     1       5.950  -2.263  -2.280  1.00  0.00     0.041 C 
ATOM     64  G   UNL     1       5.196  -0.359  -3.755  1.00  0.00     0.000 G0
ENDBRANCH  60  62
ENDBRANCH  56  58
ENDBRANCH  54  56
ENDBRANCH  52  54
ENDBRANCH  51  52
ENDBRANCH  50  51
ENDBRANCH  49  50
BRANCH  49  65
ATOM     65  C   UNL     1      10.039   5.583   2.795  1.00  0.00     0.326 C 
ATOM     66  O   UNL     1      10.797   4.722   2.372  1.00  0.00    -0.250 OA
BRANCH  65  67
ATOM     67  O   UNL     1      10.539   6.756   3.241  1.00  0.00    -0.480 OA
ATOM     68  H   UNL     1      11.455   6.529   3.511  1.00  0.00     0.296 HD
ENDBRANCH  65  67
ENDBRANCH  49  65
ENDBRANCH  47  49
ENDBRANCH  43  45
ENDBRANCH   1  43
BRANCH   1  69
ATOM     69  C   UNL     1       5.727   4.196   7.111  1.00  0.00    -0.001 C 
ATOM     70  C   UNL     1       5.062   3.342   6.313  1.00  0.00     0.001 C 
BRANCH  70  71
ATOM     71  C   UNL     1       3.797   2.665   6.610  1.00  0.00    -0.055 C 
ATOM     72  C   UNL     1       2.995   3.216   7.545  1.00  0.00    -0.018 C 
ATOM     73  C   UNL     1       3.478   1.407   5.845  1.00  0.00     0.044 C 
BRANCH  72  74
ATOM     74  C   UNL     1       1.640   2.743   8.051  1.00  0.00     0.038 C 
ATOM     75  C   UNL     1       0.572   3.403   7.170  1.00  0.00     0.015 C 
BRANCH  74  76
ATOM     76  C   UNL     1       1.529   3.072   9.568  1.00  0.00     0.128 C 
BRANCH  76  77
ATOM     77  O   UNL     1       1.118   1.902  10.296  1.00  0.00    -0.381 OA
ATOM     78  C   UNL     1       2.095   0.870  10.316  1.00  0.00     0.195 C 
ENDBRANCH  76  77
BRANCH  76  79
ATOM     79  C   UNL     1       2.797   3.733  10.164  1.00  0.00     0.068 C 
BRANCH  79  80
ATOM     80  C   UNL     1       2.767   5.221  10.417  1.00  0.00    -0.045 A 
ATOM     81  C   UNL     1       2.344   5.735  11.650  1.00  0.00     0.004 A 
ATOM     82  C   UNL     1       3.138   6.119   9.404  1.00  0.00     0.004 A 
ATOM     83  C   UNL     1       2.305   7.114  11.871  1.00  0.00     0.000 A 
ATOM     84  C   UNL     1       3.098   7.497   9.626  1.00  0.00     0.000 A 
ATOM     85  C   UNL     1       2.683   7.994  10.859  1.00  0.00     0.000 A 
ENDBRANCH  79  80
ENDBRANCH  76  79
ENDBRANCH  74  76
ENDBRANCH  72  74
ENDBRANCH  70  71
ENDBRANCH   1  69
TORSDOF 17
ENDMDL
MODEL 9
REMARK VINA RESULT:    -4.911     16.408     23.217
REMARK INTER + INTRA:         -24.566
REMARK INTER:                 -17.175
REMARK INTRA:                  -7.391
REMARK UNBOUND:                -9.892
REMARK SMILES C=C1C(=O)N[C@H](C)C(=O)N[C@@H](CC(C)C)C(=O)N[C@@H](C(=O)O)[C@H](C)C(=O)N[C@@H](CCCN=C(N)N)C(=O)N[C@@H](/C=C/C(C)=C/[C@H](C)[C@H](Cc2ccccc2)OC)[C@H](C)C(=O)N[C@@H](C(=O)O)CCC(=O)N1C
REMARK SMILES IDX 39 1 38 2 37 3 36 4 28 6 27 7 25 8 26 9 23 11 24 12 19 13
REMARK SMILES IDX 18 14 16 15 17 16 11 18 10 19 8 20 9 21 12 24 13 25 14 26
REMARK SMILES IDX 15 27 20 28 21 29 22 30 29 32 30 33 31 34 32 35 33 36 34 37
REMARK SMILES IDX 35 38 57 43 58 44 59 45 60 46 61 47 62 49 66 50 67 51 68 52
REMARK SMILES IDX 69 53 70 54 71 55 2 56 1 57 3 58 4 59 5 60 6 62 7 63 63 65
REMARK SMILES IDX 64 66 65 67 40 69 41 70 42 71 44 72 43 73 45 74 46 75 47 76
REMARK SMILES IDX 55 77 56 78 48 79 49 80 50 81 54 82 51 83 53 84 52 85
REMARK H PARENT 38 5 27 10 18 17 10 22 22 31 34 39 34 40 35 41 35 42 61 48
REMARK H PARENT 5 61 65 68
REMARK Flexibility Score:  369.900
ROOT
ATOM      1  C   UNL     1       6.765   4.875   6.951  1.00  0.00     0.117 C 
ENDROOT
BRANCH   1   2
ATOM      2  N   UNL     1       7.786   4.937   7.997  1.00  0.00    -0.347 N 
ATOM      3  O   UNL     1       9.599   4.391   6.698  1.00  0.00    -0.273 OA
ATOM      4  C   UNL     1       9.139   4.779   7.767  1.00  0.00     0.243 C 
ATOM      5  H   UNL     1       7.512   5.155   8.943  1.00  0.00     0.164 HD
BRANCH   4   6
ATOM      6  C   UNL     1      10.013   4.976   9.032  1.00  0.00     0.171 C 
BRANCH   6   7
ATOM      7  N   UNL     1       9.240   5.640  10.093  1.00  0.00    -0.344 N 
ATOM      8  C   UNL     1       9.801   6.650  10.844  1.00  0.00     0.226 C 
ATOM      9  O   UNL     1      10.957   7.026  10.687  1.00  0.00    -0.275 OA
ATOM     10  H   UNL     1       8.304   5.312  10.298  1.00  0.00     0.164 HD
BRANCH   8  11
ATOM     11  C   UNL     1       8.859   7.271  11.861  1.00  0.00     0.109 C 
ATOM     12  C   UNL     1       9.359   6.995  13.279  1.00  0.00     0.021 C 
BRANCH  11  13
ATOM     13  C   UNL     1       8.642   8.761  11.528  1.00  0.00     0.204 C 
BRANCH  13  14
ATOM     14  N   UNL     1       9.868   9.548  11.693  1.00  0.00    -0.340 N 
ATOM     15  C   UNL     1      10.022  10.494  12.683  1.00  0.00     0.243 C 
ATOM     16  O   UNL     1       9.163  10.702  13.537  1.00  0.00    -0.273 OA
ATOM     17  H   UNL     1      10.554   9.533  10.934  1.00  0.00     0.164 HD
BRANCH  15  18
ATOM     18  C   UNL     1      11.310  11.340  12.534  1.00  0.00     0.171 C 
BRANCH  18  19
ATOM     19  N   UNL     1      10.978  12.691  12.982  1.00  0.00    -0.343 N 
ATOM     20  C   UNL     1      11.309  13.808  12.239  1.00  0.00     0.242 CG0
ATOM     21  O   UNL     1      12.014  13.727  11.236  1.00  0.00    -0.273 OA
ATOM     22  H   UNL     1      10.496  12.818  13.865  1.00  0.00     0.164 HD
ATOM     23  G   UNL     1      10.807  15.140  12.833  1.00  0.00     0.000 G0
ENDBRANCH  18  19
BRANCH  18  24
ATOM     24  C   UNL     1      12.452  10.739  13.362  1.00  0.00     0.038 C 
BRANCH  24  25
ATOM     25  C   UNL     1      13.581  10.094  12.530  1.00  0.00    -0.015 C 
ATOM     26  C   UNL     1      13.589  10.578  11.080  1.00  0.00     0.007 C 
ATOM     27  C   UNL     1      13.440   8.570  12.564  1.00  0.00     0.007 C 
ENDBRANCH  24  25
ENDBRANCH  18  24
ENDBRANCH  15  18
ENDBRANCH  13  14
BRANCH  13  28
ATOM     28  C   UNL     1       8.142   8.994  10.099  1.00  0.00     0.327 C 
ATOM     29  O   UNL     1       8.812   9.374   9.152  1.00  0.00    -0.250 OA
BRANCH  28  30
ATOM     30  O   UNL     1       6.807   8.849   9.976  1.00  0.00    -0.480 OA
ATOM     31  H   UNL     1       6.691   8.412   9.107  1.00  0.00     0.296 HD
ENDBRANCH  28  30
ENDBRANCH  13  28
ENDBRANCH  11  13
ENDBRANCH   8  11
ENDBRANCH   6   7
BRANCH   6  32
ATOM     32  C   UNL     1      10.531   3.613   9.504  1.00  0.00     0.037 C 
BRANCH  32  33
ATOM     33  C   UNL     1       9.603   2.969  10.544  1.00  0.00     0.026 C 
BRANCH  33  34
ATOM     34  C   UNL     1       8.814   1.790   9.973  1.00  0.00     0.146 C 
BRANCH  34  35
ATOM     35  N   UNL     1       9.752   0.784   9.495  1.00  0.00    -0.254 NA
ATOM     36  C   UNL     1       9.321  -0.136   8.714  1.00  0.00     0.185 C 
ATOM     37  N   UNL     1      10.178  -1.065   8.263  1.00  0.00    -0.370 N 
ATOM     38  N   UNL     1       8.076  -0.332   8.246  1.00  0.00    -0.370 N 
ATOM     39  H   UNL     1      11.140  -0.980   8.564  1.00  0.00     0.159 HD
ATOM     40  H   UNL     1       9.962  -1.707   7.520  1.00  0.00     0.159 HD
ATOM     41  H   UNL     1       7.832  -1.173   7.749  1.00  0.00     0.159 HD
ATOM     42  H   UNL     1       7.324   0.283   8.516  1.00  0.00     0.159 HD
ENDBRANCH  34  35
ENDBRANCH  33  34
ENDBRANCH  32  33
ENDBRANCH   6  32
ENDBRANCH   4   6
ENDBRANCH   1   2
BRANCH   1  43
ATOM     43  C   UNL     1       6.482   6.321   6.450  1.00  0.00     0.102 C 
ATOM     44  C   UNL     1       5.020   6.759   6.642  1.00  0.00     0.020 C 
BRANCH  43  45
ATOM     45  C   UNL     1       7.010   6.524   5.027  1.00  0.00     0.225 C 
ATOM     46  O   UNL     1       6.732   7.504   4.342  1.00  0.00    -0.275 OA
ATOM     47  N   UNL     1       7.752   5.483   4.516  1.00  0.00    -0.342 N 
ATOM     48  H   UNL     1       8.095   4.763   5.136  1.00  0.00     0.164 HD
BRANCH  47  49
ATOM     49  C   UNL     1       8.351   5.553   3.180  1.00  0.00     0.192 C 
BRANCH  49  50
ATOM     50  C   UNL     1       7.862   4.374   2.335  1.00  0.00     0.047 C 
BRANCH  50  51
ATOM     51  C   UNL     1       7.124   3.323   3.174  1.00  0.00     0.103 C 
BRANCH  51  52
ATOM     52  C   UNL     1       8.003   2.112   3.480  1.00  0.00     0.226 C 
ATOM     53  O   UNL     1       8.558   2.022   4.577  1.00  0.00    -0.275 OA
BRANCH  52  54
ATOM     54  N   UNL     1       8.064   1.115   2.489  1.00  0.00    -0.311 N 
ATOM     55  C   UNL     1       9.337   0.468   2.144  1.00  0.00     0.153 C 
BRANCH  54  56
ATOM     56  C   UNL     1       6.914   0.698   1.798  1.00  0.00     0.102 C 
ATOM     57  C   UNL     1       5.804   0.212   2.377  1.00  0.00     0.043 C 
BRANCH  56  58
ATOM     58  C   UNL     1       6.828   0.816   0.294  1.00  0.00     0.268 C 
ATOM     59  O   UNL     1       7.180   1.814  -0.320  1.00  0.00    -0.268 OA
ATOM     60  N   UNL     1       6.376  -0.332  -0.312  1.00  0.00    -0.339 N 
ATOM     61  H   UNL     1       6.094  -1.111   0.269  1.00  0.00     0.164 HD
BRANCH  60  62
ATOM     62  C   UNL     1       6.275  -0.456  -1.766  1.00  0.00     0.168 CG0
ATOM     63  C   UNL     1       4.824  -0.375  -2.222  1.00  0.00     0.041 C 
ATOM     64  G   UNL     1       6.916  -1.785  -2.217  1.00  0.00     0.000 G0
ENDBRANCH  60  62
ENDBRANCH  56  58
ENDBRANCH  54  56
ENDBRANCH  52  54
ENDBRANCH  51  52
ENDBRANCH  50  51
ENDBRANCH  49  50
BRANCH  49  65
ATOM     65  C   UNL     1       9.886   5.529   3.246  1.00  0.00     0.326 C 
ATOM     66  O   UNL     1      10.578   4.527   3.351  1.00  0.00    -0.250 OA
BRANCH  65  67
ATOM     67  O   UNL     1      10.470   6.748   3.239  1.00  0.00    -0.480 OA
ATOM     68  H   UNL     1       9.713   7.366   3.147  1.00  0.00     0.296 HD
ENDBRANCH  65  67
ENDBRANCH  49  65
ENDBRANCH  47  49
ENDBRANCH  43  45
ENDBRANCH   1  43
BRANCH   1  69
ATOM     69  C   UNL     1       5.620   4.060   7.523  1.00  0.00    -0.001 C 
ATOM     70  C   UNL     1       5.678   3.156   8.517  1.00  0.00     0.001 C 
BRANCH  70  71
ATOM     71  C   UNL     1       4.561   2.390   9.075  1.00  0.00    -0.055 C 
ATOM     72  C   UNL     1       3.533   3.080   9.613  1.00  0.00    -0.018 C 
ATOM     73  C   UNL     1       4.635   0.887   9.003  1.00  0.00     0.044 C 
BRANCH  72  74
ATOM     74  C   UNL     1       2.255   2.560  10.255  1.00  0.00     0.038 C 
ATOM     75  C   UNL     1       1.203   2.452   9.144  1.00  0.00     0.015 C 
BRANCH  74  76
ATOM     76  C   UNL     1       1.867   3.502  11.432  1.00  0.00     0.128 C 
BRANCH  76  77
ATOM     77  O   UNL     1       1.365   2.727  12.535  1.00  0.00    -0.381 OA
ATOM     78  C   UNL     1       0.653   3.496  13.495  1.00  0.00     0.195 C 
ENDBRANCH  76  77
BRANCH  76  79
ATOM     79  C   UNL     1       2.991   4.483  11.851  1.00  0.00     0.068 C 
BRANCH  79  80
ATOM     80  C   UNL     1       2.842   5.934  11.465  1.00  0.00    -0.045 A 
ATOM     81  C   UNL     1       2.070   6.812  12.238  1.00  0.00     0.004 A 
ATOM     82  C   UNL     1       3.457   6.423  10.302  1.00  0.00     0.004 A 
ATOM     83  C   UNL     1       1.926   8.150  11.866  1.00  0.00     0.000 A 
ATOM     84  C   UNL     1       3.312   7.762   9.931  1.00  0.00     0.000 A 
ATOM     85  C   UNL     1       2.548   8.625  10.713  1.00  0.00     0.000 A 
ENDBRANCH  79  80
ENDBRANCH  76  79
ENDBRANCH  74  76
ENDBRANCH  72  74
ENDBRANCH  70  71
ENDBRANCH   1  69
TORSDOF 17
ENDMDL
MODEL 10
REMARK VINA RESULT:    -4.884      3.500      4.527
REMARK INTER + INTRA:         -24.484
REMARK INTER:                 -18.092
REMARK INTRA:                  -6.392
REMARK UNBOUND:                -9.892
REMARK SMILES C=C1C(=O)N[C@H](C)C(=O)N[C@@H](CC(C)C)C(=O)N[C@@H](C(=O)O)[C@H](C)C(=O)N[C@@H](CCCN=C(N)N)C(=O)N[C@@H](/C=C/C(C)=C/[C@H](C)[C@H](Cc2ccccc2)OC)[C@H](C)C(=O)N[C@@H](C(=O)O)CCC(=O)N1C
REMARK SMILES IDX 39 1 38 2 37 3 36 4 28 6 27 7 25 8 26 9 23 11 24 12 19 13
REMARK SMILES IDX 18 14 16 15 17 16 11 18 10 19 8 20 9 21 12 24 13 25 14 26
REMARK SMILES IDX 15 27 20 28 21 29 22 30 29 32 30 33 31 34 32 35 33 36 34 37
REMARK SMILES IDX 35 38 57 43 58 44 59 45 60 46 61 47 62 49 66 50 67 51 68 52
REMARK SMILES IDX 69 53 70 54 71 55 2 56 1 57 3 58 4 59 5 60 6 62 7 63 63 65
REMARK SMILES IDX 64 66 65 67 40 69 41 70 42 71 44 72 43 73 45 74 46 75 47 76
REMARK SMILES IDX 55 77 56 78 48 79 49 80 50 81 54 82 51 83 53 84 52 85
REMARK H PARENT 38 5 27 10 18 17 10 22 22 31 34 39 34 40 35 41 35 42 61 48
REMARK H PARENT 5 61 65 68
REMARK Flexibility Score:  369.900
ROOT
ATOM      1  C   UNL     1      -8.666  -1.019   3.097  1.00  0.00     0.117 C 
ENDROOT
BRANCH   1   2
ATOM      2  N   UNL     1      -9.175  -2.047   2.189  1.00  0.00    -0.347 N 
ATOM      3  O   UNL     1     -11.181  -1.051   1.683  1.00  0.00    -0.273 OA
ATOM      4  C   UNL     1     -10.357  -1.937   1.481  1.00  0.00     0.243 C 
ATOM      5  H   UNL     1      -8.622  -2.873   2.017  1.00  0.00     0.164 HD
BRANCH   4   6
ATOM      6  C   UNL     1     -10.623  -3.126   0.524  1.00  0.00     0.171 C 
BRANCH   6   7
ATOM      7  N   UNL     1      -9.616  -4.181   0.722  1.00  0.00    -0.344 N 
ATOM      8  C   UNL     1      -9.107  -4.878  -0.353  1.00  0.00     0.226 C 
ATOM      9  O   UNL     1      -9.475  -4.676  -1.504  1.00  0.00    -0.275 OA
ATOM     10  H   UNL     1      -9.338  -4.423   1.665  1.00  0.00     0.164 HD
BRANCH   8  11
ATOM     11  C   UNL     1      -8.039  -5.894   0.010  1.00  0.00     0.109 C 
ATOM     12  C   UNL     1      -7.958  -6.053   1.528  1.00  0.00     0.021 C 
BRANCH  11  13
ATOM     13  C   UNL     1      -8.281  -7.204  -0.767  1.00  0.00     0.204 C 
BRANCH  13  14
ATOM     14  N   UNL     1      -8.102  -7.030  -2.211  1.00  0.00    -0.340 N 
ATOM     15  C   UNL     1      -8.793  -7.770  -3.146  1.00  0.00     0.243 C 
ATOM     16  O   UNL     1      -9.655  -8.589  -2.833  1.00  0.00    -0.273 OA
ATOM     17  H   UNL     1      -7.300  -6.481  -2.533  1.00  0.00     0.164 HD
BRANCH  15  18
ATOM     18  C   UNL     1      -8.290  -7.561  -4.595  1.00  0.00     0.171 C 
BRANCH  18  19
ATOM     19  N   UNL     1      -9.242  -8.243  -5.471  1.00  0.00    -0.343 N 
ATOM     20  C   UNL     1      -8.827  -9.001  -6.549  1.00  0.00     0.242 CG0
ATOM     21  O   UNL     1      -7.650  -9.029  -6.900  1.00  0.00    -0.273 OA
ATOM     22  H   UNL     1     -10.235  -8.156  -5.289  1.00  0.00     0.164 HD
ATOM     23  G   UNL     1      -9.969  -9.708  -7.307  1.00  0.00     0.000 G0
ENDBRANCH  18  19
BRANCH  18  24
ATOM     24  C   UNL     1      -8.195  -6.066  -4.925  1.00  0.00     0.038 C 
BRANCH  24  25
ATOM     25  C   UNL     1      -6.879  -5.640  -5.609  1.00  0.00    -0.015 C 
ATOM     26  C   UNL     1      -6.989  -5.626  -7.134  1.00  0.00     0.007 C 
ATOM     27  C   UNL     1      -5.749  -6.582  -5.183  1.00  0.00     0.007 C 
ENDBRANCH  24  25
ENDBRANCH  18  24
ENDBRANCH  15  18
ENDBRANCH  13  14
BRANCH  13  28
ATOM     28  C   UNL     1      -7.356  -8.344  -0.329  1.00  0.00     0.327 C 
ATOM     29  O   UNL     1      -7.687  -9.349   0.282  1.00  0.00    -0.250 OA
BRANCH  28  30
ATOM     30  O   UNL     1      -6.055  -8.096  -0.581  1.00  0.00    -0.480 OA
ATOM     31  H   UNL     1      -5.642  -8.984  -0.615  1.00  0.00     0.296 HD
ENDBRANCH  28  30
ENDBRANCH  13  28
ENDBRANCH  11  13
ENDBRANCH   8  11
ENDBRANCH   6   7
BRANCH   6  32
ATOM     32  C   UNL     1     -12.037  -3.665   0.772  1.00  0.00     0.037 C 
BRANCH  32  33
ATOM     33  C   UNL     1     -12.729  -4.093  -0.530  1.00  0.00     0.026 C 
BRANCH  33  34
ATOM     34  C   UNL     1     -13.852  -3.138  -0.937  1.00  0.00     0.146 C 
BRANCH  34  35
ATOM     35  N   UNL     1     -13.268  -1.987  -1.610  1.00  0.00    -0.254 NA
ATOM     36  C   UNL     1     -13.311  -0.847  -1.026  1.00  0.00     0.185 C 
ATOM     37  N   UNL     1     -12.771   0.220  -1.635  1.00  0.00    -0.370 N 
ATOM     38  N   UNL     1     -13.839  -0.529   0.169  1.00  0.00    -0.370 N 
ATOM     39  H   UNL     1     -12.342   0.059  -2.538  1.00  0.00     0.159 HD
ATOM     40  H   UNL     1     -12.610   1.100  -1.176  1.00  0.00     0.159 HD
ATOM     41  H   UNL     1     -13.934   0.431   0.457  1.00  0.00     0.159 HD
ATOM     42  H   UNL     1     -14.293  -1.231   0.731  1.00  0.00     0.159 HD
ENDBRANCH  34  35
ENDBRANCH  33  34
ENDBRANCH  32  33
ENDBRANCH   6  32
ENDBRANCH   4   6
ENDBRANCH   1   2
BRANCH   1  43
ATOM     43  C   UNL     1      -7.171  -0.752   2.754  1.00  0.00     0.102 C 
ATOM     44  C   UNL     1      -6.964  -0.130   1.363  1.00  0.00     0.020 C 
BRANCH  43  45
ATOM     45  C   UNL     1      -6.318  -1.998   3.011  1.00  0.00     0.225 C 
ATOM     46  O   UNL     1      -6.780  -3.135   3.033  1.00  0.00    -0.275 OA
ATOM     47  N   UNL     1      -4.997  -1.758   3.314  1.00  0.00    -0.342 N 
ATOM     48  H   UNL     1      -4.602  -0.844   3.144  1.00  0.00     0.164 HD
BRANCH  47  49
ATOM     49  C   UNL     1      -4.053  -2.856   3.548  1.00  0.00     0.192 C 
BRANCH  49  50
ATOM     50  C   UNL     1      -2.871  -2.350   4.378  1.00  0.00     0.047 C 
BRANCH  50  51
ATOM     51  C   UNL     1      -2.958  -0.843   4.657  1.00  0.00     0.103 C 
BRANCH  51  52
ATOM     52  C   UNL     1      -1.805  -0.353   5.530  1.00  0.00     0.226 C 
ATOM     53  O   UNL     1      -1.681  -0.786   6.677  1.00  0.00    -0.275 OA
BRANCH  52  54
ATOM     54  N   UNL     1      -0.890   0.528   4.923  1.00  0.00    -0.311 N 
ATOM     55  C   UNL     1       0.284   0.021   4.201  1.00  0.00     0.153 C 
BRANCH  54  56
ATOM     56  C   UNL     1      -1.067   1.921   4.980  1.00  0.00     0.102 C 
ATOM     57  C   UNL     1      -1.630   2.664   4.013  1.00  0.00     0.043 C 
BRANCH  56  58
ATOM     58  C   UNL     1      -0.660   2.704   6.206  1.00  0.00     0.268 C 
ATOM     59  O   UNL     1      -1.440   2.999   7.102  1.00  0.00    -0.268 OA
ATOM     60  N   UNL     1       0.683   2.992   6.241  1.00  0.00    -0.339 N 
ATOM     61  H   UNL     1       1.261   2.722   5.454  1.00  0.00     0.164 HD
BRANCH  60  62
ATOM     62  C   UNL     1       1.301   3.689   7.369  1.00  0.00     0.168 CG0
ATOM     63  C   UNL     1       1.974   2.705   8.318  1.00  0.00     0.041 C 
ATOM     64  G   UNL     1       0.234   4.520   8.110  1.00  0.00     0.000 G0
ENDBRANCH  60  62
ENDBRANCH  56  58
ENDBRANCH  54  56
ENDBRANCH  52  54
ENDBRANCH  51  52
ENDBRANCH  50  51
ENDBRANCH  49  50
BRANCH  49  65
ATOM     65  C   UNL     1      -3.532  -3.447   2.229  1.00  0.00     0.326 C 
ATOM     66  O   UNL     1      -2.562  -4.181   2.113  1.00  0.00    -0.250 OA
BRANCH  65  67
ATOM     67  O   UNL     1      -4.205  -3.046   1.127  1.00  0.00    -0.480 OA
ATOM     68  H   UNL     1      -4.271  -3.863   0.587  1.00  0.00     0.296 HD
ENDBRANCH  65  67
ENDBRANCH  49  65
ENDBRANCH  47  49
ENDBRANCH  43  45
ENDBRANCH   1  43
BRANCH   1  69
ATOM     69  C   UNL     1      -9.027  -1.474   4.499  1.00  0.00    -0.001 C 
ATOM     70  C   UNL     1      -9.718  -2.573   4.848  1.00  0.00     0.001 C 
BRANCH  70  71
ATOM     71  C   UNL     1     -10.042  -3.014   6.206  1.00  0.00    -0.055 C 
ATOM     72  C   UNL     1     -11.323  -2.896   6.615  1.00  0.00    -0.018 C 
ATOM     73  C   UNL     1      -8.926  -3.575   7.048  1.00  0.00     0.044 C 
BRANCH  72  74
ATOM     74  C   UNL     1     -11.945  -3.270   7.953  1.00  0.00     0.038 C 
ATOM     75  C   UNL     1     -11.461  -2.239   8.980  1.00  0.00     0.015 C 
BRANCH  74  76
ATOM     76  C   UNL     1     -11.573  -4.745   8.284  1.00  0.00     0.128 C 
BRANCH  76  77
ATOM     77  O   UNL     1     -11.705  -4.980   9.696  1.00  0.00    -0.381 OA
ATOM     78  C   UNL     1     -10.605  -5.678  10.265  1.00  0.00     0.195 C 
ENDBRANCH  76  77
BRANCH  76  79
ATOM     79  C   UNL     1     -12.330  -5.792   7.429  1.00  0.00     0.068 C 
BRANCH  79  80
ATOM     80  C   UNL     1     -11.892  -5.985   5.997  1.00  0.00    -0.045 A 
ATOM     81  C   UNL     1     -12.729  -5.626   4.932  1.00  0.00     0.004 A 
ATOM     82  C   UNL     1     -10.643  -6.556   5.709  1.00  0.00     0.004 A 
ATOM     83  C   UNL     1     -12.323  -5.821   3.610  1.00  0.00     0.000 A 
ATOM     84  C   UNL     1     -10.239  -6.751   4.387  1.00  0.00     0.000 A 
ATOM     85  C   UNL     1     -11.077  -6.382   3.338  1.00  0.00     0.000 A 
ENDBRANCH  79  80
ENDBRANCH  76  79
ENDBRANCH  74  76
ENDBRANCH  72  74
ENDBRANCH  70  71
ENDBRANCH   1  69
TORSDOF 17
ENDMDL
