MODEL 1
REMARK VINA RESULT:    -5.756      0.000      0.000
REMARK INTER + INTRA:         -22.264
REMARK INTER:                 -14.337
REMARK INTRA:                  -7.927
REMARK UNBOUND:                -7.927
REMARK SMILES CCCCCCC[C@H](N)[C@H](O)C(=O)N[C@H](C)C(=O)N(C)[C@H](CC(C)C)C(=O)N[C@@H](Cc1ccc(O)cc1)C(=O)N[C@@H](Cc1ccc(O)cc1)C(=O)O
REMARK SMILES IDX 18 1 17 2 15 3 16 4 14 5 12 6 13 7 10 9 11 10 8 12 9 13 7 16
REMARK SMILES IDX 6 17 5 18 4 19 3 20 2 21 1 22 19 23 20 24 21 25 22 26 23 27
REMARK SMILES IDX 24 28 25 29 26 30 27 31 28 32 29 34 30 35 31 36 32 37 37 38
REMARK SMILES IDX 33 39 36 40 34 41 35 42 38 44 39 45 40 46 41 48 42 49 43 50
REMARK SMILES IDX 44 51 49 52 45 53 48 54 46 55 47 56 50 58 51 59 52 60
REMARK H PARENT 14 8 11 11 9 14 9 15 28 33 35 43 40 47 47 57 52 61
ROOT
ATOM      1  O   UNL     1      10.231  -5.543 -15.570  1.00  0.00    -0.272 OA
ATOM      2  C   UNL     1      10.158  -4.556 -16.317  1.00  0.00     0.245 C 
ENDROOT
BRANCH   2   3
ATOM      3  C   UNL     1       8.920  -4.413 -17.236  1.00  0.00     0.168 C 
ATOM      4  C   UNL     1       8.811  -5.599 -18.188  1.00  0.00     0.041 C 
BRANCH   3   5
ATOM      5  N   UNL     1       7.668  -4.160 -16.540  1.00  0.00    -0.342 N 
ATOM      6  C   UNL     1       6.748  -3.245 -17.006  1.00  0.00     0.251 C 
ATOM      7  O   UNL     1       6.927  -2.553 -18.003  1.00  0.00    -0.272 OA
ATOM      8  H   UNL     1       7.423  -4.649 -15.682  1.00  0.00     0.164 HD
BRANCH   6   9
ATOM      9  C   UNL     1       5.442  -3.248 -16.194  1.00  0.00     0.219 C 
BRANCH   9  10
ATOM     10  O   UNL     1       5.057  -4.562 -15.772  1.00  0.00    -0.382 OA
ATOM     11  H   UNL     1       4.703  -4.419 -14.867  1.00  0.00     0.211 HD
ENDBRANCH   9  10
BRANCH   9  12
ATOM     12  C   UNL     1       5.471  -2.269 -14.991  1.00  0.00     0.089 C 
BRANCH  12  13
ATOM     13  N   UNL     1       6.883  -1.925 -14.703  1.00  0.00    -0.325 NA
ATOM     14  H   UNL     1       7.431  -2.785 -14.634  1.00  0.00     0.119 HD
ATOM     15  H   UNL     1       6.936  -1.499 -13.774  1.00  0.00     0.119 HD
ENDBRANCH  12  13
BRANCH  12  16
ATOM     16  C   UNL     1       4.631  -0.979 -15.146  1.00  0.00     0.022 C 
BRANCH  16  17
ATOM     17  C   UNL     1       3.276  -0.880 -14.430  1.00  0.00     0.002 C 
BRANCH  17  18
ATOM     18  C   UNL     1       3.352  -0.879 -12.905  1.00  0.00     0.000 C 
BRANCH  18  19
ATOM     19  C   UNL     1       2.403  -1.879 -12.232  1.00  0.00    -0.000 C 
BRANCH  19  20
ATOM     20  C   UNL     1       2.434  -3.296 -12.812  1.00  0.00    -0.000 C 
BRANCH  20  21
ATOM     21  C   UNL     1       1.154  -3.663 -13.567  1.00  0.00    -0.003 C 
ATOM     22  C   UNL     1       1.435  -4.657 -14.684  1.00  0.00     0.004 C 
ENDBRANCH  20  21
ENDBRANCH  19  20
ENDBRANCH  18  19
ENDBRANCH  17  18
ENDBRANCH  16  17
ENDBRANCH  12  16
ENDBRANCH   9  12
ENDBRANCH   6   9
ENDBRANCH   3   5
ENDBRANCH   2   3
BRANCH   2  23
ATOM     23  N   UNL     1      11.111  -3.547 -16.231  1.00  0.00    -0.332 N 
ATOM     24  C   UNL     1      12.508  -3.695 -16.613  1.00  0.00     0.147 C 
BRANCH  23  25
ATOM     25  C   UNL     1      10.710  -2.165 -15.847  1.00  0.00     0.174 C 
BRANCH  25  26
ATOM     26  C   UNL     1      11.242  -1.090 -16.823  1.00  0.00     0.038 C 
BRANCH  26  27
ATOM     27  C   UNL     1      10.213  -0.434 -17.770  1.00  0.00    -0.015 C 
ATOM     28  C   UNL     1       9.919  -1.292 -19.000  1.00  0.00     0.007 C 
ATOM     29  C   UNL     1       8.915  -0.033 -17.073  1.00  0.00     0.007 C 
ENDBRANCH  26  27
ENDBRANCH  25  26
BRANCH  25  30
ATOM     30  C   UNL     1      11.075  -1.898 -14.369  1.00  0.00     0.243 C 
ATOM     31  O   UNL     1      12.243  -1.828 -13.990  1.00  0.00    -0.273 OA
ATOM     32  N   UNL     1      10.014  -1.750 -13.513  1.00  0.00    -0.342 N 
ATOM     33  H   UNL     1       9.079  -1.680 -13.925  1.00  0.00     0.164 HD
BRANCH  32  34
ATOM     34  C   UNL     1      10.170  -1.518 -12.075  1.00  0.00     0.175 C 
BRANCH  34  35
ATOM     35  C   UNL     1      10.001  -0.031 -11.727  1.00  0.00     0.070 C 
BRANCH  35  36
ATOM     36  C   UNL     1       8.729   0.560 -12.290  1.00  0.00    -0.045 A 
ATOM     37  C   UNL     1       8.753   1.234 -13.520  1.00  0.00     0.007 A 
ATOM     38  C   UNL     1       7.520   0.466 -11.588  1.00  0.00     0.007 A 
ATOM     39  C   UNL     1       7.586   1.796 -14.041  1.00  0.00     0.046 A 
ATOM     40  C   UNL     1       6.352   1.029 -12.108  1.00  0.00     0.046 A 
ATOM     41  C   UNL     1       6.396   1.688 -13.332  1.00  0.00     0.115 A 
BRANCH  41  42
ATOM     42  O   UNL     1       5.280   2.253 -13.874  1.00  0.00    -0.508 OA
ATOM     43  H   UNL     1       4.572   1.588 -13.875  1.00  0.00     0.293 HD
ENDBRANCH  41  42
ENDBRANCH  35  36
ENDBRANCH  34  35
BRANCH  34  44
ATOM     44  C   UNL     1       9.144  -2.405 -11.333  1.00  0.00     0.243 C 
ATOM     45  O   UNL     1       9.181  -2.651 -10.130  1.00  0.00    -0.273 OA
ATOM     46  N   UNL     1       8.237  -3.015 -12.173  1.00  0.00    -0.341 N 
ATOM     47  H   UNL     1       8.320  -2.872 -13.177  1.00  0.00     0.164 HD
BRANCH  46  48
ATOM     48  C   UNL     1       7.213  -3.953 -11.708  1.00  0.00     0.196 C 
BRANCH  48  49
ATOM     49  C   UNL     1       5.851  -3.259 -11.543  1.00  0.00     0.072 C 
BRANCH  49  50
ATOM     50  C   UNL     1       5.442  -3.116 -10.095  1.00  0.00    -0.045 A 
ATOM     51  C   UNL     1       4.602  -4.074  -9.508  1.00  0.00     0.007 A 
ATOM     52  C   UNL     1       5.872  -2.026  -9.328  1.00  0.00     0.007 A 
ATOM     53  C   UNL     1       4.207  -3.946  -8.176  1.00  0.00     0.046 A 
ATOM     54  C   UNL     1       5.476  -1.897  -7.995  1.00  0.00     0.046 A 
ATOM     55  C   UNL     1       4.647  -2.860  -7.430  1.00  0.00     0.115 A 
BRANCH  55  56
ATOM     56  O   UNL     1       4.237  -2.770  -6.133  1.00  0.00    -0.508 OA
ATOM     57  H   UNL     1       3.274  -2.884  -6.108  1.00  0.00     0.293 HD
ENDBRANCH  55  56
ENDBRANCH  49  50
ENDBRANCH  48  49
BRANCH  48  58
ATOM     58  C   UNL     1       7.087  -5.098 -12.723  1.00  0.00     0.326 C 
ATOM     59  O   UNL     1       7.365  -5.067 -13.910  1.00  0.00    -0.250 OA
BRANCH  58  60
ATOM     60  O   UNL     1       6.624  -6.253 -12.181  1.00  0.00    -0.480 OA
ATOM     61  H   UNL     1       7.303  -6.476 -11.508  1.00  0.00     0.296 HD
ENDBRANCH  58  60
ENDBRANCH  48  58
ENDBRANCH  46  48
ENDBRANCH  34  44
ENDBRANCH  32  34
ENDBRANCH  25  30
ENDBRANCH  23  25
ENDBRANCH   2  23
TORSDOF 28
ENDMDL
MODEL 2
REMARK VINA RESULT:    -5.639      2.340      4.842
REMARK INTER + INTRA:         -21.971
REMARK INTER:                 -14.583
REMARK INTRA:                  -7.388
REMARK UNBOUND:                -7.927
REMARK SMILES CCCCCCC[C@H](N)[C@H](O)C(=O)N[C@H](C)C(=O)N(C)[C@H](CC(C)C)C(=O)N[C@@H](Cc1ccc(O)cc1)C(=O)N[C@@H](Cc1ccc(O)cc1)C(=O)O
REMARK SMILES IDX 18 1 17 2 15 3 16 4 14 5 12 6 13 7 10 9 11 10 8 12 9 13 7 16
REMARK SMILES IDX 6 17 5 18 4 19 3 20 2 21 1 22 19 23 20 24 21 25 22 26 23 27
REMARK SMILES IDX 24 28 25 29 26 30 27 31 28 32 29 34 30 35 31 36 32 37 37 38
REMARK SMILES IDX 33 39 36 40 34 41 35 42 38 44 39 45 40 46 41 48 42 49 43 50
REMARK SMILES IDX 44 51 49 52 45 53 48 54 46 55 47 56 50 58 51 59 52 60
REMARK H PARENT 14 8 11 11 9 14 9 15 28 33 35 43 40 47 47 57 52 61
ROOT
ATOM      1  O   UNL     1       9.338  -3.982 -14.890  1.00  0.00    -0.272 OA
ATOM      2  C   UNL     1       9.571  -2.862 -15.369  1.00  0.00     0.245 C 
ENDROOT
BRANCH   2   3
ATOM      3  C   UNL     1       9.068  -2.548 -16.800  1.00  0.00     0.168 C 
ATOM      4  C   UNL     1       9.595  -3.574 -17.797  1.00  0.00     0.041 C 
BRANCH   3   5
ATOM      5  N   UNL     1       7.629  -2.369 -16.915  1.00  0.00    -0.342 N 
ATOM      6  C   UNL     1       7.057  -1.119 -17.029  1.00  0.00     0.251 C 
ATOM      7  O   UNL     1       7.701  -0.076 -17.000  1.00  0.00    -0.272 OA
ATOM      8  H   UNL     1       6.988  -3.159 -16.916  1.00  0.00     0.164 HD
BRANCH   6   9
ATOM      9  C   UNL     1       5.542  -1.179 -17.282  1.00  0.00     0.219 C 
BRANCH   9  10
ATOM     10  O   UNL     1       5.113  -2.456 -17.769  1.00  0.00    -0.382 OA
ATOM     11  H   UNL     1       5.689  -2.610 -18.551  1.00  0.00     0.211 HD
ENDBRANCH   9  10
BRANCH   9  12
ATOM     12  C   UNL     1       4.702  -0.748 -16.052  1.00  0.00     0.089 C 
BRANCH  12  13
ATOM     13  N   UNL     1       5.532  -0.916 -14.837  1.00  0.00    -0.325 NA
ATOM     14  H   UNL     1       5.000  -0.608 -14.021  1.00  0.00     0.119 HD
ATOM     15  H   UNL     1       6.330  -0.279 -14.891  1.00  0.00     0.119 HD
ENDBRANCH  12  13
BRANCH  12  16
ATOM     16  C   UNL     1       4.113   0.682 -16.100  1.00  0.00     0.022 C 
BRANCH  16  17
ATOM     17  C   UNL     1       3.463   1.265 -14.837  1.00  0.00     0.002 C 
BRANCH  17  18
ATOM     18  C   UNL     1       2.372   2.302 -15.094  1.00  0.00     0.000 C 
BRANCH  18  19
ATOM     19  C   UNL     1       0.997   1.913 -14.534  1.00  0.00    -0.000 C 
BRANCH  19  20
ATOM     20  C   UNL     1       0.147   1.031 -15.454  1.00  0.00    -0.000 C 
BRANCH  20  21
ATOM     21  C   UNL     1      -0.013   1.611 -16.861  1.00  0.00    -0.003 C 
ATOM     22  C   UNL     1      -1.427   2.119 -17.095  1.00  0.00     0.004 C 
ENDBRANCH  20  21
ENDBRANCH  19  20
ENDBRANCH  18  19
ENDBRANCH  17  18
ENDBRANCH  16  17
ENDBRANCH  12  16
ENDBRANCH   9  12
ENDBRANCH   6   9
ENDBRANCH   3   5
ENDBRANCH   2   3
BRANCH   2  23
ATOM     23  N   UNL     1      10.164  -1.879 -14.583  1.00  0.00    -0.332 N 
ATOM     24  C   UNL     1      11.573  -1.520 -14.634  1.00  0.00     0.147 C 
BRANCH  23  25
ATOM     25  C   UNL     1       9.330  -1.020 -13.699  1.00  0.00     0.174 C 
BRANCH  25  26
ATOM     26  C   UNL     1      10.087   0.225 -13.180  1.00  0.00     0.038 C 
BRANCH  26  27
ATOM     27  C   UNL     1       9.253   1.503 -12.942  1.00  0.00    -0.015 C 
ATOM     28  C   UNL     1       8.019   1.573 -13.842  1.00  0.00     0.007 C 
ATOM     29  C   UNL     1       8.863   1.711 -11.481  1.00  0.00     0.007 C 
ENDBRANCH  26  27
ENDBRANCH  25  26
BRANCH  25  30
ATOM     30  C   UNL     1       8.691  -1.871 -12.578  1.00  0.00     0.243 C 
ATOM     31  O   UNL     1       9.369  -2.568 -11.824  1.00  0.00    -0.273 OA
ATOM     32  N   UNL     1       7.325  -1.802 -12.485  1.00  0.00    -0.342 N 
ATOM     33  H   UNL     1       6.847  -1.096 -13.051  1.00  0.00     0.164 HD
BRANCH  32  34
ATOM     34  C   UNL     1       6.548  -2.561 -11.501  1.00  0.00     0.175 C 
BRANCH  34  35
ATOM     35  C   UNL     1       5.393  -1.722 -10.933  1.00  0.00     0.070 C 
BRANCH  35  36
ATOM     36  C   UNL     1       4.512  -2.505  -9.987  1.00  0.00    -0.045 A 
ATOM     37  C   UNL     1       5.063  -3.090  -8.837  1.00  0.00     0.007 A 
ATOM     38  C   UNL     1       3.147  -2.678 -10.252  1.00  0.00     0.007 A 
ATOM     39  C   UNL     1       4.260  -3.826  -7.964  1.00  0.00     0.046 A 
ATOM     40  C   UNL     1       2.343  -3.416  -9.380  1.00  0.00     0.046 A 
ATOM     41  C   UNL     1       2.908  -3.983  -8.242  1.00  0.00     0.115 A 
BRANCH  41  42
ATOM     42  O   UNL     1       2.159  -4.712  -7.366  1.00  0.00    -0.508 OA
ATOM     43  H   UNL     1       1.240  -4.717  -7.682  1.00  0.00     0.293 HD
ENDBRANCH  41  42
ENDBRANCH  35  36
ENDBRANCH  34  35
BRANCH  34  44
ATOM     44  C   UNL     1       6.043  -3.852 -12.183  1.00  0.00     0.243 C 
ATOM     45  O   UNL     1       6.255  -4.987 -11.763  1.00  0.00    -0.273 OA
ATOM     46  N   UNL     1       5.432  -3.628 -13.398  1.00  0.00    -0.341 N 
ATOM     47  H   UNL     1       5.384  -2.679 -13.760  1.00  0.00     0.164 HD
BRANCH  46  48
ATOM     48  C   UNL     1       4.933  -4.703 -14.260  1.00  0.00     0.196 C 
BRANCH  48  49
ATOM     49  C   UNL     1       3.704  -4.250 -15.065  1.00  0.00     0.072 C 
BRANCH  49  50
ATOM     50  C   UNL     1       2.609  -3.685 -14.188  1.00  0.00    -0.045 A 
ATOM     51  C   UNL     1       2.466  -2.296 -14.056  1.00  0.00     0.007 A 
ATOM     52  C   UNL     1       1.742  -4.530 -13.484  1.00  0.00     0.007 A 
ATOM     53  C   UNL     1       1.468  -1.764 -13.240  1.00  0.00     0.046 A 
ATOM     54  C   UNL     1       0.744  -3.997 -12.665  1.00  0.00     0.046 A 
ATOM     55  C   UNL     1       0.615  -2.617 -12.551  1.00  0.00     0.115 A 
BRANCH  55  56
ATOM     56  O   UNL     1      -0.346  -2.057 -11.762  1.00  0.00    -0.508 OA
ATOM     57  H   UNL     1       0.072  -1.752 -10.941  1.00  0.00     0.293 HD
ENDBRANCH  55  56
ENDBRANCH  49  50
ENDBRANCH  48  49
BRANCH  48  58
ATOM     58  C   UNL     1       6.050  -5.130 -15.222  1.00  0.00     0.326 C 
ATOM     59  O   UNL     1       6.143  -4.868 -16.410  1.00  0.00    -0.250 OA
BRANCH  58  60
ATOM     60  O   UNL     1       7.022  -5.868 -14.628  1.00  0.00    -0.480 OA
ATOM     61  H   UNL     1       7.171  -6.600 -15.266  1.00  0.00     0.296 HD
ENDBRANCH  58  60
ENDBRANCH  48  58
ENDBRANCH  46  48
ENDBRANCH  34  44
ENDBRANCH  32  34
ENDBRANCH  25  30
ENDBRANCH  23  25
ENDBRANCH   2  23
TORSDOF 28
ENDMDL
MODEL 3
REMARK VINA RESULT:    -5.605      2.444      6.322
REMARK INTER + INTRA:         -21.888
REMARK INTER:                 -14.595
REMARK INTRA:                  -7.293
REMARK UNBOUND:                -7.927
REMARK SMILES CCCCCCC[C@H](N)[C@H](O)C(=O)N[C@H](C)C(=O)N(C)[C@H](CC(C)C)C(=O)N[C@@H](Cc1ccc(O)cc1)C(=O)N[C@@H](Cc1ccc(O)cc1)C(=O)O
REMARK SMILES IDX 18 1 17 2 15 3 16 4 14 5 12 6 13 7 10 9 11 10 8 12 9 13 7 16
REMARK SMILES IDX 6 17 5 18 4 19 3 20 2 21 1 22 19 23 20 24 21 25 22 26 23 27
REMARK SMILES IDX 24 28 25 29 26 30 27 31 28 32 29 34 30 35 31 36 32 37 37 38
REMARK SMILES IDX 33 39 36 40 34 41 35 42 38 44 39 45 40 46 41 48 42 49 43 50
REMARK SMILES IDX 44 51 49 52 45 53 48 54 46 55 47 56 50 58 51 59 52 60
REMARK H PARENT 14 8 11 11 9 14 9 15 28 33 35 43 40 47 47 57 52 61
ROOT
ATOM      1  O   UNL     1      10.335  -0.779 -17.497  1.00  0.00    -0.272 OA
ATOM      2  C   UNL     1      10.309  -1.959 -17.119  1.00  0.00     0.245 C 
ENDROOT
BRANCH   2   3
ATOM      3  C   UNL     1      10.708  -2.278 -15.656  1.00  0.00     0.168 C 
ATOM      4  C   UNL     1      12.168  -1.922 -15.403  1.00  0.00     0.041 C 
BRANCH   3   5
ATOM      5  N   UNL     1       9.828  -1.710 -14.646  1.00  0.00    -0.342 N 
ATOM      6  C   UNL     1       8.973  -2.495 -13.901  1.00  0.00     0.251 C 
ATOM      7  O   UNL     1       8.857  -3.706 -14.057  1.00  0.00    -0.272 OA
ATOM      8  H   UNL     1       9.810  -0.712 -14.450  1.00  0.00     0.164 HD
BRANCH   6   9
ATOM      9  C   UNL     1       8.248  -1.704 -12.800  1.00  0.00     0.219 C 
BRANCH   9  10
ATOM     10  O   UNL     1       7.280  -0.788 -13.325  1.00  0.00    -0.382 OA
ATOM     11  H   UNL     1       7.794   0.039 -13.461  1.00  0.00     0.211 HD
ENDBRANCH   9  10
BRANCH   9  12
ATOM     12  C   UNL     1       7.615  -2.613 -11.714  1.00  0.00     0.089 C 
BRANCH  12  13
ATOM     13  N   UNL     1       8.595  -2.784 -10.618  1.00  0.00    -0.325 NA
ATOM     14  H   UNL     1       8.810  -1.871 -10.214  1.00  0.00     0.119 HD
ATOM     15  H   UNL     1       9.478  -3.116 -11.012  1.00  0.00     0.119 HD
ENDBRANCH  12  13
BRANCH  12  16
ATOM     16  C   UNL     1       6.256  -2.141 -11.144  1.00  0.00     0.022 C 
BRANCH  16  17
ATOM     17  C   UNL     1       5.136  -3.169 -10.932  1.00  0.00     0.002 C 
BRANCH  17  18
ATOM     18  C   UNL     1       4.790  -3.455  -9.473  1.00  0.00     0.000 C 
BRANCH  18  19
ATOM     19  C   UNL     1       3.303  -3.743  -9.229  1.00  0.00    -0.000 C 
BRANCH  19  20
ATOM     20  C   UNL     1       2.370  -3.372 -10.385  1.00  0.00    -0.000 C 
BRANCH  20  21
ATOM     21  C   UNL     1       1.480  -2.165 -10.073  1.00  0.00    -0.003 C 
ATOM     22  C   UNL     1       2.188  -0.857 -10.391  1.00  0.00     0.004 C 
ENDBRANCH  20  21
ENDBRANCH  19  20
ENDBRANCH  18  19
ENDBRANCH  17  18
ENDBRANCH  16  17
ENDBRANCH  12  16
ENDBRANCH   9  12
ENDBRANCH   6   9
ENDBRANCH   3   5
ENDBRANCH   2   3
BRANCH   2  23
ATOM     23  N   UNL     1       9.813  -2.949 -17.961  1.00  0.00    -0.332 N 
ATOM     24  C   UNL     1       9.895  -2.914 -19.414  1.00  0.00     0.147 C 
BRANCH  23  25
ATOM     25  C   UNL     1       9.260  -4.210 -17.395  1.00  0.00     0.174 C 
BRANCH  25  26
ATOM     26  C   UNL     1       9.810  -5.475 -18.093  1.00  0.00     0.038 C 
BRANCH  26  27
ATOM     27  C   UNL     1      10.574  -6.486 -17.210  1.00  0.00    -0.015 C 
ATOM     28  C   UNL     1      11.249  -7.586 -18.029  1.00  0.00     0.007 C 
ATOM     29  C   UNL     1      11.577  -5.830 -16.264  1.00  0.00     0.007 C 
ENDBRANCH  26  27
ENDBRANCH  25  26
BRANCH  25  30
ATOM     30  C   UNL     1       7.716  -4.143 -17.355  1.00  0.00     0.243 C 
ATOM     31  O   UNL     1       7.021  -4.653 -18.231  1.00  0.00    -0.273 OA
ATOM     32  N   UNL     1       7.179  -3.474 -16.285  1.00  0.00    -0.342 N 
ATOM     33  H   UNL     1       7.813  -3.202 -15.529  1.00  0.00     0.164 HD
BRANCH  32  34
ATOM     34  C   UNL     1       5.737  -3.288 -16.098  1.00  0.00     0.175 C 
BRANCH  34  35
ATOM     35  C   UNL     1       5.338  -3.462 -14.624  1.00  0.00     0.070 C 
BRANCH  35  36
ATOM     36  C   UNL     1       3.842  -3.410 -14.413  1.00  0.00    -0.045 A 
ATOM     37  C   UNL     1       3.059  -4.548 -14.663  1.00  0.00     0.007 A 
ATOM     38  C   UNL     1       3.215  -2.230 -13.992  1.00  0.00     0.007 A 
ATOM     39  C   UNL     1       1.676  -4.506 -14.484  1.00  0.00     0.046 A 
ATOM     40  C   UNL     1       1.830  -2.188 -13.815  1.00  0.00     0.046 A 
ATOM     41  C   UNL     1       1.073  -3.328 -14.062  1.00  0.00     0.115 A 
BRANCH  41  42
ATOM     42  O   UNL     1      -0.281  -3.328 -13.903  1.00  0.00    -0.508 OA
ATOM     43  H   UNL     1      -0.691  -3.427 -14.778  1.00  0.00     0.293 HD
ENDBRANCH  41  42
ENDBRANCH  35  36
ENDBRANCH  34  35
BRANCH  34  44
ATOM     44  C   UNL     1       5.361  -1.889 -16.637  1.00  0.00     0.243 C 
ATOM     45  O   UNL     1       4.777  -1.689 -17.698  1.00  0.00    -0.273 OA
ATOM     46  N   UNL     1       5.860  -0.855 -15.874  1.00  0.00    -0.341 N 
ATOM     47  H   UNL     1       6.439  -1.071 -15.066  1.00  0.00     0.164 HD
BRANCH  46  48
ATOM     48  C   UNL     1       5.692   0.558 -16.223  1.00  0.00     0.196 C 
BRANCH  48  49
ATOM     49  C   UNL     1       4.912   1.314 -15.134  1.00  0.00     0.072 C 
BRANCH  49  50
ATOM     50  C   UNL     1       3.429   1.385 -15.423  1.00  0.00    -0.045 A 
ATOM     51  C   UNL     1       2.511   1.409 -14.363  1.00  0.00     0.007 A 
ATOM     52  C   UNL     1       2.952   1.405 -16.739  1.00  0.00     0.007 A 
ATOM     53  C   UNL     1       1.141   1.461 -14.617  1.00  0.00     0.046 A 
ATOM     54  C   UNL     1       1.579   1.456 -16.994  1.00  0.00     0.046 A 
ATOM     55  C   UNL     1       0.685   1.484 -15.930  1.00  0.00     0.115 A 
BRANCH  55  56
ATOM     56  O   UNL     1      -0.662   1.533 -16.136  1.00  0.00    -0.508 OA
ATOM     57  H   UNL     1      -0.843   2.193 -16.824  1.00  0.00     0.293 HD
ENDBRANCH  55  56
ENDBRANCH  49  50
ENDBRANCH  48  49
BRANCH  48  58
ATOM     58  C   UNL     1       7.076   1.196 -16.402  1.00  0.00     0.326 C 
ATOM     59  O   UNL     1       7.333   2.267 -16.928  1.00  0.00    -0.250 OA
BRANCH  58  60
ATOM     60  O   UNL     1       8.087   0.451 -15.889  1.00  0.00    -0.480 OA
ATOM     61  H   UNL     1       7.833  -0.467 -16.127  1.00  0.00     0.296 HD
ENDBRANCH  58  60
ENDBRANCH  48  58
ENDBRANCH  46  48
ENDBRANCH  34  44
ENDBRANCH  32  34
ENDBRANCH  25  30
ENDBRANCH  23  25
ENDBRANCH   2  23
TORSDOF 28
ENDMDL
MODEL 4
REMARK VINA RESULT:    -5.587      1.947      4.541
REMARK INTER + INTRA:         -21.841
REMARK INTER:                 -15.015
REMARK INTRA:                  -6.827
REMARK UNBOUND:                -7.927
REMARK SMILES CCCCCCC[C@H](N)[C@H](O)C(=O)N[C@H](C)C(=O)N(C)[C@H](CC(C)C)C(=O)N[C@@H](Cc1ccc(O)cc1)C(=O)N[C@@H](Cc1ccc(O)cc1)C(=O)O
REMARK SMILES IDX 18 1 17 2 15 3 16 4 14 5 12 6 13 7 10 9 11 10 8 12 9 13 7 16
REMARK SMILES IDX 6 17 5 18 4 19 3 20 2 21 1 22 19 23 20 24 21 25 22 26 23 27
REMARK SMILES IDX 24 28 25 29 26 30 27 31 28 32 29 34 30 35 31 36 32 37 37 38
REMARK SMILES IDX 33 39 36 40 34 41 35 42 38 44 39 45 40 46 41 48 42 49 43 50
REMARK SMILES IDX 44 51 49 52 45 53 48 54 46 55 47 56 50 58 51 59 52 60
REMARK H PARENT 14 8 11 11 9 14 9 15 28 33 35 43 40 47 47 57 52 61
ROOT
ATOM      1  O   UNL     1      10.294  -1.787 -19.073  1.00  0.00    -0.272 OA
ATOM      2  C   UNL     1      10.194  -2.729 -18.273  1.00  0.00     0.245 C 
ENDROOT
BRANCH   2   3
ATOM      3  C   UNL     1       9.255  -3.908 -18.630  1.00  0.00     0.168 C 
ATOM      4  C   UNL     1       9.980  -4.934 -19.495  1.00  0.00     0.041 C 
BRANCH   3   5
ATOM      5  N   UNL     1       8.593  -4.528 -17.494  1.00  0.00    -0.342 N 
ATOM      6  C   UNL     1       7.244  -4.363 -17.258  1.00  0.00     0.251 C 
ATOM      7  O   UNL     1       6.518  -3.659 -17.951  1.00  0.00    -0.272 OA
ATOM      8  H   UNL     1       9.099  -5.107 -16.828  1.00  0.00     0.164 HD
BRANCH   6   9
ATOM      9  C   UNL     1       6.735  -5.222 -16.089  1.00  0.00     0.219 C 
BRANCH   9  10
ATOM     10  O   UNL     1       7.799  -5.757 -15.292  1.00  0.00    -0.382 OA
ATOM     11  H   UNL     1       8.606  -5.547 -15.813  1.00  0.00     0.211 HD
ENDBRANCH   9  10
BRANCH   9  12
ATOM     12  C   UNL     1       5.698  -4.488 -15.201  1.00  0.00     0.089 C 
BRANCH  12  13
ATOM     13  N   UNL     1       4.377  -4.560 -15.868  1.00  0.00    -0.325 NA
ATOM     14  H   UNL     1       4.409  -4.020 -16.735  1.00  0.00     0.119 HD
ATOM     15  H   UNL     1       3.685  -4.085 -15.284  1.00  0.00     0.119 HD
ENDBRANCH  12  13
BRANCH  12  16
ATOM     16  C   UNL     1       5.583  -4.985 -13.740  1.00  0.00     0.022 C 
BRANCH  16  17
ATOM     17  C   UNL     1       6.204  -4.147 -12.614  1.00  0.00     0.002 C 
BRANCH  17  18
ATOM     18  C   UNL     1       5.200  -3.485 -11.673  1.00  0.00     0.000 C 
BRANCH  18  19
ATOM     19  C   UNL     1       5.755  -3.192 -10.273  1.00  0.00    -0.000 C 
BRANCH  19  20
ATOM     20  C   UNL     1       4.751  -2.584  -9.290  1.00  0.00    -0.000 C 
BRANCH  20  21
ATOM     21  C   UNL     1       4.437  -3.504  -8.108  1.00  0.00    -0.003 C 
ATOM     22  C   UNL     1       3.193  -4.338  -8.370  1.00  0.00     0.004 C 
ENDBRANCH  20  21
ENDBRANCH  19  20
ENDBRANCH  18  19
ENDBRANCH  17  18
ENDBRANCH  16  17
ENDBRANCH  12  16
ENDBRANCH   9  12
ENDBRANCH   6   9
ENDBRANCH   3   5
ENDBRANCH   2   3
BRANCH   2  23
ATOM     23  N   UNL     1      11.003  -2.771 -17.143  1.00  0.00    -0.332 N 
ATOM     24  C   UNL     1      12.138  -3.666 -16.973  1.00  0.00     0.147 C 
BRANCH  23  25
ATOM     25  C   UNL     1      10.823  -1.774 -16.052  1.00  0.00     0.174 C 
BRANCH  25  26
ATOM     26  C   UNL     1      12.116  -1.531 -15.238  1.00  0.00     0.038 C 
BRANCH  26  27
ATOM     27  C   UNL     1      12.283  -0.139 -14.588  1.00  0.00    -0.015 C 
ATOM     28  C   UNL     1      11.551   0.958 -15.360  1.00  0.00     0.007 C 
ATOM     29  C   UNL     1      11.895  -0.108 -13.112  1.00  0.00     0.007 C 
ENDBRANCH  26  27
ENDBRANCH  25  26
BRANCH  25  30
ATOM     30  C   UNL     1       9.602  -2.152 -15.182  1.00  0.00     0.243 C 
ATOM     31  O   UNL     1       9.408  -3.305 -14.801  1.00  0.00    -0.273 OA
ATOM     32  N   UNL     1       8.753  -1.121 -14.871  1.00  0.00    -0.342 N 
ATOM     33  H   UNL     1       9.056  -0.172 -15.103  1.00  0.00     0.164 HD
BRANCH  32  34
ATOM     34  C   UNL     1       7.533  -1.299 -14.079  1.00  0.00     0.175 C 
BRANCH  34  35
ATOM     35  C   UNL     1       7.469  -0.294 -12.919  1.00  0.00     0.070 C 
BRANCH  35  36
ATOM     36  C   UNL     1       8.475  -0.593 -11.830  1.00  0.00    -0.045 A 
ATOM     37  C   UNL     1       8.875  -1.916 -11.588  1.00  0.00     0.007 A 
ATOM     38  C   UNL     1       9.002   0.434 -11.037  1.00  0.00     0.007 A 
ATOM     39  C   UNL     1       9.792  -2.203 -10.577  1.00  0.00     0.046 A 
ATOM     40  C   UNL     1       9.920   0.147 -10.023  1.00  0.00     0.046 A 
ATOM     41  C   UNL     1      10.308  -1.170  -9.804  1.00  0.00     0.115 A 
BRANCH  41  42
ATOM     42  O   UNL     1      11.199  -1.494  -8.824  1.00  0.00    -0.508 OA
ATOM     43  H   UNL     1      11.141  -0.821  -8.125  1.00  0.00     0.293 HD
ENDBRANCH  41  42
ENDBRANCH  35  36
ENDBRANCH  34  35
BRANCH  34  44
ATOM     44  C   UNL     1       6.322  -1.162 -15.029  1.00  0.00     0.243 C 
ATOM     45  O   UNL     1       6.402  -1.116 -16.254  1.00  0.00    -0.273 OA
ATOM     46  N   UNL     1       5.128  -0.960 -14.370  1.00  0.00    -0.341 N 
ATOM     47  H   UNL     1       5.129  -0.889 -13.356  1.00  0.00     0.164 HD
BRANCH  46  48
ATOM     48  C   UNL     1       3.855  -0.736 -15.060  1.00  0.00     0.196 C 
BRANCH  48  49
ATOM     49  C   UNL     1       2.727  -0.416 -14.064  1.00  0.00     0.072 C 
BRANCH  49  50
ATOM     50  C   UNL     1       2.265  -1.635 -13.297  1.00  0.00    -0.045 A 
ATOM     51  C   UNL     1       1.961  -1.528 -11.932  1.00  0.00     0.007 A 
ATOM     52  C   UNL     1       2.155  -2.882 -13.925  1.00  0.00     0.007 A 
ATOM     53  C   UNL     1       1.546  -2.648 -11.212  1.00  0.00     0.046 A 
ATOM     54  C   UNL     1       1.741  -4.004 -13.203  1.00  0.00     0.046 A 
ATOM     55  C   UNL     1       1.439  -3.876 -11.852  1.00  0.00     0.115 A 
BRANCH  55  56
ATOM     56  O   UNL     1       1.032  -4.947 -11.111  1.00  0.00    -0.508 OA
ATOM     57  H   UNL     1       0.233  -5.315 -11.519  1.00  0.00     0.293 HD
ENDBRANCH  55  56
ENDBRANCH  49  50
ENDBRANCH  48  49
BRANCH  48  58
ATOM     58  C   UNL     1       4.019   0.431 -16.044  1.00  0.00     0.326 C 
ATOM     59  O   UNL     1       4.231   1.602 -15.773  1.00  0.00    -0.250 OA
BRANCH  58  60
ATOM     60  O   UNL     1       3.920   0.059 -17.345  1.00  0.00    -0.480 OA
ATOM     61  H   UNL     1       4.849   0.096 -17.661  1.00  0.00     0.296 HD
ENDBRANCH  58  60
ENDBRANCH  48  58
ENDBRANCH  46  48
ENDBRANCH  34  44
ENDBRANCH  32  34
ENDBRANCH  25  30
ENDBRANCH  23  25
ENDBRANCH   2  23
TORSDOF 28
ENDMDL
MODEL 5
REMARK VINA RESULT:    -5.557      2.580      7.124
REMARK INTER + INTRA:         -21.767
REMARK INTER:                 -15.596
REMARK INTRA:                  -6.170
REMARK UNBOUND:                -7.927
REMARK SMILES CCCCCCC[C@H](N)[C@H](O)C(=O)N[C@H](C)C(=O)N(C)[C@H](CC(C)C)C(=O)N[C@@H](Cc1ccc(O)cc1)C(=O)N[C@@H](Cc1ccc(O)cc1)C(=O)O
REMARK SMILES IDX 18 1 17 2 15 3 16 4 14 5 12 6 13 7 10 9 11 10 8 12 9 13 7 16
REMARK SMILES IDX 6 17 5 18 4 19 3 20 2 21 1 22 19 23 20 24 21 25 22 26 23 27
REMARK SMILES IDX 24 28 25 29 26 30 27 31 28 32 29 34 30 35 31 36 32 37 37 38
REMARK SMILES IDX 33 39 36 40 34 41 35 42 38 44 39 45 40 46 41 48 42 49 43 50
REMARK SMILES IDX 44 51 49 52 45 53 48 54 46 55 47 56 50 58 51 59 52 60
REMARK H PARENT 14 8 11 11 9 14 9 15 28 33 35 43 40 47 47 57 52 61
ROOT
ATOM      1  O   UNL     1       9.962  -0.733 -17.131  1.00  0.00    -0.272 OA
ATOM      2  C   UNL     1      10.031  -1.918 -16.773  1.00  0.00     0.245 C 
ENDROOT
BRANCH   2   3
ATOM      3  C   UNL     1      10.314  -2.226 -15.281  1.00  0.00     0.168 C 
ATOM      4  C   UNL     1      11.778  -1.968 -14.943  1.00  0.00     0.041 C 
BRANCH   3   5
ATOM      5  N   UNL     1       9.417  -1.571 -14.341  1.00  0.00    -0.342 N 
ATOM      6  C   UNL     1       8.556  -2.287 -13.536  1.00  0.00     0.251 C 
ATOM      7  O   UNL     1       8.450  -3.508 -13.578  1.00  0.00    -0.272 OA
ATOM      8  H   UNL     1       9.390  -0.559 -14.242  1.00  0.00     0.164 HD
BRANCH   6   9
ATOM      9  C   UNL     1       7.811  -1.400 -12.526  1.00  0.00     0.219 C 
BRANCH   9  10
ATOM     10  O   UNL     1       6.611  -0.835 -13.066  1.00  0.00    -0.382 OA
ATOM     11  H   UNL     1       6.541  -1.248 -13.955  1.00  0.00     0.211 HD
ENDBRANCH   9  10
BRANCH   9  12
ATOM     12  C   UNL     1       7.525  -2.118 -11.181  1.00  0.00     0.089 C 
BRANCH  12  13
ATOM     13  N   UNL     1       6.398  -3.057 -11.383  1.00  0.00    -0.325 NA
ATOM     14  H   UNL     1       5.950  -2.856 -12.279  1.00  0.00     0.119 HD
ATOM     15  H   UNL     1       5.681  -2.869 -10.678  1.00  0.00     0.119 HD
ENDBRANCH  12  13
BRANCH  12  16
ATOM     16  C   UNL     1       8.723  -2.857 -10.538  1.00  0.00     0.022 C 
BRANCH  16  17
ATOM     17  C   UNL     1       9.478  -2.189  -9.380  1.00  0.00     0.002 C 
BRANCH  17  18
ATOM     18  C   UNL     1      10.968  -1.965  -9.626  1.00  0.00     0.000 C 
BRANCH  18  19
ATOM     19  C   UNL     1      11.313  -1.596 -11.075  1.00  0.00    -0.000 C 
BRANCH  19  20
ATOM     20  C   UNL     1      11.004  -0.149 -11.469  1.00  0.00    -0.000 C 
BRANCH  20  21
ATOM     21  C   UNL     1      11.186   0.839 -10.314  1.00  0.00    -0.003 C 
ATOM     22  C   UNL     1      10.010   1.798 -10.214  1.00  0.00     0.004 C 
ENDBRANCH  20  21
ENDBRANCH  19  20
ENDBRANCH  18  19
ENDBRANCH  17  18
ENDBRANCH  16  17
ENDBRANCH  12  16
ENDBRANCH   9  12
ENDBRANCH   6   9
ENDBRANCH   3   5
ENDBRANCH   2   3
BRANCH   2  23
ATOM     23  N   UNL     1       9.736  -2.935 -17.674  1.00  0.00    -0.332 N 
ATOM     24  C   UNL     1      10.019  -2.882 -19.101  1.00  0.00     0.147 C 
BRANCH  23  25
ATOM     25  C   UNL     1       9.208  -4.240 -17.188  1.00  0.00     0.174 C 
BRANCH  25  26
ATOM     26  C   UNL     1       9.832  -5.452 -17.919  1.00  0.00     0.038 C 
BRANCH  26  27
ATOM     27  C   UNL     1      11.217  -5.928 -17.429  1.00  0.00    -0.015 C 
ATOM     28  C   UNL     1      11.414  -5.706 -15.929  1.00  0.00     0.007 C 
ATOM     29  C   UNL     1      11.530  -7.375 -17.803  1.00  0.00     0.007 C 
ENDBRANCH  26  27
ENDBRANCH  25  26
BRANCH  25  30
ATOM     30  C   UNL     1       7.662  -4.229 -17.210  1.00  0.00     0.243 C 
ATOM     31  O   UNL     1       7.022  -4.720 -18.138  1.00  0.00    -0.273 OA
ATOM     32  N   UNL     1       7.058  -3.633 -16.133  1.00  0.00    -0.342 N 
ATOM     33  H   UNL     1       7.651  -3.376 -15.339  1.00  0.00     0.164 HD
BRANCH  32  34
ATOM     34  C   UNL     1       5.605  -3.507 -15.997  1.00  0.00     0.175 C 
BRANCH  34  35
ATOM     35  C   UNL     1       5.168  -3.625 -14.529  1.00  0.00     0.070 C 
BRANCH  35  36
ATOM     36  C   UNL     1       3.666  -3.577 -14.360  1.00  0.00    -0.045 A 
ATOM     37  C   UNL     1       3.065  -2.469 -13.744  1.00  0.00     0.007 A 
ATOM     38  C   UNL     1       2.860  -4.639 -14.790  1.00  0.00     0.007 A 
ATOM     39  C   UNL     1       1.681  -2.422 -13.571  1.00  0.00     0.046 A 
ATOM     40  C   UNL     1       1.474  -4.593 -14.616  1.00  0.00     0.046 A 
ATOM     41  C   UNL     1       0.897  -3.482 -14.008  1.00  0.00     0.115 A 
BRANCH  41  42
ATOM     42  O   UNL     1      -0.450  -3.398 -13.818  1.00  0.00    -0.508 OA
ATOM     43  H   UNL     1      -0.811  -4.300 -13.788  1.00  0.00     0.293 HD
ENDBRANCH  41  42
ENDBRANCH  35  36
ENDBRANCH  34  35
BRANCH  34  44
ATOM     44  C   UNL     1       5.181  -2.157 -16.618  1.00  0.00     0.243 C 
ATOM     45  O   UNL     1       4.797  -2.016 -17.776  1.00  0.00    -0.273 OA
ATOM     46  N   UNL     1       5.396  -1.078 -15.787  1.00  0.00    -0.341 N 
ATOM     47  H   UNL     1       5.826  -1.233 -14.878  1.00  0.00     0.164 HD
BRANCH  46  48
ATOM     48  C   UNL     1       5.136   0.308 -16.181  1.00  0.00     0.196 C 
BRANCH  48  49
ATOM     49  C   UNL     1       4.228   1.018 -15.163  1.00  0.00     0.072 C 
BRANCH  49  50
ATOM     50  C   UNL     1       2.799   1.140 -15.644  1.00  0.00    -0.045 A 
ATOM     51  C   UNL     1       1.740   0.962 -14.741  1.00  0.00     0.007 A 
ATOM     52  C   UNL     1       2.512   1.410 -16.988  1.00  0.00     0.007 A 
ATOM     53  C   UNL     1       0.418   1.060 -15.176  1.00  0.00     0.046 A 
ATOM     54  C   UNL     1       1.188   1.506 -17.423  1.00  0.00     0.046 A 
ATOM     55  C   UNL     1       0.152   1.331 -16.512  1.00  0.00     0.115 A 
BRANCH  55  56
ATOM     56  O   UNL     1      -1.153   1.416 -16.897  1.00  0.00    -0.508 OA
ATOM     57  H   UNL     1      -1.357   0.652 -17.459  1.00  0.00     0.293 HD
ENDBRANCH  55  56
ENDBRANCH  49  50
ENDBRANCH  48  49
BRANCH  48  58
ATOM     58  C   UNL     1       6.472   1.056 -16.288  1.00  0.00     0.326 C 
ATOM     59  O   UNL     1       6.663   2.162 -16.766  1.00  0.00    -0.250 OA
BRANCH  58  60
ATOM     60  O   UNL     1       7.520   0.370 -15.767  1.00  0.00    -0.480 OA
ATOM     61  H   UNL     1       7.321   0.351 -14.805  1.00  0.00     0.296 HD
ENDBRANCH  58  60
ENDBRANCH  48  58
ENDBRANCH  46  48
ENDBRANCH  34  44
ENDBRANCH  32  34
ENDBRANCH  25  30
ENDBRANCH  23  25
ENDBRANCH   2  23
TORSDOF 28
ENDMDL
MODEL 6
REMARK VINA RESULT:    -5.528      1.464      2.026
REMARK INTER + INTRA:         -21.695
REMARK INTER:                 -14.302
REMARK INTRA:                  -7.392
REMARK UNBOUND:                -7.927
REMARK SMILES CCCCCCC[C@H](N)[C@H](O)C(=O)N[C@H](C)C(=O)N(C)[C@H](CC(C)C)C(=O)N[C@@H](Cc1ccc(O)cc1)C(=O)N[C@@H](Cc1ccc(O)cc1)C(=O)O
REMARK SMILES IDX 18 1 17 2 15 3 16 4 14 5 12 6 13 7 10 9 11 10 8 12 9 13 7 16
REMARK SMILES IDX 6 17 5 18 4 19 3 20 2 21 1 22 19 23 20 24 21 25 22 26 23 27
REMARK SMILES IDX 24 28 25 29 26 30 27 31 28 32 29 34 30 35 31 36 32 37 37 38
REMARK SMILES IDX 33 39 36 40 34 41 35 42 38 44 39 45 40 46 41 48 42 49 43 50
REMARK SMILES IDX 44 51 49 52 45 53 48 54 46 55 47 56 50 58 51 59 52 60
REMARK H PARENT 14 8 11 11 9 14 9 15 28 33 35 43 40 47 47 57 52 61
ROOT
ATOM      1  O   UNL     1      10.448  -5.554 -15.476  1.00  0.00    -0.272 OA
ATOM      2  C   UNL     1      10.339  -4.579 -16.235  1.00  0.00     0.245 C 
ENDROOT
BRANCH   2   3
ATOM      3  C   UNL     1       9.104  -4.499 -17.166  1.00  0.00     0.168 C 
ATOM      4  C   UNL     1       9.063  -5.690 -18.117  1.00  0.00     0.041 C 
BRANCH   3   5
ATOM      5  N   UNL     1       7.835  -4.308 -16.481  1.00  0.00    -0.342 N 
ATOM      6  C   UNL     1       6.873  -3.441 -16.957  1.00  0.00     0.251 C 
ATOM      7  O   UNL     1       7.026  -2.744 -17.954  1.00  0.00    -0.272 OA
ATOM      8  H   UNL     1       7.608  -4.807 -15.624  1.00  0.00     0.164 HD
BRANCH   6   9
ATOM      9  C   UNL     1       5.563  -3.509 -16.156  1.00  0.00     0.219 C 
BRANCH   9  10
ATOM     10  O   UNL     1       5.187  -4.850 -15.823  1.00  0.00    -0.382 OA
ATOM     11  H   UNL     1       4.707  -5.161 -16.621  1.00  0.00     0.211 HD
ENDBRANCH   9  10
BRANCH   9  12
ATOM     12  C   UNL     1       5.576  -2.610 -14.891  1.00  0.00     0.089 C 
BRANCH  12  13
ATOM     13  N   UNL     1       6.921  -2.006 -14.761  1.00  0.00    -0.325 NA
ATOM     14  H   UNL     1       7.553  -2.442 -15.436  1.00  0.00     0.119 HD
ATOM     15  H   UNL     1       7.304  -2.245 -13.844  1.00  0.00     0.119 HD
ENDBRANCH  12  13
BRANCH  12  16
ATOM     16  C   UNL     1       4.490  -1.509 -14.831  1.00  0.00     0.022 C 
BRANCH  16  17
ATOM     17  C   UNL     1       4.235  -0.783 -13.503  1.00  0.00     0.002 C 
BRANCH  17  18
ATOM     18  C   UNL     1       2.769  -0.702 -13.084  1.00  0.00     0.000 C 
BRANCH  18  19
ATOM     19  C   UNL     1       2.540  -0.870 -11.576  1.00  0.00    -0.000 C 
BRANCH  19  20
ATOM     20  C   UNL     1       1.952  -2.219 -11.154  1.00  0.00    -0.000 C 
BRANCH  20  21
ATOM     21  C   UNL     1       1.574  -2.271  -9.671  1.00  0.00    -0.003 C 
ATOM     22  C   UNL     1       1.817  -0.933  -8.990  1.00  0.00     0.004 C 
ENDBRANCH  20  21
ENDBRANCH  19  20
ENDBRANCH  18  19
ENDBRANCH  17  18
ENDBRANCH  16  17
ENDBRANCH  12  16
ENDBRANCH   9  12
ENDBRANCH   6   9
ENDBRANCH   3   5
ENDBRANCH   2   3
BRANCH   2  23
ATOM     23  N   UNL     1      11.249  -3.530 -16.154  1.00  0.00    -0.332 N 
ATOM     24  C   UNL     1      12.646  -3.616 -16.551  1.00  0.00     0.147 C 
BRANCH  23  25
ATOM     25  C   UNL     1      10.792  -2.170 -15.758  1.00  0.00     0.174 C 
BRANCH  25  26
ATOM     26  C   UNL     1      11.298  -1.063 -16.714  1.00  0.00     0.038 C 
BRANCH  26  27
ATOM     27  C   UNL     1      10.262  -0.443 -17.678  1.00  0.00    -0.015 C 
ATOM     28  C   UNL     1      10.031  -1.304 -18.920  1.00  0.00     0.007 C 
ATOM     29  C   UNL     1       8.934  -0.103 -17.006  1.00  0.00     0.007 C 
ENDBRANCH  26  27
ENDBRANCH  25  26
BRANCH  25  30
ATOM     30  C   UNL     1      11.127  -1.907 -14.272  1.00  0.00     0.243 C 
ATOM     31  O   UNL     1      12.275  -1.991 -13.839  1.00  0.00    -0.273 OA
ATOM     32  N   UNL     1      10.061  -1.583 -13.473  1.00  0.00    -0.342 N 
ATOM     33  H   UNL     1       9.165  -1.395 -13.930  1.00  0.00     0.164 HD
BRANCH  32  34
ATOM     34  C   UNL     1      10.185  -1.328 -12.035  1.00  0.00     0.175 C 
BRANCH  34  35
ATOM     35  C   UNL     1       9.863   0.135 -11.697  1.00  0.00     0.070 C 
BRANCH  35  36
ATOM     36  C   UNL     1      10.279   1.093 -12.790  1.00  0.00    -0.045 A 
ATOM     37  C   UNL     1      11.634   1.420 -12.959  1.00  0.00     0.007 A 
ATOM     38  C   UNL     1       9.326   1.683 -13.630  1.00  0.00     0.007 A 
ATOM     39  C   UNL     1      12.026   2.313 -13.956  1.00  0.00     0.046 A 
ATOM     40  C   UNL     1       9.718   2.579 -14.628  1.00  0.00     0.046 A 
ATOM     41  C   UNL     1      11.066   2.885 -14.782  1.00  0.00     0.115 A 
BRANCH  41  42
ATOM     42  O   UNL     1      11.491   3.755 -15.742  1.00  0.00    -0.508 OA
ATOM     43  H   UNL     1      11.259   3.388 -16.611  1.00  0.00     0.293 HD
ENDBRANCH  41  42
ENDBRANCH  35  36
ENDBRANCH  34  35
BRANCH  34  44
ATOM     44  C   UNL     1       9.252  -2.311 -11.292  1.00  0.00     0.243 C 
ATOM     45  O   UNL     1       9.423  -2.691 -10.137  1.00  0.00    -0.273 OA
ATOM     46  N   UNL     1       8.261  -2.839 -12.093  1.00  0.00    -0.341 N 
ATOM     47  H   UNL     1       8.232  -2.581 -13.076  1.00  0.00     0.164 HD
BRANCH  46  48
ATOM     48  C   UNL     1       7.299  -3.841 -11.630  1.00  0.00     0.196 C 
BRANCH  48  49
ATOM     49  C   UNL     1       5.890  -3.243 -11.489  1.00  0.00     0.072 C 
BRANCH  49  50
ATOM     50  C   UNL     1       5.465  -3.086 -10.047  1.00  0.00    -0.045 A 
ATOM     51  C   UNL     1       4.761  -4.119  -9.409  1.00  0.00     0.007 A 
ATOM     52  C   UNL     1       5.745  -1.912  -9.336  1.00  0.00     0.007 A 
ATOM     53  C   UNL     1       4.353  -3.980  -8.083  1.00  0.00     0.046 A 
ATOM     54  C   UNL     1       5.335  -1.774  -8.008  1.00  0.00     0.046 A 
ATOM     55  C   UNL     1       4.643  -2.810  -7.392  1.00  0.00     0.115 A 
BRANCH  55  56
ATOM     56  O   UNL     1       4.224  -2.714  -6.098  1.00  0.00    -0.508 OA
ATOM     57  H   UNL     1       4.849  -2.150  -5.616  1.00  0.00     0.293 HD
ENDBRANCH  55  56
ENDBRANCH  49  50
ENDBRANCH  48  49
BRANCH  48  58
ATOM     58  C   UNL     1       7.268  -5.003 -12.632  1.00  0.00     0.326 C 
ATOM     59  O   UNL     1       6.618  -6.033 -12.550  1.00  0.00    -0.250 OA
BRANCH  58  60
ATOM     60  O   UNL     1       8.058  -4.804 -13.717  1.00  0.00    -0.480 OA
ATOM     61  H   UNL     1       7.427  -4.851 -14.468  1.00  0.00     0.296 HD
ENDBRANCH  58  60
ENDBRANCH  48  58
ENDBRANCH  46  48
ENDBRANCH  34  44
ENDBRANCH  32  34
ENDBRANCH  25  30
ENDBRANCH  23  25
ENDBRANCH   2  23
TORSDOF 28
ENDMDL
MODEL 7
REMARK VINA RESULT:    -5.525      1.336      2.205
REMARK INTER + INTRA:         -21.688
REMARK INTER:                 -15.640
REMARK INTRA:                  -6.049
REMARK UNBOUND:                -7.927
REMARK SMILES CCCCCCC[C@H](N)[C@H](O)C(=O)N[C@H](C)C(=O)N(C)[C@H](CC(C)C)C(=O)N[C@@H](Cc1ccc(O)cc1)C(=O)N[C@@H](Cc1ccc(O)cc1)C(=O)O
REMARK SMILES IDX 18 1 17 2 15 3 16 4 14 5 12 6 13 7 10 9 11 10 8 12 9 13 7 16
REMARK SMILES IDX 6 17 5 18 4 19 3 20 2 21 1 22 19 23 20 24 21 25 22 26 23 27
REMARK SMILES IDX 24 28 25 29 26 30 27 31 28 32 29 34 30 35 31 36 32 37 37 38
REMARK SMILES IDX 33 39 36 40 34 41 35 42 38 44 39 45 40 46 41 48 42 49 43 50
REMARK SMILES IDX 44 51 49 52 45 53 48 54 46 55 47 56 50 58 51 59 52 60
REMARK H PARENT 14 8 11 11 9 14 9 15 28 33 35 43 40 47 47 57 52 61
ROOT
ATOM      1  O   UNL     1      10.084  -5.639 -15.817  1.00  0.00    -0.272 OA
ATOM      2  C   UNL     1      10.020  -4.513 -16.333  1.00  0.00     0.245 C 
ENDROOT
BRANCH   2   3
ATOM      3  C   UNL     1       8.714  -4.104 -17.059  1.00  0.00     0.168 C 
ATOM      4  C   UNL     1       8.316  -5.154 -18.091  1.00  0.00     0.041 C 
BRANCH   3   5
ATOM      5  N   UNL     1       7.608  -3.761 -16.180  1.00  0.00    -0.342 N 
ATOM      6  C   UNL     1       6.555  -2.979 -16.605  1.00  0.00     0.251 C 
ATOM      7  O   UNL     1       6.489  -2.484 -17.726  1.00  0.00    -0.272 OA
ATOM      8  H   UNL     1       7.568  -4.085 -15.216  1.00  0.00     0.164 HD
BRANCH   6   9
ATOM      9  C   UNL     1       5.436  -2.867 -15.557  1.00  0.00     0.219 C 
BRANCH   9  10
ATOM     10  O   UNL     1       4.638  -1.688 -15.725  1.00  0.00    -0.382 OA
ATOM     11  H   UNL     1       5.252  -0.958 -15.488  1.00  0.00     0.211 HD
ENDBRANCH   9  10
BRANCH   9  12
ATOM     12  C   UNL     1       4.542  -4.131 -15.483  1.00  0.00     0.089 C 
BRANCH  12  13
ATOM     13  N   UNL     1       5.413  -5.326 -15.564  1.00  0.00    -0.325 NA
ATOM     14  H   UNL     1       6.361  -5.034 -15.811  1.00  0.00     0.119 HD
ATOM     15  H   UNL     1       5.103  -5.910 -16.344  1.00  0.00     0.119 HD
ENDBRANCH  12  13
BRANCH  12  16
ATOM     16  C   UNL     1       3.613  -4.234 -14.249  1.00  0.00     0.022 C 
BRANCH  16  17
ATOM     17  C   UNL     1       2.103  -4.407 -14.463  1.00  0.00     0.002 C 
BRANCH  17  18
ATOM     18  C   UNL     1       1.250  -4.231 -13.209  1.00  0.00     0.000 C 
BRANCH  18  19
ATOM     19  C   UNL     1       0.291  -3.035 -13.268  1.00  0.00    -0.000 C 
BRANCH  19  20
ATOM     20  C   UNL     1       0.671  -1.853 -12.371  1.00  0.00    -0.000 C 
BRANCH  20  21
ATOM     21  C   UNL     1       1.729  -2.210 -11.324  1.00  0.00    -0.003 C 
ATOM     22  C   UNL     1       2.415  -0.965 -10.782  1.00  0.00     0.004 C 
ENDBRANCH  20  21
ENDBRANCH  19  20
ENDBRANCH  18  19
ENDBRANCH  17  18
ENDBRANCH  16  17
ENDBRANCH  12  16
ENDBRANCH   9  12
ENDBRANCH   6   9
ENDBRANCH   3   5
ENDBRANCH   2   3
BRANCH   2  23
ATOM     23  N   UNL     1      11.057  -3.604 -16.150  1.00  0.00    -0.332 N 
ATOM     24  C   UNL     1      12.460  -3.967 -16.022  1.00  0.00     0.147 C 
BRANCH  23  25
ATOM     25  C   UNL     1      10.791  -2.141 -16.205  1.00  0.00     0.174 C 
BRANCH  25  26
ATOM     26  C   UNL     1      11.718  -1.396 -17.194  1.00  0.00     0.038 C 
BRANCH  26  27
ATOM     27  C   UNL     1      11.184  -1.182 -18.628  1.00  0.00    -0.015 C 
ATOM     28  C   UNL     1      11.452  -2.381 -19.537  1.00  0.00     0.007 C 
ATOM     29  C   UNL     1       9.709  -0.791 -18.675  1.00  0.00     0.007 C 
ENDBRANCH  26  27
ENDBRANCH  25  26
BRANCH  25  30
ATOM     30  C   UNL     1      10.798  -1.545 -14.778  1.00  0.00     0.243 C 
ATOM     31  O   UNL     1      11.835  -1.160 -14.240  1.00  0.00    -0.273 OA
ATOM     32  N   UNL     1       9.578  -1.482 -14.155  1.00  0.00    -0.342 N 
ATOM     33  H   UNL     1       8.748  -1.688 -14.717  1.00  0.00     0.164 HD
BRANCH  32  34
ATOM     34  C   UNL     1       9.399  -0.973 -12.793  1.00  0.00     0.175 C 
BRANCH  34  35
ATOM     35  C   UNL     1       8.470   0.251 -12.771  1.00  0.00     0.070 C 
BRANCH  35  36
ATOM     36  C   UNL     1       8.365   0.929 -14.118  1.00  0.00    -0.045 A 
ATOM     37  C   UNL     1       9.221   1.994 -14.437  1.00  0.00     0.007 A 
ATOM     38  C   UNL     1       7.403   0.525 -15.054  1.00  0.00     0.007 A 
ATOM     39  C   UNL     1       9.123   2.635 -15.672  1.00  0.00     0.046 A 
ATOM     40  C   UNL     1       7.303   1.167 -16.290  1.00  0.00     0.046 A 
ATOM     41  C   UNL     1       8.166   2.217 -16.588  1.00  0.00     0.115 A 
BRANCH  41  42
ATOM     42  O   UNL     1       8.100   2.872 -17.782  1.00  0.00    -0.508 OA
ATOM     43  H   UNL     1       8.609   3.696 -17.706  1.00  0.00     0.293 HD
ENDBRANCH  41  42
ENDBRANCH  35  36
ENDBRANCH  34  35
BRANCH  34  44
ATOM     44  C   UNL     1       8.856  -2.126 -11.919  1.00  0.00     0.243 C 
ATOM     45  O   UNL     1       9.473  -2.643 -10.991  1.00  0.00    -0.273 OA
ATOM     46  N   UNL     1       7.647  -2.624 -12.356  1.00  0.00    -0.341 N 
ATOM     47  H   UNL     1       7.231  -2.239 -13.200  1.00  0.00     0.164 HD
BRANCH  46  48
ATOM     48  C   UNL     1       6.970  -3.761 -11.729  1.00  0.00     0.196 C 
BRANCH  48  49
ATOM     49  C   UNL     1       5.482  -3.459 -11.482  1.00  0.00     0.072 C 
BRANCH  49  50
ATOM     50  C   UNL     1       5.166  -3.252 -10.018  1.00  0.00    -0.045 A 
ATOM     51  C   UNL     1       5.822  -2.244  -9.297  1.00  0.00     0.007 A 
ATOM     52  C   UNL     1       4.239  -4.069  -9.358  1.00  0.00     0.007 A 
ATOM     53  C   UNL     1       5.549  -2.052  -7.943  1.00  0.00     0.046 A 
ATOM     54  C   UNL     1       3.966  -3.878  -8.001  1.00  0.00     0.046 A 
ATOM     55  C   UNL     1       4.623  -2.869  -7.305  1.00  0.00     0.115 A 
BRANCH  55  56
ATOM     56  O   UNL     1       4.386  -2.650  -5.980  1.00  0.00    -0.508 OA
ATOM     57  H   UNL     1       3.459  -2.385  -5.876  1.00  0.00     0.293 HD
ENDBRANCH  55  56
ENDBRANCH  49  50
ENDBRANCH  48  49
BRANCH  48  58
ATOM     58  C   UNL     1       7.101  -4.987 -12.644  1.00  0.00     0.326 C 
ATOM     59  O   UNL     1       6.439  -6.012 -12.606  1.00  0.00    -0.250 OA
BRANCH  58  60
ATOM     60  O   UNL     1       8.066  -4.857 -13.588  1.00  0.00    -0.480 OA
ATOM     61  H   UNL     1       8.384  -5.777 -13.716  1.00  0.00     0.296 HD
ENDBRANCH  58  60
ENDBRANCH  48  58
ENDBRANCH  46  48
ENDBRANCH  34  44
ENDBRANCH  32  34
ENDBRANCH  25  30
ENDBRANCH  23  25
ENDBRANCH   2  23
TORSDOF 28
ENDMDL
MODEL 8
REMARK VINA RESULT:    -5.391      2.095      5.318
REMARK INTER + INTRA:         -21.353
REMARK INTER:                 -15.379
REMARK INTRA:                  -5.975
REMARK UNBOUND:                -7.927
REMARK SMILES CCCCCCC[C@H](N)[C@H](O)C(=O)N[C@H](C)C(=O)N(C)[C@H](CC(C)C)C(=O)N[C@@H](Cc1ccc(O)cc1)C(=O)N[C@@H](Cc1ccc(O)cc1)C(=O)O
REMARK SMILES IDX 18 1 17 2 15 3 16 4 14 5 12 6 13 7 10 9 11 10 8 12 9 13 7 16
REMARK SMILES IDX 6 17 5 18 4 19 3 20 2 21 1 22 19 23 20 24 21 25 22 26 23 27
REMARK SMILES IDX 24 28 25 29 26 30 27 31 28 32 29 34 30 35 31 36 32 37 37 38
REMARK SMILES IDX 33 39 36 40 34 41 35 42 38 44 39 45 40 46 41 48 42 49 43 50
REMARK SMILES IDX 44 51 49 52 45 53 48 54 46 55 47 56 50 58 51 59 52 60
REMARK H PARENT 14 8 11 11 9 14 9 15 28 33 35 43 40 47 47 57 52 61
ROOT
ATOM      1  O   UNL     1       7.770  -2.006 -18.929  1.00  0.00    -0.272 OA
ATOM      2  C   UNL     1       8.741  -2.598 -18.435  1.00  0.00     0.245 C 
ENDROOT
BRANCH   2   3
ATOM      3  C   UNL     1      10.087  -1.840 -18.314  1.00  0.00     0.168 C 
ATOM      4  C   UNL     1      10.400  -1.084 -19.601  1.00  0.00     0.041 C 
BRANCH   3   5
ATOM      5  N   UNL     1      10.205  -0.988 -17.142  1.00  0.00    -0.342 N 
ATOM      6  C   UNL     1      11.411  -0.789 -16.504  1.00  0.00     0.251 C 
ATOM      7  O   UNL     1      12.454  -1.339 -16.843  1.00  0.00    -0.272 OA
ATOM      8  H   UNL     1       9.401  -0.505 -16.746  1.00  0.00     0.164 HD
BRANCH   6   9
ATOM      9  C   UNL     1      11.325   0.257 -15.381  1.00  0.00     0.219 C 
BRANCH   9  10
ATOM     10  O   UNL     1      10.488   1.368 -15.724  1.00  0.00    -0.382 OA
ATOM     11  H   UNL     1      10.808   2.088 -15.138  1.00  0.00     0.211 HD
ENDBRANCH   9  10
BRANCH   9  12
ATOM     12  C   UNL     1      10.906  -0.348 -14.016  1.00  0.00     0.089 C 
BRANCH  12  13
ATOM     13  N   UNL     1      10.912  -1.824 -14.137  1.00  0.00    -0.325 NA
ATOM     14  H   UNL     1      10.054  -2.198 -13.728  1.00  0.00     0.119 HD
ATOM     15  H   UNL     1      11.668  -2.200 -13.560  1.00  0.00     0.119 HD
ENDBRANCH  12  13
BRANCH  12  16
ATOM     16  C   UNL     1      11.749   0.089 -12.794  1.00  0.00     0.022 C 
BRANCH  16  17
ATOM     17  C   UNL     1      11.147  -0.038 -11.387  1.00  0.00     0.002 C 
BRANCH  17  18
ATOM     18  C   UNL     1      10.760   1.285 -10.730  1.00  0.00     0.000 C 
BRANCH  18  19
ATOM     19  C   UNL     1       9.560   1.182  -9.779  1.00  0.00    -0.000 C 
BRANCH  19  20
ATOM     20  C   UNL     1       8.213   1.583 -10.387  1.00  0.00    -0.000 C 
BRANCH  20  21
ATOM     21  C   UNL     1       8.222   1.583 -11.918  1.00  0.00    -0.003 C 
ATOM     22  C   UNL     1       6.897   1.091 -12.480  1.00  0.00     0.004 C 
ENDBRANCH  20  21
ENDBRANCH  19  20
ENDBRANCH  18  19
ENDBRANCH  17  18
ENDBRANCH  16  17
ENDBRANCH  12  16
ENDBRANCH   9  12
ENDBRANCH   6   9
ENDBRANCH   3   5
ENDBRANCH   2   3
BRANCH   2  23
ATOM     23  N   UNL     1       8.580  -3.869 -17.894  1.00  0.00    -0.332 N 
ATOM     24  C   UNL     1       7.922  -4.977 -18.569  1.00  0.00     0.147 C 
BRANCH  23  25
ATOM     25  C   UNL     1       9.208  -4.214 -16.589  1.00  0.00     0.174 C 
BRANCH  25  26
ATOM     26  C   UNL     1       9.687  -5.684 -16.522  1.00  0.00     0.038 C 
BRANCH  26  27
ATOM     27  C   UNL     1      11.201  -5.935 -16.699  1.00  0.00    -0.015 C 
ATOM     28  C   UNL     1      11.499  -7.321 -17.272  1.00  0.00     0.007 C 
ATOM     29  C   UNL     1      11.905  -4.854 -17.515  1.00  0.00     0.007 C 
ENDBRANCH  26  27
ENDBRANCH  25  26
BRANCH  25  30
ATOM     30  C   UNL     1       8.274  -3.811 -15.425  1.00  0.00     0.243 C 
ATOM     31  O   UNL     1       7.355  -3.008 -15.578  1.00  0.00    -0.273 OA
ATOM     32  N   UNL     1       8.542  -4.402 -14.217  1.00  0.00    -0.342 N 
ATOM     33  H   UNL     1       9.228  -5.161 -14.203  1.00  0.00     0.164 HD
BRANCH  32  34
ATOM     34  C   UNL     1       7.779  -4.118 -12.999  1.00  0.00     0.175 C 
BRANCH  34  35
ATOM     35  C   UNL     1       7.844  -2.627 -12.633  1.00  0.00     0.070 C 
BRANCH  35  36
ATOM     36  C   UNL     1       7.946  -2.396 -11.142  1.00  0.00    -0.045 A 
ATOM     37  C   UNL     1       6.830  -1.937 -10.425  1.00  0.00     0.007 A 
ATOM     38  C   UNL     1       9.151  -2.611 -10.461  1.00  0.00     0.007 A 
ATOM     39  C   UNL     1       6.918  -1.706  -9.052  1.00  0.00     0.046 A 
ATOM     40  C   UNL     1       9.241  -2.379  -9.087  1.00  0.00     0.046 A 
ATOM     41  C   UNL     1       8.121  -1.930  -8.394  1.00  0.00     0.115 A 
BRANCH  41  42
ATOM     42  O   UNL     1       8.166  -1.690  -7.052  1.00  0.00    -0.508 OA
ATOM     43  H   UNL     1       7.373  -2.078  -6.647  1.00  0.00     0.293 HD
ENDBRANCH  41  42
ENDBRANCH  35  36
ENDBRANCH  34  35
BRANCH  34  44
ATOM     44  C   UNL     1       6.326  -4.595 -13.223  1.00  0.00     0.243 C 
ATOM     45  O   UNL     1       6.003  -5.760 -13.434  1.00  0.00    -0.273 OA
ATOM     46  N   UNL     1       5.415  -3.562 -13.295  1.00  0.00    -0.341 N 
ATOM     47  H   UNL     1       5.748  -2.604 -13.231  1.00  0.00     0.164 HD
BRANCH  46  48
ATOM     48  C   UNL     1       3.990  -3.763 -13.569  1.00  0.00     0.196 C 
BRANCH  48  49
ATOM     49  C   UNL     1       3.153  -2.567 -13.084  1.00  0.00     0.072 C 
BRANCH  49  50
ATOM     50  C   UNL     1       2.800  -2.660 -11.617  1.00  0.00    -0.045 A 
ATOM     51  C   UNL     1       2.106  -3.780 -11.135  1.00  0.00     0.007 A 
ATOM     52  C   UNL     1       3.137  -1.632 -10.728  1.00  0.00     0.007 A 
ATOM     53  C   UNL     1       1.763  -3.871  -9.786  1.00  0.00     0.046 A 
ATOM     54  C   UNL     1       2.792  -1.723  -9.377  1.00  0.00     0.046 A 
ATOM     55  C   UNL     1       2.109  -2.843  -8.918  1.00  0.00     0.115 A 
BRANCH  55  56
ATOM     56  O   UNL     1       1.753  -2.970  -7.607  1.00  0.00    -0.508 OA
ATOM     57  H   UNL     1       2.207  -3.746  -7.241  1.00  0.00     0.293 HD
ENDBRANCH  55  56
ENDBRANCH  49  50
ENDBRANCH  48  49
BRANCH  48  58
ATOM     58  C   UNL     1       3.793  -3.950 -15.079  1.00  0.00     0.326 C 
ATOM     59  O   UNL     1       3.046  -4.739 -15.635  1.00  0.00    -0.250 OA
BRANCH  58  60
ATOM     60  O   UNL     1       4.548  -3.111 -15.832  1.00  0.00    -0.480 OA
ATOM     61  H   UNL     1       4.037  -3.035 -16.667  1.00  0.00     0.296 HD
ENDBRANCH  58  60
ENDBRANCH  48  58
ENDBRANCH  46  48
ENDBRANCH  34  44
ENDBRANCH  32  34
ENDBRANCH  25  30
ENDBRANCH  23  25
ENDBRANCH   2  23
TORSDOF 28
ENDMDL
MODEL 9
REMARK VINA RESULT:    -5.350      2.564      5.259
REMARK INTER + INTRA:         -21.252
REMARK INTER:                 -14.965
REMARK INTRA:                  -6.287
REMARK UNBOUND:                -7.927
REMARK SMILES CCCCCCC[C@H](N)[C@H](O)C(=O)N[C@H](C)C(=O)N(C)[C@H](CC(C)C)C(=O)N[C@@H](Cc1ccc(O)cc1)C(=O)N[C@@H](Cc1ccc(O)cc1)C(=O)O
REMARK SMILES IDX 18 1 17 2 15 3 16 4 14 5 12 6 13 7 10 9 11 10 8 12 9 13 7 16
REMARK SMILES IDX 6 17 5 18 4 19 3 20 2 21 1 22 19 23 20 24 21 25 22 26 23 27
REMARK SMILES IDX 24 28 25 29 26 30 27 31 28 32 29 34 30 35 31 36 32 37 37 38
REMARK SMILES IDX 33 39 36 40 34 41 35 42 38 44 39 45 40 46 41 48 42 49 43 50
REMARK SMILES IDX 44 51 49 52 45 53 48 54 46 55 47 56 50 58 51 59 52 60
REMARK H PARENT 14 8 11 11 9 14 9 15 28 33 35 43 40 47 47 57 52 61
ROOT
ATOM      1  O   UNL     1      11.390  -1.793 -18.685  1.00  0.00    -0.272 OA
ATOM      2  C   UNL     1      10.993  -2.641 -17.873  1.00  0.00     0.245 C 
ENDROOT
BRANCH   2   3
ATOM      3  C   UNL     1       9.996  -3.723 -18.359  1.00  0.00     0.168 C 
ATOM      4  C   UNL     1      10.736  -4.895 -18.994  1.00  0.00     0.041 C 
BRANCH   3   5
ATOM      5  N   UNL     1       9.038  -4.165 -17.358  1.00  0.00    -0.342 N 
ATOM      6  C   UNL     1       7.797  -4.657 -17.705  1.00  0.00     0.251 C 
ATOM      7  O   UNL     1       7.394  -4.722 -18.862  1.00  0.00    -0.272 OA
ATOM      8  H   UNL     1       9.246  -4.127 -16.363  1.00  0.00     0.164 HD
BRANCH   6   9
ATOM      9  C   UNL     1       7.012  -5.195 -16.498  1.00  0.00     0.219 C 
BRANCH   9  10
ATOM     10  O   UNL     1       7.860  -5.795 -15.511  1.00  0.00    -0.382 OA
ATOM     11  H   UNL     1       8.339  -5.030 -15.122  1.00  0.00     0.211 HD
ENDBRANCH   9  10
BRANCH   9  12
ATOM     12  C   UNL     1       6.083  -4.133 -15.854  1.00  0.00     0.089 C 
BRANCH  12  13
ATOM     13  N   UNL     1       5.337  -3.448 -16.935  1.00  0.00    -0.325 NA
ATOM     14  H   UNL     1       5.796  -2.561 -17.149  1.00  0.00     0.119 HD
ATOM     15  H   UNL     1       4.411  -3.192 -16.586  1.00  0.00     0.119 HD
ENDBRANCH  12  13
BRANCH  12  16
ATOM     16  C   UNL     1       5.100  -4.655 -14.779  1.00  0.00     0.022 C 
BRANCH  16  17
ATOM     17  C   UNL     1       3.590  -4.504 -15.010  1.00  0.00     0.002 C 
BRANCH  17  18
ATOM     18  C   UNL     1       2.890  -3.521 -14.074  1.00  0.00     0.000 C 
BRANCH  18  19
ATOM     19  C   UNL     1       1.641  -4.092 -13.390  1.00  0.00    -0.000 C 
BRANCH  19  20
ATOM     20  C   UNL     1       0.478  -3.108 -13.235  1.00  0.00    -0.000 C 
BRANCH  20  21
ATOM     21  C   UNL     1       0.835  -1.684 -13.669  1.00  0.00    -0.003 C 
ATOM     22  C   UNL     1       0.846  -0.730 -12.485  1.00  0.00     0.004 C 
ENDBRANCH  20  21
ENDBRANCH  19  20
ENDBRANCH  18  19
ENDBRANCH  17  18
ENDBRANCH  16  17
ENDBRANCH  12  16
ENDBRANCH   9  12
ENDBRANCH   6   9
ENDBRANCH   3   5
ENDBRANCH   2   3
BRANCH   2  23
ATOM     23  N   UNL     1      11.533  -2.685 -16.592  1.00  0.00    -0.332 N 
ATOM     24  C   UNL     1      12.611  -3.572 -16.180  1.00  0.00     0.147 C 
BRANCH  23  25
ATOM     25  C   UNL     1      11.106  -1.697 -15.563  1.00  0.00     0.174 C 
BRANCH  25  26
ATOM     26  C   UNL     1      12.189  -1.441 -14.489  1.00  0.00     0.038 C 
BRANCH  26  27
ATOM     27  C   UNL     1      12.227  -0.032 -13.856  1.00  0.00    -0.015 C 
ATOM     28  C   UNL     1      11.759   1.056 -14.822  1.00  0.00     0.007 C 
ATOM     29  C   UNL     1      11.469   0.061 -12.534  1.00  0.00     0.007 C 
ENDBRANCH  26  27
ENDBRANCH  25  26
BRANCH  25  30
ATOM     30  C   UNL     1       9.733  -2.098 -14.978  1.00  0.00     0.243 C 
ATOM     31  O   UNL     1       9.453  -3.268 -14.718  1.00  0.00    -0.273 OA
ATOM     32  N   UNL     1       8.850  -1.068 -14.775  1.00  0.00    -0.342 N 
ATOM     33  H   UNL     1       9.204  -0.114 -14.881  1.00  0.00     0.164 HD
BRANCH  32  34
ATOM     34  C   UNL     1       7.495  -1.265 -14.254  1.00  0.00     0.175 C 
BRANCH  34  35
ATOM     35  C   UNL     1       7.428  -0.973 -12.747  1.00  0.00     0.070 C 
BRANCH  35  36
ATOM     36  C   UNL     1       6.356  -1.773 -12.043  1.00  0.00    -0.045 A 
ATOM     37  C   UNL     1       5.157  -1.154 -11.658  1.00  0.00     0.007 A 
ATOM     38  C   UNL     1       6.548  -3.129 -11.746  1.00  0.00     0.007 A 
ATOM     39  C   UNL     1       4.167  -1.881 -10.996  1.00  0.00     0.046 A 
ATOM     40  C   UNL     1       5.558  -3.857 -11.082  1.00  0.00     0.046 A 
ATOM     41  C   UNL     1       4.375  -3.225 -10.714  1.00  0.00     0.115 A 
BRANCH  41  42
ATOM     42  O   UNL     1       3.384  -3.899 -10.063  1.00  0.00    -0.508 OA
ATOM     43  H   UNL     1       3.560  -3.853  -9.109  1.00  0.00     0.293 HD
ENDBRANCH  41  42
ENDBRANCH  35  36
ENDBRANCH  34  35
BRANCH  34  44
ATOM     44  C   UNL     1       6.536  -0.360 -15.060  1.00  0.00     0.243 C 
ATOM     45  O   UNL     1       6.873   0.676 -15.628  1.00  0.00    -0.273 OA
ATOM     46  N   UNL     1       5.216  -0.751 -14.981  1.00  0.00    -0.341 N 
ATOM     47  H   UNL     1       4.972  -1.550 -14.401  1.00  0.00     0.164 HD
BRANCH  46  48
ATOM     48  C   UNL     1       4.118  -0.010 -15.606  1.00  0.00     0.196 C 
BRANCH  48  49
ATOM     49  C   UNL     1       3.981   1.400 -15.008  1.00  0.00     0.072 C 
BRANCH  49  50
ATOM     50  C   UNL     1       2.540   1.814 -14.817  1.00  0.00    -0.045 A 
ATOM     51  C   UNL     1       2.180   2.605 -13.716  1.00  0.00     0.007 A 
ATOM     52  C   UNL     1       1.547   1.402 -15.714  1.00  0.00     0.007 A 
ATOM     53  C   UNL     1       0.851   2.982 -13.522  1.00  0.00     0.046 A 
ATOM     54  C   UNL     1       0.216   1.778 -15.519  1.00  0.00     0.046 A 
ATOM     55  C   UNL     1      -0.121   2.567 -14.424  1.00  0.00     0.115 A 
BRANCH  55  56
ATOM     56  O   UNL     1      -1.408   2.955 -14.198  1.00  0.00    -0.508 OA
ATOM     57  H   UNL     1      -1.978   2.171 -14.250  1.00  0.00     0.293 HD
ENDBRANCH  55  56
ENDBRANCH  49  50
ENDBRANCH  48  49
BRANCH  48  58
ATOM     58  C   UNL     1       4.381   0.093 -17.114  1.00  0.00     0.326 C 
ATOM     59  O   UNL     1       4.329  -0.807 -17.937  1.00  0.00    -0.250 OA
BRANCH  58  60
ATOM     60  O   UNL     1       4.686   1.350 -17.525  1.00  0.00    -0.480 OA
ATOM     61  H   UNL     1       5.668   1.350 -17.540  1.00  0.00     0.296 HD
ENDBRANCH  58  60
ENDBRANCH  48  58
ENDBRANCH  46  48
ENDBRANCH  34  44
ENDBRANCH  32  34
ENDBRANCH  25  30
ENDBRANCH  23  25
ENDBRANCH   2  23
TORSDOF 28
ENDMDL
MODEL 10
REMARK VINA RESULT:    -5.332      2.590      5.673
REMARK INTER + INTRA:         -21.206
REMARK INTER:                 -14.774
REMARK INTRA:                  -6.432
REMARK UNBOUND:                -7.927
REMARK SMILES CCCCCCC[C@H](N)[C@H](O)C(=O)N[C@H](C)C(=O)N(C)[C@H](CC(C)C)C(=O)N[C@@H](Cc1ccc(O)cc1)C(=O)N[C@@H](Cc1ccc(O)cc1)C(=O)O
REMARK SMILES IDX 18 1 17 2 15 3 16 4 14 5 12 6 13 7 10 9 11 10 8 12 9 13 7 16
REMARK SMILES IDX 6 17 5 18 4 19 3 20 2 21 1 22 19 23 20 24 21 25 22 26 23 27
REMARK SMILES IDX 24 28 25 29 26 30 27 31 28 32 29 34 30 35 31 36 32 37 37 38
REMARK SMILES IDX 33 39 36 40 34 41 35 42 38 44 39 45 40 46 41 48 42 49 43 50
REMARK SMILES IDX 44 51 49 52 45 53 48 54 46 55 47 56 50 58 51 59 52 60
REMARK H PARENT 14 8 11 11 9 14 9 15 28 33 35 43 40 47 47 57 52 61
ROOT
ATOM      1  O   UNL     1      11.039  -2.137 -18.650  1.00  0.00    -0.272 OA
ATOM      2  C   UNL     1      10.718  -2.948 -17.769  1.00  0.00     0.245 C 
ENDROOT
BRANCH   2   3
ATOM      3  C   UNL     1       9.745  -4.096 -18.137  1.00  0.00     0.168 C 
ATOM      4  C   UNL     1      10.512  -5.317 -18.632  1.00  0.00     0.041 C 
BRANCH   3   5
ATOM      5  N   UNL     1       8.786  -4.441 -17.099  1.00  0.00    -0.342 N 
ATOM      6  C   UNL     1       7.487  -4.793 -17.396  1.00  0.00     0.251 C 
ATOM      7  O   UNL     1       7.032  -4.801 -18.535  1.00  0.00    -0.272 OA
ATOM      8  H   UNL     1       9.038  -4.436 -16.113  1.00  0.00     0.164 HD
BRANCH   6   9
ATOM      9  C   UNL     1       6.698  -5.254 -16.160  1.00  0.00     0.219 C 
BRANCH   9  10
ATOM     10  O   UNL     1       7.547  -5.740 -15.113  1.00  0.00    -0.382 OA
ATOM     11  H   UNL     1       7.519  -5.024 -14.441  1.00  0.00     0.211 HD
ENDBRANCH   9  10
BRANCH   9  12
ATOM     12  C   UNL     1       5.723  -4.175 -15.622  1.00  0.00     0.089 C 
BRANCH  12  13
ATOM     13  N   UNL     1       5.175  -3.423 -16.774  1.00  0.00    -0.325 NA
ATOM     14  H   UNL     1       5.441  -3.896 -17.640  1.00  0.00     0.119 HD
ATOM     15  H   UNL     1       5.629  -2.508 -16.819  1.00  0.00     0.119 HD
ENDBRANCH  12  13
BRANCH  12  16
ATOM     16  C   UNL     1       4.571  -4.688 -14.725  1.00  0.00     0.022 C 
BRANCH  16  17
ATOM     17  C   UNL     1       3.293  -3.847 -14.596  1.00  0.00     0.002 C 
BRANCH  17  18
ATOM     18  C   UNL     1       2.109  -4.568 -13.956  1.00  0.00     0.000 C 
BRANCH  18  19
ATOM     19  C   UNL     1       0.782  -3.805 -14.062  1.00  0.00    -0.000 C 
BRANCH  19  20
ATOM     20  C   UNL     1       0.847  -2.329 -13.659  1.00  0.00    -0.000 C 
BRANCH  20  21
ATOM     21  C   UNL     1       0.239  -2.056 -12.281  1.00  0.00    -0.003 C 
ATOM     22  C   UNL     1      -0.036  -0.574 -12.079  1.00  0.00     0.004 C 
ENDBRANCH  20  21
ENDBRANCH  19  20
ENDBRANCH  18  19
ENDBRANCH  17  18
ENDBRANCH  16  17
ENDBRANCH  12  16
ENDBRANCH   9  12
ENDBRANCH   6   9
ENDBRANCH   3   5
ENDBRANCH   2   3
BRANCH   2  23
ATOM     23  N   UNL     1      11.320  -2.889 -16.516  1.00  0.00    -0.332 N 
ATOM     24  C   UNL     1      12.419  -3.741 -16.088  1.00  0.00     0.147 C 
BRANCH  23  25
ATOM     25  C   UNL     1      10.940  -1.822 -15.550  1.00  0.00     0.174 C 
BRANCH  25  26
ATOM     26  C   UNL     1      11.995  -1.613 -14.438  1.00  0.00     0.038 C 
BRANCH  26  27
ATOM     27  C   UNL     1      12.238  -0.162 -13.967  1.00  0.00    -0.015 C 
ATOM     28  C   UNL     1      11.952   0.864 -15.062  1.00  0.00     0.007 C 
ATOM     29  C   UNL     1      11.485   0.194 -12.687  1.00  0.00     0.007 C 
ENDBRANCH  26  27
ENDBRANCH  25  26
BRANCH  25  30
ATOM     30  C   UNL     1       9.513  -2.074 -15.013  1.00  0.00     0.243 C 
ATOM     31  O   UNL     1       9.188  -3.148 -14.509  1.00  0.00    -0.273 OA
ATOM     32  N   UNL     1       8.637  -1.026 -15.142  1.00  0.00    -0.342 N 
ATOM     33  H   UNL     1       9.018  -0.124 -15.439  1.00  0.00     0.164 HD
BRANCH  32  34
ATOM     34  C   UNL     1       7.237  -1.094 -14.713  1.00  0.00     0.175 C 
BRANCH  34  35
ATOM     35  C   UNL     1       7.083  -0.682 -13.242  1.00  0.00     0.070 C 
BRANCH  35  36
ATOM     36  C   UNL     1       6.054  -1.511 -12.506  1.00  0.00    -0.045 A 
ATOM     37  C   UNL     1       4.742  -1.036 -12.362  1.00  0.00     0.007 A 
ATOM     38  C   UNL     1       6.398  -2.747 -11.942  1.00  0.00     0.007 A 
ATOM     39  C   UNL     1       3.790  -1.788 -11.674  1.00  0.00     0.046 A 
ATOM     40  C   UNL     1       5.445  -3.500 -11.251  1.00  0.00     0.046 A 
ATOM     41  C   UNL     1       4.148  -3.013 -11.124  1.00  0.00     0.115 A 
BRANCH  41  42
ATOM     42  O   UNL     1       3.189  -3.715 -10.457  1.00  0.00    -0.508 OA
ATOM     43  H   UNL     1       3.326  -3.588  -9.503  1.00  0.00     0.293 HD
ENDBRANCH  41  42
ENDBRANCH  35  36
ENDBRANCH  34  35
BRANCH  34  44
ATOM     44  C   UNL     1       6.404  -0.197 -15.656  1.00  0.00     0.243 C 
ATOM     45  O   UNL     1       5.933  -0.565 -16.728  1.00  0.00    -0.273 OA
ATOM     46  N   UNL     1       6.340   1.118 -15.246  1.00  0.00    -0.341 N 
ATOM     47  H   UNL     1       6.845   1.400 -14.409  1.00  0.00     0.164 HD
BRANCH  46  48
ATOM     48  C   UNL     1       5.664   2.169 -16.010  1.00  0.00     0.196 C 
BRANCH  48  49
ATOM     49  C   UNL     1       4.539   2.823 -15.191  1.00  0.00     0.072 C 
BRANCH  49  50
ATOM     50  C   UNL     1       3.166   2.339 -15.598  1.00  0.00    -0.045 A 
ATOM     51  C   UNL     1       2.560   2.848 -16.756  1.00  0.00     0.007 A 
ATOM     52  C   UNL     1       2.473   1.401 -14.823  1.00  0.00     0.007 A 
ATOM     53  C   UNL     1       1.288   2.419 -17.135  1.00  0.00     0.046 A 
ATOM     54  C   UNL     1       1.198   0.972 -15.201  1.00  0.00     0.046 A 
ATOM     55  C   UNL     1       0.617   1.485 -16.355  1.00  0.00     0.115 A 
BRANCH  55  56
ATOM     56  O   UNL     1      -0.625   1.093 -16.759  1.00  0.00    -0.508 OA
ATOM     57  H   UNL     1      -1.047   0.613 -16.029  1.00  0.00     0.293 HD
ENDBRANCH  55  56
ENDBRANCH  49  50
ENDBRANCH  48  49
BRANCH  48  58
ATOM     58  C   UNL     1       6.693   3.234 -16.414  1.00  0.00     0.326 C 
ATOM     59  O   UNL     1       7.458   3.200 -17.364  1.00  0.00    -0.250 OA
BRANCH  58  60
ATOM     60  O   UNL     1       6.701   4.316 -15.595  1.00  0.00    -0.480 OA
ATOM     61  H   UNL     1       7.155   3.986 -14.789  1.00  0.00     0.296 HD
ENDBRANCH  58  60
ENDBRANCH  48  58
ENDBRANCH  46  48
ENDBRANCH  34  44
ENDBRANCH  32  34
ENDBRANCH  25  30
ENDBRANCH  23  25
ENDBRANCH   2  23
TORSDOF 28
ENDMDL
MODEL 11
REMARK VINA RESULT:    -5.240      1.908      3.226
REMARK INTER + INTRA:         -20.978
REMARK INTER:                 -14.282
REMARK INTRA:                  -6.696
REMARK UNBOUND:                -7.927
REMARK SMILES CCCCCCC[C@H](N)[C@H](O)C(=O)N[C@H](C)C(=O)N(C)[C@H](CC(C)C)C(=O)N[C@@H](Cc1ccc(O)cc1)C(=O)N[C@@H](Cc1ccc(O)cc1)C(=O)O
REMARK SMILES IDX 18 1 17 2 15 3 16 4 14 5 12 6 13 7 10 9 11 10 8 12 9 13 7 16
REMARK SMILES IDX 6 17 5 18 4 19 3 20 2 21 1 22 19 23 20 24 21 25 22 26 23 27
REMARK SMILES IDX 24 28 25 29 26 30 27 31 28 32 29 34 30 35 31 36 32 37 37 38
REMARK SMILES IDX 33 39 36 40 34 41 35 42 38 44 39 45 40 46 41 48 42 49 43 50
REMARK SMILES IDX 44 51 49 52 45 53 48 54 46 55 47 56 50 58 51 59 52 60
REMARK H PARENT 14 8 11 11 9 14 9 15 28 33 35 43 40 47 47 57 52 61
ROOT
ATOM      1  O   UNL     1      11.792  -4.885 -15.856  1.00  0.00    -0.272 OA
ATOM      2  C   UNL     1      11.087  -4.172 -16.586  1.00  0.00     0.245 C 
ENDROOT
BRANCH   2   3
ATOM      3  C   UNL     1       9.877  -4.817 -17.307  1.00  0.00     0.168 C 
ATOM      4  C   UNL     1      10.288  -6.109 -18.004  1.00  0.00     0.041 C 
BRANCH   3   5
ATOM      5  N   UNL     1       8.698  -5.000 -16.476  1.00  0.00    -0.342 N 
ATOM      6  C   UNL     1       7.422  -4.910 -16.992  1.00  0.00     0.251 C 
ATOM      7  O   UNL     1       7.185  -4.631 -18.163  1.00  0.00    -0.272 OA
ATOM      8  H   UNL     1       8.769  -5.201 -15.481  1.00  0.00     0.164 HD
BRANCH   6   9
ATOM      9  C   UNL     1       6.339  -5.279 -15.967  1.00  0.00     0.219 C 
BRANCH   9  10
ATOM     10  O   UNL     1       6.853  -6.044 -14.870  1.00  0.00    -0.382 OA
ATOM     11  H   UNL     1       6.292  -5.769 -14.112  1.00  0.00     0.211 HD
ENDBRANCH   9  10
BRANCH   9  12
ATOM     12  C   UNL     1       5.540  -4.052 -15.455  1.00  0.00     0.089 C 
BRANCH  12  13
ATOM     13  N   UNL     1       5.035  -3.301 -16.628  1.00  0.00    -0.325 NA
ATOM     14  H   UNL     1       5.601  -3.536 -17.446  1.00  0.00     0.119 HD
ATOM     15  H   UNL     1       5.192  -2.303 -16.474  1.00  0.00     0.119 HD
ENDBRANCH  12  13
BRANCH  12  16
ATOM     16  C   UNL     1       4.378  -4.358 -14.480  1.00  0.00     0.022 C 
BRANCH  16  17
ATOM     17  C   UNL     1       3.042  -4.861 -15.044  1.00  0.00     0.002 C 
BRANCH  17  18
ATOM     18  C   UNL     1       1.813  -4.488 -14.218  1.00  0.00     0.000 C 
BRANCH  18  19
ATOM     19  C   UNL     1       1.913  -3.119 -13.532  1.00  0.00    -0.000 C 
BRANCH  19  20
ATOM     20  C   UNL     1       1.677  -3.132 -12.019  1.00  0.00    -0.000 C 
BRANCH  20  21
ATOM     21  C   UNL     1       2.949  -2.860 -11.211  1.00  0.00    -0.003 C 
ATOM     22  C   UNL     1       2.946  -1.456 -10.627  1.00  0.00     0.004 C 
ENDBRANCH  20  21
ENDBRANCH  19  20
ENDBRANCH  18  19
ENDBRANCH  17  18
ENDBRANCH  16  17
ENDBRANCH  12  16
ENDBRANCH   9  12
ENDBRANCH   6   9
ENDBRANCH   3   5
ENDBRANCH   2   3
BRANCH   2  23
ATOM     23  N   UNL     1      11.316  -2.801 -16.650  1.00  0.00    -0.332 N 
ATOM     24  C   UNL     1      12.161  -2.150 -17.640  1.00  0.00     0.147 C 
BRANCH  23  25
ATOM     25  C   UNL     1      10.578  -1.874 -15.749  1.00  0.00     0.174 C 
BRANCH  25  26
ATOM     26  C   UNL     1      10.348  -0.479 -16.377  1.00  0.00     0.038 C 
BRANCH  26  27
ATOM     27  C   UNL     1       8.993  -0.243 -17.080  1.00  0.00    -0.015 C 
ATOM     28  C   UNL     1       7.995  -1.370 -16.819  1.00  0.00     0.007 C 
ATOM     29  C   UNL     1       8.369   1.112 -16.756  1.00  0.00     0.007 C 
ENDBRANCH  26  27
ENDBRANCH  25  26
BRANCH  25  30
ATOM     30  C   UNL     1      11.258  -1.826 -14.362  1.00  0.00     0.243 C 
ATOM     31  O   UNL     1      12.386  -2.280 -14.175  1.00  0.00    -0.273 OA
ATOM     32  N   UNL     1      10.520  -1.254 -13.358  1.00  0.00    -0.342 N 
ATOM     33  H   UNL     1       9.654  -0.775 -13.621  1.00  0.00     0.164 HD
BRANCH  32  34
ATOM     34  C   UNL     1      10.993  -1.147 -11.975  1.00  0.00     0.175 C 
BRANCH  34  35
ATOM     35  C   UNL     1      11.096   0.321 -11.532  1.00  0.00     0.070 C 
BRANCH  35  36
ATOM     36  C   UNL     1      10.962   1.291 -12.684  1.00  0.00    -0.045 A 
ATOM     37  C   UNL     1      12.054   1.528 -13.532  1.00  0.00     0.007 A 
ATOM     38  C   UNL     1       9.763   1.980 -12.908  1.00  0.00     0.007 A 
ATOM     39  C   UNL     1      11.944   2.431 -14.590  1.00  0.00     0.046 A 
ATOM     40  C   UNL     1       9.653   2.886 -13.965  1.00  0.00     0.046 A 
ATOM     41  C   UNL     1      10.745   3.102 -14.798  1.00  0.00     0.115 A 
BRANCH  41  42
ATOM     42  O   UNL     1      10.681   3.979 -15.841  1.00  0.00    -0.508 OA
ATOM     43  H   UNL     1      11.031   4.834 -15.541  1.00  0.00     0.293 HD
ENDBRANCH  41  42
ENDBRANCH  35  36
ENDBRANCH  34  35
BRANCH  34  44
ATOM     44  C   UNL     1      10.031  -1.956 -11.076  1.00  0.00     0.243 C 
ATOM     45  O   UNL     1      10.248  -2.233  -9.900  1.00  0.00    -0.273 OA
ATOM     46  N   UNL     1       8.942  -2.462 -11.754  1.00  0.00    -0.341 N 
ATOM     47  H   UNL     1       8.866  -2.303 -12.756  1.00  0.00     0.164 HD
BRANCH  46  48
ATOM     48  C   UNL     1       7.930  -3.316 -11.129  1.00  0.00     0.196 C 
BRANCH  48  49
ATOM     49  C   UNL     1       6.671  -2.513 -10.759  1.00  0.00     0.072 C 
BRANCH  49  50
ATOM     50  C   UNL     1       6.480  -1.296 -11.635  1.00  0.00    -0.045 A 
ATOM     51  C   UNL     1       6.102  -1.452 -12.977  1.00  0.00     0.007 A 
ATOM     52  C   UNL     1       6.694  -0.006 -11.133  1.00  0.00     0.007 A 
ATOM     53  C   UNL     1       5.936  -0.337 -13.798  1.00  0.00     0.046 A 
ATOM     54  C   UNL     1       6.528   1.111 -11.955  1.00  0.00     0.046 A 
ATOM     55  C   UNL     1       6.149   0.935 -13.282  1.00  0.00     0.115 A 
BRANCH  55  56
ATOM     56  O   UNL     1       5.978   1.999 -14.118  1.00  0.00    -0.508 OA
ATOM     57  H   UNL     1       6.430   2.767 -13.733  1.00  0.00     0.293 HD
ENDBRANCH  55  56
ENDBRANCH  49  50
ENDBRANCH  48  49
BRANCH  48  58
ATOM     58  C   UNL     1       7.555  -4.442 -12.103  1.00  0.00     0.326 C 
ATOM     59  O   UNL     1       6.670  -5.271 -11.968  1.00  0.00    -0.250 OA
BRANCH  58  60
ATOM     60  O   UNL     1       8.316  -4.461 -13.226  1.00  0.00    -0.480 OA
ATOM     61  H   UNL     1       7.657  -4.594 -13.942  1.00  0.00     0.296 HD
ENDBRANCH  58  60
ENDBRANCH  48  58
ENDBRANCH  46  48
ENDBRANCH  34  44
ENDBRANCH  32  34
ENDBRANCH  25  30
ENDBRANCH  23  25
ENDBRANCH   2  23
TORSDOF 28
ENDMDL
MODEL 12
REMARK VINA RESULT:    -5.146      1.476      1.959
REMARK INTER + INTRA:         -20.744
REMARK INTER:                 -14.096
REMARK INTRA:                  -6.648
REMARK UNBOUND:                -7.927
REMARK SMILES CCCCCCC[C@H](N)[C@H](O)C(=O)N[C@H](C)C(=O)N(C)[C@H](CC(C)C)C(=O)N[C@@H](Cc1ccc(O)cc1)C(=O)N[C@@H](Cc1ccc(O)cc1)C(=O)O
REMARK SMILES IDX 18 1 17 2 15 3 16 4 14 5 12 6 13 7 10 9 11 10 8 12 9 13 7 16
REMARK SMILES IDX 6 17 5 18 4 19 3 20 2 21 1 22 19 23 20 24 21 25 22 26 23 27
REMARK SMILES IDX 24 28 25 29 26 30 27 31 28 32 29 34 30 35 31 36 32 37 37 38
REMARK SMILES IDX 33 39 36 40 34 41 35 42 38 44 39 45 40 46 41 48 42 49 43 50
REMARK SMILES IDX 44 51 49 52 45 53 48 54 46 55 47 56 50 58 51 59 52 60
REMARK H PARENT 14 8 11 11 9 14 9 15 28 33 35 43 40 47 47 57 52 61
ROOT
ATOM      1  O   UNL     1       8.132  -5.362 -15.685  1.00  0.00    -0.272 OA
ATOM      2  C   UNL     1       8.860  -4.787 -16.508  1.00  0.00     0.245 C 
ENDROOT
BRANCH   2   3
ATOM      3  C   UNL     1       8.211  -4.193 -17.783  1.00  0.00     0.168 C 
ATOM      4  C   UNL     1       7.962  -5.282 -18.821  1.00  0.00     0.041 C 
BRANCH   3   5
ATOM      5  N   UNL     1       7.024  -3.387 -17.547  1.00  0.00    -0.342 N 
ATOM      6  C   UNL     1       7.093  -2.020 -17.378  1.00  0.00     0.251 C 
ATOM      7  O   UNL     1       8.147  -1.392 -17.373  1.00  0.00    -0.272 OA
ATOM      8  H   UNL     1       6.096  -3.801 -17.496  1.00  0.00     0.164 HD
BRANCH   6   9
ATOM      9  C   UNL     1       5.708  -1.361 -17.286  1.00  0.00     0.219 C 
BRANCH   9  10
ATOM     10  O   UNL     1       4.747  -1.970 -18.157  1.00  0.00    -0.382 OA
ATOM     11  H   UNL     1       4.554  -1.267 -18.816  1.00  0.00     0.211 HD
ENDBRANCH   9  10
BRANCH   9  12
ATOM     12  C   UNL     1       5.165  -1.286 -15.835  1.00  0.00     0.089 C 
BRANCH  12  13
ATOM     13  N   UNL     1       6.145  -1.936 -14.935  1.00  0.00    -0.325 NA
ATOM     14  H   UNL     1       7.085  -1.618 -15.176  1.00  0.00     0.119 HD
ATOM     15  H   UNL     1       6.148  -2.942 -15.121  1.00  0.00     0.119 HD
ENDBRANCH  12  13
BRANCH  12  16
ATOM     16  C   UNL     1       4.822   0.130 -15.312  1.00  0.00     0.022 C 
BRANCH  16  17
ATOM     17  C   UNL     1       3.694   0.293 -14.283  1.00  0.00     0.002 C 
BRANCH  17  18
ATOM     18  C   UNL     1       3.183  -1.011 -13.675  1.00  0.00     0.000 C 
BRANCH  18  19
ATOM     19  C   UNL     1       1.655  -1.150 -13.690  1.00  0.00    -0.000 C 
BRANCH  19  20
ATOM     20  C   UNL     1       1.128  -2.565 -13.434  1.00  0.00    -0.000 C 
BRANCH  20  21
ATOM     21  C   UNL     1       2.209  -3.641 -13.570  1.00  0.00    -0.003 C 
ATOM     22  C   UNL     1       1.873  -4.628 -14.676  1.00  0.00     0.004 C 
ENDBRANCH  20  21
ENDBRANCH  19  20
ENDBRANCH  18  19
ENDBRANCH  17  18
ENDBRANCH  16  17
ENDBRANCH  12  16
ENDBRANCH   9  12
ENDBRANCH   6   9
ENDBRANCH   3   5
ENDBRANCH   2   3
BRANCH   2  23
ATOM     23  N   UNL     1      10.204  -4.578 -16.220  1.00  0.00    -0.332 N 
ATOM     24  C   UNL     1      11.146  -5.629 -15.865  1.00  0.00     0.147 C 
BRANCH  23  25
ATOM     25  C   UNL     1      10.808  -3.228 -16.390  1.00  0.00     0.174 C 
BRANCH  25  26
ATOM     26  C   UNL     1      12.176  -3.266 -17.111  1.00  0.00     0.038 C 
BRANCH  26  27
ATOM     27  C   UNL     1      12.156  -3.181 -18.654  1.00  0.00    -0.015 C 
ATOM     28  C   UNL     1      12.113  -4.558 -19.315  1.00  0.00     0.007 C 
ATOM     29  C   UNL     1      11.043  -2.289 -19.199  1.00  0.00     0.007 C 
ENDBRANCH  26  27
ENDBRANCH  25  26
BRANCH  25  30
ATOM     30  C   UNL     1      10.841  -2.485 -15.034  1.00  0.00     0.243 C 
ATOM     31  O   UNL     1      11.894  -2.274 -14.434  1.00  0.00    -0.273 OA
ATOM     32  N   UNL     1       9.623  -2.086 -14.547  1.00  0.00    -0.342 N 
ATOM     33  H   UNL     1       8.814  -2.171 -15.167  1.00  0.00     0.164 HD
BRANCH  32  34
ATOM     34  C   UNL     1       9.460  -1.394 -13.265  1.00  0.00     0.175 C 
BRANCH  34  35
ATOM     35  C   UNL     1       8.643  -0.103 -13.427  1.00  0.00     0.070 C 
BRANCH  35  36
ATOM     36  C   UNL     1       8.086   0.404 -12.116  1.00  0.00    -0.045 A 
ATOM     37  C   UNL     1       8.953   0.710 -11.056  1.00  0.00     0.007 A 
ATOM     38  C   UNL     1       6.705   0.553 -11.932  1.00  0.00     0.007 A 
ATOM     39  C   UNL     1       8.447   1.165  -9.838  1.00  0.00     0.046 A 
ATOM     40  C   UNL     1       6.197   1.008 -10.712  1.00  0.00     0.046 A 
ATOM     41  C   UNL     1       7.074   1.311  -9.676  1.00  0.00     0.115 A 
BRANCH  41  42
ATOM     42  O   UNL     1       6.621   1.756  -8.470  1.00  0.00    -0.508 OA
ATOM     43  H   UNL     1       7.118   1.300  -7.770  1.00  0.00     0.293 HD
ENDBRANCH  41  42
ENDBRANCH  35  36
ENDBRANCH  34  35
BRANCH  34  44
ATOM     44  C   UNL     1       8.798  -2.376 -12.272  1.00  0.00     0.243 C 
ATOM     45  O   UNL     1       9.352  -2.836 -11.277  1.00  0.00    -0.273 OA
ATOM     46  N   UNL     1       7.550  -2.804 -12.673  1.00  0.00    -0.341 N 
ATOM     47  H   UNL     1       7.181  -2.484 -13.565  1.00  0.00     0.164 HD
BRANCH  46  48
ATOM     48  C   UNL     1       6.758  -3.786 -11.930  1.00  0.00     0.196 C 
BRANCH  48  49
ATOM     49  C   UNL     1       5.383  -3.218 -11.541  1.00  0.00     0.072 C 
BRANCH  49  50
ATOM     50  C   UNL     1       5.193  -3.128 -10.044  1.00  0.00    -0.045 A 
ATOM     51  C   UNL     1       4.277  -3.975  -9.403  1.00  0.00     0.007 A 
ATOM     52  C   UNL     1       5.905  -2.193  -9.281  1.00  0.00     0.007 A 
ATOM     53  C   UNL     1       4.083  -3.893  -8.024  1.00  0.00     0.046 A 
ATOM     54  C   UNL     1       5.710  -2.110  -7.901  1.00  0.00     0.046 A 
ATOM     55  C   UNL     1       4.801  -2.962  -7.284  1.00  0.00     0.115 A 
BRANCH  55  56
ATOM     56  O   UNL     1       4.581  -2.911  -5.939  1.00  0.00    -0.508 OA
ATOM     57  H   UNL     1       5.130  -3.589  -5.514  1.00  0.00     0.293 HD
ENDBRANCH  55  56
ENDBRANCH  49  50
ENDBRANCH  48  49
BRANCH  48  58
ATOM     58  C   UNL     1       6.571  -5.037 -12.799  1.00  0.00     0.326 C 
ATOM     59  O   UNL     1       6.862  -6.187 -12.512  1.00  0.00    -0.250 OA
BRANCH  58  60
ATOM     60  O   UNL     1       6.003  -4.779 -14.004  1.00  0.00    -0.480 OA
ATOM     61  H   UNL     1       6.615  -4.126 -14.408  1.00  0.00     0.296 HD
ENDBRANCH  58  60
ENDBRANCH  48  58
ENDBRANCH  46  48
ENDBRANCH  34  44
ENDBRANCH  32  34
ENDBRANCH  25  30
ENDBRANCH  23  25
ENDBRANCH   2  23
TORSDOF 28
ENDMDL
MODEL 13
REMARK VINA RESULT:    -5.122      2.161      5.662
REMARK INTER + INTRA:         -20.683
REMARK INTER:                 -14.135
REMARK INTRA:                  -6.547
REMARK UNBOUND:                -7.927
REMARK SMILES CCCCCCC[C@H](N)[C@H](O)C(=O)N[C@H](C)C(=O)N(C)[C@H](CC(C)C)C(=O)N[C@@H](Cc1ccc(O)cc1)C(=O)N[C@@H](Cc1ccc(O)cc1)C(=O)O
REMARK SMILES IDX 18 1 17 2 15 3 16 4 14 5 12 6 13 7 10 9 11 10 8 12 9 13 7 16
REMARK SMILES IDX 6 17 5 18 4 19 3 20 2 21 1 22 19 23 20 24 21 25 22 26 23 27
REMARK SMILES IDX 24 28 25 29 26 30 27 31 28 32 29 34 30 35 31 36 32 37 37 38
REMARK SMILES IDX 33 39 36 40 34 41 35 42 38 44 39 45 40 46 41 48 42 49 43 50
REMARK SMILES IDX 44 51 49 52 45 53 48 54 46 55 47 56 50 58 51 59 52 60
REMARK H PARENT 14 8 11 11 9 14 9 15 28 33 35 43 40 47 47 57 52 61
ROOT
ATOM      1  O   UNL     1       7.929  -2.282 -19.134  1.00  0.00    -0.272 OA
ATOM      2  C   UNL     1       8.960  -2.751 -18.629  1.00  0.00     0.245 C 
ENDROOT
BRANCH   2   3
ATOM      3  C   UNL     1      10.129  -1.789 -18.304  1.00  0.00     0.168 C 
ATOM      4  C   UNL     1      10.677  -1.153 -19.577  1.00  0.00     0.041 C 
BRANCH   3   5
ATOM      5  N   UNL     1       9.837  -0.794 -17.284  1.00  0.00    -0.342 N 
ATOM      6  C   UNL     1      10.772  -0.422 -16.341  1.00  0.00     0.251 C 
ATOM      7  O   UNL     1      11.890  -0.921 -16.263  1.00  0.00    -0.272 OA
ATOM      8  H   UNL     1       8.931  -0.335 -17.226  1.00  0.00     0.164 HD
BRANCH   6   9
ATOM      9  C   UNL     1      10.295   0.742 -15.458  1.00  0.00     0.219 C 
BRANCH   9  10
ATOM     10  O   UNL     1       9.558   1.727 -16.192  1.00  0.00    -0.382 OA
ATOM     11  H   UNL     1       8.920   2.077 -15.532  1.00  0.00     0.211 HD
ENDBRANCH   9  10
BRANCH   9  12
ATOM     12  C   UNL     1       9.498   0.273 -14.212  1.00  0.00     0.089 C 
BRANCH  12  13
ATOM     13  N   UNL     1       8.208  -0.292 -14.668  1.00  0.00    -0.325 NA
ATOM     14  H   UNL     1       7.708  -0.678 -13.865  1.00  0.00     0.119 HD
ATOM     15  H   UNL     1       8.394  -1.093 -15.276  1.00  0.00     0.119 HD
ENDBRANCH  12  13
BRANCH  12  16
ATOM     16  C   UNL     1      10.221  -0.732 -13.284  1.00  0.00     0.022 C 
BRANCH  16  17
ATOM     17  C   UNL     1      11.359  -0.233 -12.383  1.00  0.00     0.002 C 
BRANCH  17  18
ATOM     18  C   UNL     1      10.911   0.380 -11.058  1.00  0.00     0.000 C 
BRANCH  18  19
ATOM     19  C   UNL     1      11.055  -0.560  -9.854  1.00  0.00    -0.000 C 
BRANCH  19  20
ATOM     20  C   UNL     1      11.024  -2.054 -10.189  1.00  0.00    -0.000 C 
BRANCH  20  21
ATOM     21  C   UNL     1       9.770  -2.760  -9.667  1.00  0.00    -0.003 C 
ATOM     22  C   UNL     1       8.998  -1.875  -8.700  1.00  0.00     0.004 C 
ENDBRANCH  20  21
ENDBRANCH  19  20
ENDBRANCH  18  19
ENDBRANCH  17  18
ENDBRANCH  16  17
ENDBRANCH  12  16
ENDBRANCH   9  12
ENDBRANCH   6   9
ENDBRANCH   3   5
ENDBRANCH   2   3
BRANCH   2  23
ATOM     23  N   UNL     1       9.004  -4.089 -18.254  1.00  0.00    -0.332 N 
ATOM     24  C   UNL     1       8.541  -5.194 -19.080  1.00  0.00     0.147 C 
BRANCH  23  25
ATOM     25  C   UNL     1       9.670  -4.492 -16.985  1.00  0.00     0.174 C 
BRANCH  25  26
ATOM     26  C   UNL     1      10.081  -5.983 -16.968  1.00  0.00     0.038 C 
BRANCH  26  27
ATOM     27  C   UNL     1      11.581  -6.298 -17.164  1.00  0.00    -0.015 C 
ATOM     28  C   UNL     1      12.310  -5.206 -17.947  1.00  0.00     0.007 C 
ATOM     29  C   UNL     1      12.313  -6.602 -15.859  1.00  0.00     0.007 C 
ENDBRANCH  26  27
ENDBRANCH  25  26
BRANCH  25  30
ATOM     30  C   UNL     1       8.806  -4.072 -15.774  1.00  0.00     0.243 C 
ATOM     31  O   UNL     1       8.867  -2.942 -15.292  1.00  0.00    -0.273 OA
ATOM     32  N   UNL     1       7.976  -5.042 -15.272  1.00  0.00    -0.342 N 
ATOM     33  H   UNL     1       7.877  -5.906 -15.811  1.00  0.00     0.164 HD
BRANCH  32  34
ATOM     34  C   UNL     1       7.106  -4.831 -14.112  1.00  0.00     0.175 C 
BRANCH  34  35
ATOM     35  C   UNL     1       7.817  -4.015 -13.022  1.00  0.00     0.070 C 
BRANCH  35  36
ATOM     36  C   UNL     1       6.853  -3.373 -12.050  1.00  0.00    -0.045 A 
ATOM     37  C   UNL     1       6.868  -1.982 -11.862  1.00  0.00     0.007 A 
ATOM     38  C   UNL     1       5.953  -4.150 -11.310  1.00  0.00     0.007 A 
ATOM     39  C   UNL     1       5.992  -1.382 -10.958  1.00  0.00     0.046 A 
ATOM     40  C   UNL     1       5.076  -3.550 -10.403  1.00  0.00     0.046 A 
ATOM     41  C   UNL     1       5.103  -2.170 -10.236  1.00  0.00     0.115 A 
BRANCH  41  42
ATOM     42  O   UNL     1       4.266  -1.544  -9.360  1.00  0.00    -0.508 OA
ATOM     43  H   UNL     1       3.809  -0.829  -9.833  1.00  0.00     0.293 HD
ENDBRANCH  41  42
ENDBRANCH  35  36
ENDBRANCH  34  35
BRANCH  34  44
ATOM     44  C   UNL     1       5.814  -4.139 -14.601  1.00  0.00     0.243 C 
ATOM     45  O   UNL     1       4.738  -4.709 -14.757  1.00  0.00    -0.273 OA
ATOM     46  N   UNL     1       6.004  -2.827 -14.981  1.00  0.00    -0.341 N 
ATOM     47  H   UNL     1       6.941  -2.433 -14.943  1.00  0.00     0.164 HD
BRANCH  46  48
ATOM     48  C   UNL     1       4.942  -1.988 -15.540  1.00  0.00     0.196 C 
BRANCH  48  49
ATOM     49  C   UNL     1       4.640  -0.786 -14.630  1.00  0.00     0.072 C 
BRANCH  49  50
ATOM     50  C   UNL     1       3.560  -1.083 -13.614  1.00  0.00    -0.045 A 
ATOM     51  C   UNL     1       3.050  -2.384 -13.496  1.00  0.00     0.007 A 
ATOM     52  C   UNL     1       3.042  -0.070 -12.797  1.00  0.00     0.007 A 
ATOM     53  C   UNL     1       2.045  -2.667 -12.571  1.00  0.00     0.046 A 
ATOM     54  C   UNL     1       2.035  -0.353 -11.872  1.00  0.00     0.046 A 
ATOM     55  C   UNL     1       1.545  -1.650 -11.766  1.00  0.00     0.115 A 
BRANCH  55  56
ATOM     56  O   UNL     1       0.562  -1.968 -10.876  1.00  0.00    -0.508 OA
ATOM     57  H   UNL     1       0.967  -2.429 -10.124  1.00  0.00     0.293 HD
ENDBRANCH  55  56
ENDBRANCH  49  50
ENDBRANCH  48  49
BRANCH  48  58
ATOM     58  C   UNL     1       5.378  -1.489 -16.925  1.00  0.00     0.326 C 
ATOM     59  O   UNL     1       4.765  -1.593 -17.975  1.00  0.00    -0.250 OA
BRANCH  58  60
ATOM     60  O   UNL     1       6.579  -0.858 -16.919  1.00  0.00    -0.480 OA
ATOM     61  H   UNL     1       6.896  -0.966 -17.843  1.00  0.00     0.296 HD
ENDBRANCH  58  60
ENDBRANCH  48  58
ENDBRANCH  46  48
ENDBRANCH  34  44
ENDBRANCH  32  34
ENDBRANCH  25  30
ENDBRANCH  23  25
ENDBRANCH   2  23
TORSDOF 28
ENDMDL
MODEL 14
REMARK VINA RESULT:    -5.121      1.859      2.777
REMARK INTER + INTRA:         -20.681
REMARK INTER:                 -14.232
REMARK INTRA:                  -6.450
REMARK UNBOUND:                -7.927
REMARK SMILES CCCCCCC[C@H](N)[C@H](O)C(=O)N[C@H](C)C(=O)N(C)[C@H](CC(C)C)C(=O)N[C@@H](Cc1ccc(O)cc1)C(=O)N[C@@H](Cc1ccc(O)cc1)C(=O)O
REMARK SMILES IDX 18 1 17 2 15 3 16 4 14 5 12 6 13 7 10 9 11 10 8 12 9 13 7 16
REMARK SMILES IDX 6 17 5 18 4 19 3 20 2 21 1 22 19 23 20 24 21 25 22 26 23 27
REMARK SMILES IDX 24 28 25 29 26 30 27 31 28 32 29 34 30 35 31 36 32 37 37 38
REMARK SMILES IDX 33 39 36 40 34 41 35 42 38 44 39 45 40 46 41 48 42 49 43 50
REMARK SMILES IDX 44 51 49 52 45 53 48 54 46 55 47 56 50 58 51 59 52 60
REMARK H PARENT 14 8 11 11 9 14 9 15 28 33 35 43 40 47 47 57 52 61
ROOT
ATOM      1  O   UNL     1      10.392  -4.095 -16.450  1.00  0.00    -0.272 OA
ATOM      2  C   UNL     1       9.704  -3.108 -16.751  1.00  0.00     0.245 C 
ENDROOT
BRANCH   2   3
ATOM      3  C   UNL     1       8.267  -3.339 -17.280  1.00  0.00     0.168 C 
ATOM      4  C   UNL     1       8.188  -4.632 -18.086  1.00  0.00     0.041 C 
BRANCH   3   5
ATOM      5  N   UNL     1       7.224  -3.266 -16.269  1.00  0.00    -0.342 N 
ATOM      6  C   UNL     1       5.990  -2.712 -16.535  1.00  0.00     0.251 C 
ATOM      7  O   UNL     1       5.693  -2.208 -17.613  1.00  0.00    -0.272 OA
ATOM      8  H   UNL     1       7.366  -3.621 -15.326  1.00  0.00     0.164 HD
BRANCH   6   9
ATOM      9  C   UNL     1       5.002  -2.872 -15.368  1.00  0.00     0.219 C 
BRANCH   9  10
ATOM     10  O   UNL     1       4.063  -1.793 -15.287  1.00  0.00    -0.382 OA
ATOM     11  H   UNL     1       3.821  -1.768 -14.335  1.00  0.00     0.211 HD
ENDBRANCH   9  10
BRANCH   9  12
ATOM     12  C   UNL     1       4.271  -4.239 -15.372  1.00  0.00     0.089 C 
BRANCH  12  13
ATOM     13  N   UNL     1       5.289  -5.314 -15.371  1.00  0.00    -0.325 NA
ATOM     14  H   UNL     1       5.647  -5.439 -16.320  1.00  0.00     0.119 HD
ATOM     15  H   UNL     1       4.835  -6.201 -15.139  1.00  0.00     0.119 HD
ENDBRANCH  12  13
BRANCH  12  16
ATOM     16  C   UNL     1       3.255  -4.469 -14.227  1.00  0.00     0.022 C 
BRANCH  16  17
ATOM     17  C   UNL     1       1.758  -4.534 -14.558  1.00  0.00     0.002 C 
BRANCH  17  18
ATOM     18  C   UNL     1       0.851  -3.775 -13.592  1.00  0.00     0.000 C 
BRANCH  18  19
ATOM     19  C   UNL     1       0.957  -2.248 -13.705  1.00  0.00    -0.000 C 
BRANCH  19  20
ATOM     20  C   UNL     1       0.195  -1.463 -12.633  1.00  0.00    -0.000 C 
BRANCH  20  21
ATOM     21  C   UNL     1       1.072  -0.442 -11.902  1.00  0.00    -0.003 C 
ATOM     22  C   UNL     1       2.413  -0.264 -12.596  1.00  0.00     0.004 C 
ENDBRANCH  20  21
ENDBRANCH  19  20
ENDBRANCH  18  19
ENDBRANCH  17  18
ENDBRANCH  16  17
ENDBRANCH  12  16
ENDBRANCH   9  12
ENDBRANCH   6   9
ENDBRANCH   3   5
ENDBRANCH   2   3
BRANCH   2  23
ATOM     23  N   UNL     1      10.180  -1.826 -16.497  1.00  0.00    -0.332 N 
ATOM     24  C   UNL     1      11.180  -1.141 -17.303  1.00  0.00     0.147 C 
BRANCH  23  25
ATOM     25  C   UNL     1       9.575  -1.001 -15.415  1.00  0.00     0.174 C 
BRANCH  25  26
ATOM     26  C   UNL     1       9.611   0.515 -15.722  1.00  0.00     0.038 C 
BRANCH  26  27
ATOM     27  C   UNL     1       8.346   1.330 -15.373  1.00  0.00    -0.015 C 
ATOM     28  C   UNL     1       8.436   2.781 -15.847  1.00  0.00     0.007 C 
ATOM     29  C   UNL     1       7.053   0.685 -15.862  1.00  0.00     0.007 C 
ENDBRANCH  26  27
ENDBRANCH  25  26
BRANCH  25  30
ATOM     30  C   UNL     1      10.197  -1.374 -14.050  1.00  0.00     0.243 C 
ATOM     31  O   UNL     1      11.281  -1.949 -13.966  1.00  0.00    -0.273 OA
ATOM     32  N   UNL     1       9.460  -1.026 -12.947  1.00  0.00    -0.342 N 
ATOM     33  H   UNL     1       8.644  -0.427 -13.093  1.00  0.00     0.164 HD
BRANCH  32  34
ATOM     34  C   UNL     1       9.881  -1.324 -11.576  1.00  0.00     0.175 C 
BRANCH  34  35
ATOM     35  C   UNL     1       9.957  -0.047 -10.725  1.00  0.00     0.070 C 
BRANCH  35  36
ATOM     36  C   UNL     1      10.289   1.181 -11.542  1.00  0.00    -0.045 A 
ATOM     37  C   UNL     1       9.335   2.199 -11.698  1.00  0.00     0.007 A 
ATOM     38  C   UNL     1      11.534   1.312 -12.170  1.00  0.00     0.007 A 
ATOM     39  C   UNL     1       9.627   3.329 -12.461  1.00  0.00     0.046 A 
ATOM     40  C   UNL     1      11.826   2.444 -12.935  1.00  0.00     0.046 A 
ATOM     41  C   UNL     1      10.869   3.443 -13.073  1.00  0.00     0.115 A 
BRANCH  41  42
ATOM     42  O   UNL     1      11.113   4.563 -13.812  1.00  0.00    -0.508 OA
ATOM     43  H   UNL     1      11.730   5.126 -13.317  1.00  0.00     0.293 HD
ENDBRANCH  41  42
ENDBRANCH  35  36
ENDBRANCH  34  35
BRANCH  34  44
ATOM     44  C   UNL     1       8.892  -2.354 -10.985  1.00  0.00     0.243 C 
ATOM     45  O   UNL     1       9.108  -3.026  -9.980  1.00  0.00    -0.273 OA
ATOM     46  N   UNL     1       7.775  -2.554 -11.768  1.00  0.00    -0.341 N 
ATOM     47  H   UNL     1       7.697  -2.058 -12.652  1.00  0.00     0.164 HD
BRANCH  46  48
ATOM     48  C   UNL     1       6.731  -3.530 -11.448  1.00  0.00     0.196 C 
BRANCH  48  49
ATOM     49  C   UNL     1       5.328  -2.917 -11.591  1.00  0.00     0.072 C 
BRANCH  49  50
ATOM     50  C   UNL     1       4.389  -3.349 -10.488  1.00  0.00    -0.045 A 
ATOM     51  C   UNL     1       4.906  -3.759  -9.250  1.00  0.00     0.007 A 
ATOM     52  C   UNL     1       3.003  -3.368 -10.687  1.00  0.00     0.007 A 
ATOM     53  C   UNL     1       4.050  -4.173  -8.230  1.00  0.00     0.046 A 
ATOM     54  C   UNL     1       2.146  -3.783  -9.666  1.00  0.00     0.046 A 
ATOM     55  C   UNL     1       2.677  -4.181  -8.444  1.00  0.00     0.115 A 
BRANCH  55  56
ATOM     56  O   UNL     1       1.875  -4.594  -7.421  1.00  0.00    -0.508 OA
ATOM     57  H   UNL     1       2.392  -4.574  -6.600  1.00  0.00     0.293 HD
ENDBRANCH  55  56
ENDBRANCH  49  50
ENDBRANCH  48  49
BRANCH  48  58
ATOM     58  C   UNL     1       6.866  -4.733 -12.393  1.00  0.00     0.326 C 
ATOM     59  O   UNL     1       6.278  -5.800 -12.319  1.00  0.00    -0.250 OA
BRANCH  58  60
ATOM     60  O   UNL     1       7.738  -4.526 -13.411  1.00  0.00    -0.480 OA
ATOM     61  H   UNL     1       7.658  -3.564 -13.586  1.00  0.00     0.296 HD
ENDBRANCH  58  60
ENDBRANCH  48  58
ENDBRANCH  46  48
ENDBRANCH  34  44
ENDBRANCH  32  34
ENDBRANCH  25  30
ENDBRANCH  23  25
ENDBRANCH   2  23
TORSDOF 28
ENDMDL
MODEL 15
REMARK VINA RESULT:    -5.113      1.831      5.986
REMARK INTER + INTRA:         -20.661
REMARK INTER:                 -14.298
REMARK INTRA:                  -6.362
REMARK UNBOUND:                -7.927
REMARK SMILES CCCCCCC[C@H](N)[C@H](O)C(=O)N[C@H](C)C(=O)N(C)[C@H](CC(C)C)C(=O)N[C@@H](Cc1ccc(O)cc1)C(=O)N[C@@H](Cc1ccc(O)cc1)C(=O)O
REMARK SMILES IDX 18 1 17 2 15 3 16 4 14 5 12 6 13 7 10 9 11 10 8 12 9 13 7 16
REMARK SMILES IDX 6 17 5 18 4 19 3 20 2 21 1 22 19 23 20 24 21 25 22 26 23 27
REMARK SMILES IDX 24 28 25 29 26 30 27 31 28 32 29 34 30 35 31 36 32 37 37 38
REMARK SMILES IDX 33 39 36 40 34 41 35 42 38 44 39 45 40 46 41 48 42 49 43 50
REMARK SMILES IDX 44 51 49 52 45 53 48 54 46 55 47 56 50 58 51 59 52 60
REMARK H PARENT 14 8 11 11 9 14 9 15 28 33 35 43 40 47 47 57 52 61
ROOT
ATOM      1  O   UNL     1       7.639  -2.139 -18.656  1.00  0.00    -0.272 OA
ATOM      2  C   UNL     1       8.653  -2.767 -18.316  1.00  0.00     0.245 C 
ENDROOT
BRANCH   2   3
ATOM      3  C   UNL     1      10.013  -2.025 -18.299  1.00  0.00     0.168 C 
ATOM      4  C   UNL     1      10.224  -1.251 -19.596  1.00  0.00     0.041 C 
BRANCH   3   5
ATOM      5  N   UNL     1      10.241  -1.194 -17.128  1.00  0.00    -0.342 N 
ATOM      6  C   UNL     1      11.413  -1.259 -16.405  1.00  0.00     0.251 C 
ATOM      7  O   UNL     1      12.324  -2.040 -16.662  1.00  0.00    -0.272 OA
ATOM      8  H   UNL     1       9.543  -0.531 -16.796  1.00  0.00     0.164 HD
BRANCH   6   9
ATOM      9  C   UNL     1      11.491  -0.193 -15.300  1.00  0.00     0.219 C 
BRANCH   9  10
ATOM     10  O   UNL     1      11.041   1.093 -15.741  1.00  0.00    -0.382 OA
ATOM     11  H   UNL     1      11.059   1.021 -16.721  1.00  0.00     0.211 HD
ENDBRANCH   9  10
BRANCH   9  12
ATOM     12  C   UNL     1      10.765  -0.614 -13.996  1.00  0.00     0.089 C 
BRANCH  12  13
ATOM     13  N   UNL     1      10.312  -2.016 -14.145  1.00  0.00    -0.325 NA
ATOM     14  H   UNL     1       9.335  -2.023 -14.446  1.00  0.00     0.119 HD
ATOM     15  H   UNL     1      10.310  -2.463 -13.225  1.00  0.00     0.119 HD
ENDBRANCH  12  13
BRANCH  12  16
ATOM     16  C   UNL     1      11.574  -0.453 -12.687  1.00  0.00     0.022 C 
BRANCH  16  17
ATOM     17  C   UNL     1      11.500  -1.556 -11.623  1.00  0.00     0.002 C 
BRANCH  17  18
ATOM     18  C   UNL     1      10.653  -1.215 -10.398  1.00  0.00     0.000 C 
BRANCH  18  19
ATOM     19  C   UNL     1       9.400  -0.388 -10.716  1.00  0.00    -0.000 C 
BRANCH  19  20
ATOM     20  C   UNL     1       9.423   1.053 -10.198  1.00  0.00    -0.000 C 
BRANCH  20  21
ATOM     21  C   UNL     1       8.668   2.028 -11.105  1.00  0.00    -0.003 C 
ATOM     22  C   UNL     1       8.103   1.323 -12.329  1.00  0.00     0.004 C 
ENDBRANCH  20  21
ENDBRANCH  19  20
ENDBRANCH  18  19
ENDBRANCH  17  18
ENDBRANCH  16  17
ENDBRANCH  12  16
ENDBRANCH   9  12
ENDBRANCH   6   9
ENDBRANCH   3   5
ENDBRANCH   2   3
BRANCH   2  23
ATOM     23  N   UNL     1       8.539  -4.071 -17.845  1.00  0.00    -0.332 N 
ATOM     24  C   UNL     1       8.018  -5.187 -18.620  1.00  0.00     0.147 C 
BRANCH  23  25
ATOM     25  C   UNL     1       9.083  -4.437 -16.508  1.00  0.00     0.174 C 
BRANCH  25  26
ATOM     26  C   UNL     1       9.949  -5.718 -16.541  1.00  0.00     0.038 C 
BRANCH  26  27
ATOM     27  C   UNL     1      11.477  -5.528 -16.668  1.00  0.00    -0.015 C 
ATOM     28  C   UNL     1      12.264  -6.648 -15.988  1.00  0.00     0.007 C 
ATOM     29  C   UNL     1      11.947  -5.339 -18.108  1.00  0.00     0.007 C 
ENDBRANCH  26  27
ENDBRANCH  25  26
BRANCH  25  30
ATOM     30  C   UNL     1       7.944  -4.483 -15.464  1.00  0.00     0.243 C 
ATOM     31  O   UNL     1       7.386  -5.535 -15.157  1.00  0.00    -0.273 OA
ATOM     32  N   UNL     1       7.596  -3.277 -14.913  1.00  0.00    -0.342 N 
ATOM     33  H   UNL     1       8.197  -2.473 -15.112  1.00  0.00     0.164 HD
BRANCH  32  34
ATOM     34  C   UNL     1       6.521  -3.126 -13.928  1.00  0.00     0.175 C 
BRANCH  34  35
ATOM     35  C   UNL     1       6.902  -2.116 -12.835  1.00  0.00     0.070 C 
BRANCH  35  36
ATOM     36  C   UNL     1       6.312  -2.462 -11.487  1.00  0.00    -0.045 A 
ATOM     37  C   UNL     1       5.848  -3.763 -11.237  1.00  0.00     0.007 A 
ATOM     38  C   UNL     1       6.198  -1.493 -10.481  1.00  0.00     0.007 A 
ATOM     39  C   UNL     1       5.290  -4.089 -10.001  1.00  0.00     0.046 A 
ATOM     40  C   UNL     1       5.637  -1.818  -9.244  1.00  0.00     0.046 A 
ATOM     41  C   UNL     1       5.189  -3.115  -9.014  1.00  0.00     0.115 A 
BRANCH  41  42
ATOM     42  O   UNL     1       4.634  -3.473  -7.822  1.00  0.00    -0.508 OA
ATOM     43  H   UNL     1       5.134  -4.228  -7.468  1.00  0.00     0.293 HD
ENDBRANCH  41  42
ENDBRANCH  35  36
ENDBRANCH  34  35
BRANCH  34  44
ATOM     44  C   UNL     1       5.238  -2.705 -14.680  1.00  0.00     0.243 C 
ATOM     45  O   UNL     1       4.655  -3.406 -15.503  1.00  0.00    -0.273 OA
ATOM     46  N   UNL     1       4.865  -1.399 -14.442  1.00  0.00    -0.341 N 
ATOM     47  H   UNL     1       5.448  -0.821 -13.842  1.00  0.00     0.164 HD
BRANCH  46  48
ATOM     48  C   UNL     1       3.722  -0.756 -15.094  1.00  0.00     0.196 C 
BRANCH  48  49
ATOM     49  C   UNL     1       2.623  -0.403 -14.078  1.00  0.00     0.072 C 
BRANCH  49  50
ATOM     50  C   UNL     1       2.192  -1.593 -13.251  1.00  0.00    -0.045 A 
ATOM     51  C   UNL     1       2.462  -1.622 -11.875  1.00  0.00     0.007 A 
ATOM     52  C   UNL     1       1.542  -2.684 -13.841  1.00  0.00     0.007 A 
ATOM     53  C   UNL     1       2.081  -2.720 -11.104  1.00  0.00     0.046 A 
ATOM     54  C   UNL     1       1.162  -3.784 -13.069  1.00  0.00     0.046 A 
ATOM     55  C   UNL     1       1.434  -3.792 -11.706  1.00  0.00     0.115 A 
BRANCH  55  56
ATOM     56  O   UNL     1       1.080  -4.847 -10.917  1.00  0.00    -0.508 OA
ATOM     57  H   UNL     1       0.114  -4.850 -10.826  1.00  0.00     0.293 HD
ENDBRANCH  55  56
ENDBRANCH  49  50
ENDBRANCH  48  49
BRANCH  48  58
ATOM     58  C   UNL     1       4.203   0.521 -15.797  1.00  0.00     0.326 C 
ATOM     59  O   UNL     1       4.066   1.672 -15.414  1.00  0.00    -0.250 OA
BRANCH  58  60
ATOM     60  O   UNL     1       4.856   0.284 -16.963  1.00  0.00    -0.480 OA
ATOM     61  H   UNL     1       4.730  -0.679 -17.101  1.00  0.00     0.296 HD
ENDBRANCH  58  60
ENDBRANCH  48  58
ENDBRANCH  46  48
ENDBRANCH  34  44
ENDBRANCH  32  34
ENDBRANCH  25  30
ENDBRANCH  23  25
ENDBRANCH   2  23
TORSDOF 28
ENDMDL
MODEL 16
REMARK VINA RESULT:    -5.097      1.979      4.680
REMARK INTER + INTRA:         -20.621
REMARK INTER:                 -12.942
REMARK INTRA:                  -7.679
REMARK UNBOUND:                -7.927
REMARK SMILES CCCCCCC[C@H](N)[C@H](O)C(=O)N[C@H](C)C(=O)N(C)[C@H](CC(C)C)C(=O)N[C@@H](Cc1ccc(O)cc1)C(=O)N[C@@H](Cc1ccc(O)cc1)C(=O)O
REMARK SMILES IDX 18 1 17 2 15 3 16 4 14 5 12 6 13 7 10 9 11 10 8 12 9 13 7 16
REMARK SMILES IDX 6 17 5 18 4 19 3 20 2 21 1 22 19 23 20 24 21 25 22 26 23 27
REMARK SMILES IDX 24 28 25 29 26 30 27 31 28 32 29 34 30 35 31 36 32 37 37 38
REMARK SMILES IDX 33 39 36 40 34 41 35 42 38 44 39 45 40 46 41 48 42 49 43 50
REMARK SMILES IDX 44 51 49 52 45 53 48 54 46 55 47 56 50 58 51 59 52 60
REMARK H PARENT 14 8 11 11 9 14 9 15 28 33 35 43 40 47 47 57 52 61
ROOT
ATOM      1  O   UNL     1      10.717  -1.165 -18.908  1.00  0.00    -0.272 OA
ATOM      2  C   UNL     1       9.981  -1.800 -18.139  1.00  0.00     0.245 C 
ENDROOT
BRANCH   2   3
ATOM      3  C   UNL     1       9.260  -1.034 -17.001  1.00  0.00     0.168 C 
ATOM      4  C   UNL     1      10.177   0.021 -16.394  1.00  0.00     0.041 C 
BRANCH   3   5
ATOM      5  N   UNL     1       7.963  -0.483 -17.362  1.00  0.00    -0.342 N 
ATOM      6  C   UNL     1       6.809  -1.235 -17.298  1.00  0.00     0.251 C 
ATOM      7  O   UNL     1       6.791  -2.419 -16.978  1.00  0.00    -0.272 OA
ATOM      8  H   UNL     1       7.858   0.479 -17.676  1.00  0.00     0.164 HD
BRANCH   6   9
ATOM      9  C   UNL     1       5.545  -0.410 -17.586  1.00  0.00     0.219 C 
BRANCH   9  10
ATOM     10  O   UNL     1       4.531  -1.168 -18.257  1.00  0.00    -0.382 OA
ATOM     11  H   UNL     1       5.038  -1.716 -18.896  1.00  0.00     0.211 HD
ENDBRANCH   9  10
BRANCH   9  12
ATOM     12  C   UNL     1       4.969   0.283 -16.323  1.00  0.00     0.089 C 
BRANCH  12  13
ATOM     13  N   UNL     1       5.446  -0.452 -15.129  1.00  0.00    -0.325 NA
ATOM     14  H   UNL     1       5.905  -1.315 -15.426  1.00  0.00     0.119 HD
ATOM     15  H   UNL     1       4.637  -0.755 -14.582  1.00  0.00     0.119 HD
ENDBRANCH  12  13
BRANCH  12  16
ATOM     16  C   UNL     1       5.278   1.792 -16.177  1.00  0.00     0.022 C 
BRANCH  16  17
ATOM     17  C   UNL     1       6.699   2.230 -15.796  1.00  0.00     0.002 C 
BRANCH  17  18
ATOM     18  C   UNL     1       6.833   2.844 -14.404  1.00  0.00     0.000 C 
BRANCH  18  19
ATOM     19  C   UNL     1       7.923   2.198 -13.539  1.00  0.00    -0.000 C 
BRANCH  19  20
ATOM     20  C   UNL     1       7.412   1.257 -12.445  1.00  0.00    -0.000 C 
BRANCH  20  21
ATOM     21  C   UNL     1       8.027   1.544 -11.072  1.00  0.00    -0.003 C 
ATOM     22  C   UNL     1       8.736   2.889 -11.053  1.00  0.00     0.004 C 
ENDBRANCH  20  21
ENDBRANCH  19  20
ENDBRANCH  18  19
ENDBRANCH  17  18
ENDBRANCH  16  17
ENDBRANCH  12  16
ENDBRANCH   9  12
ENDBRANCH   6   9
ENDBRANCH   3   5
ENDBRANCH   2   3
BRANCH   2  23
ATOM     23  N   UNL     1       9.720  -3.146 -18.378  1.00  0.00    -0.332 N 
ATOM     24  C   UNL     1       8.923  -3.648 -19.487  1.00  0.00     0.147 C 
BRANCH  23  25
ATOM     25  C   UNL     1      10.375  -4.196 -17.550  1.00  0.00     0.174 C 
BRANCH  25  26
ATOM     26  C   UNL     1       9.959  -5.629 -17.958  1.00  0.00     0.038 C 
BRANCH  26  27
ATOM     27  C   UNL     1      11.089  -6.589 -18.391  1.00  0.00    -0.015 C 
ATOM     28  C   UNL     1      10.588  -8.014 -18.625  1.00  0.00     0.007 C 
ATOM     29  C   UNL     1      11.878  -6.092 -19.600  1.00  0.00     0.007 C 
ENDBRANCH  26  27
ENDBRANCH  25  26
BRANCH  25  30
ATOM     30  C   UNL     1      10.172  -3.893 -16.048  1.00  0.00     0.243 C 
ATOM     31  O   UNL     1      11.105  -3.554 -15.322  1.00  0.00    -0.273 OA
ATOM     32  N   UNL     1       8.890  -4.033 -15.583  1.00  0.00    -0.342 N 
ATOM     33  H   UNL     1       8.148  -4.178 -16.273  1.00  0.00     0.164 HD
BRANCH  32  34
ATOM     34  C   UNL     1       8.517  -3.814 -14.183  1.00  0.00     0.175 C 
BRANCH  34  35
ATOM     35  C   UNL     1       8.500  -2.318 -13.836  1.00  0.00     0.070 C 
BRANCH  35  36
ATOM     36  C   UNL     1       9.240  -2.006 -12.555  1.00  0.00    -0.045 A 
ATOM     37  C   UNL     1       8.846  -2.612 -11.352  1.00  0.00     0.007 A 
ATOM     38  C   UNL     1      10.306  -1.097 -12.543  1.00  0.00     0.007 A 
ATOM     39  C   UNL     1       9.514  -2.320 -10.162  1.00  0.00     0.046 A 
ATOM     40  C   UNL     1      10.974  -0.803 -11.352  1.00  0.00     0.046 A 
ATOM     41  C   UNL     1      10.572  -1.419 -10.171  1.00  0.00     0.115 A 
BRANCH  41  42
ATOM     42  O   UNL     1      11.195  -1.159  -8.987  1.00  0.00    -0.508 OA
ATOM     43  H   UNL     1      12.058  -1.605  -8.993  1.00  0.00     0.293 HD
ENDBRANCH  41  42
ENDBRANCH  35  36
ENDBRANCH  34  35
BRANCH  34  44
ATOM     44  C   UNL     1       7.141  -4.478 -13.944  1.00  0.00     0.243 C 
ATOM     45  O   UNL     1       6.950  -5.691 -13.927  1.00  0.00    -0.273 OA
ATOM     46  N   UNL     1       6.101  -3.576 -13.879  1.00  0.00    -0.341 N 
ATOM     47  H   UNL     1       6.295  -2.587 -14.016  1.00  0.00     0.164 HD
BRANCH  46  48
ATOM     48  C   UNL     1       4.699  -3.972 -13.727  1.00  0.00     0.196 C 
BRANCH  48  49
ATOM     49  C   UNL     1       3.908  -2.932 -12.916  1.00  0.00     0.072 C 
BRANCH  49  50
ATOM     50  C   UNL     1       4.502  -2.686 -11.548  1.00  0.00    -0.045 A 
ATOM     51  C   UNL     1       5.116  -1.458 -11.262  1.00  0.00     0.007 A 
ATOM     52  C   UNL     1       4.469  -3.678 -10.559  1.00  0.00     0.007 A 
ATOM     53  C   UNL     1       5.680  -1.225 -10.008  1.00  0.00     0.046 A 
ATOM     54  C   UNL     1       5.034  -3.445  -9.303  1.00  0.00     0.046 A 
ATOM     55  C   UNL     1       5.634  -2.219  -9.038  1.00  0.00     0.115 A 
BRANCH  55  56
ATOM     56  O   UNL     1       6.198  -1.952  -7.825  1.00  0.00    -0.508 OA
ATOM     57  H   UNL     1       6.110  -1.002  -7.649  1.00  0.00     0.293 HD
ENDBRANCH  55  56
ENDBRANCH  49  50
ENDBRANCH  48  49
BRANCH  48  58
ATOM     58  C   UNL     1       4.070  -4.127 -15.118  1.00  0.00     0.326 C 
ATOM     59  O   UNL     1       3.323  -5.015 -15.497  1.00  0.00    -0.250 OA
BRANCH  58  60
ATOM     60  O   UNL     1       4.404  -3.131 -15.978  1.00  0.00    -0.480 OA
ATOM     61  H   UNL     1       5.364  -3.274 -16.126  1.00  0.00     0.296 HD
ENDBRANCH  58  60
ENDBRANCH  48  58
ENDBRANCH  46  48
ENDBRANCH  34  44
ENDBRANCH  32  34
ENDBRANCH  25  30
ENDBRANCH  23  25
ENDBRANCH   2  23
TORSDOF 28
ENDMDL
MODEL 17
REMARK VINA RESULT:    -5.083      2.569      5.880
REMARK INTER + INTRA:         -20.588
REMARK INTER:                 -13.699
REMARK INTRA:                  -6.889
REMARK UNBOUND:                -7.927
REMARK SMILES CCCCCCC[C@H](N)[C@H](O)C(=O)N[C@H](C)C(=O)N(C)[C@H](CC(C)C)C(=O)N[C@@H](Cc1ccc(O)cc1)C(=O)N[C@@H](Cc1ccc(O)cc1)C(=O)O
REMARK SMILES IDX 18 1 17 2 15 3 16 4 14 5 12 6 13 7 10 9 11 10 8 12 9 13 7 16
REMARK SMILES IDX 6 17 5 18 4 19 3 20 2 21 1 22 19 23 20 24 21 25 22 26 23 27
REMARK SMILES IDX 24 28 25 29 26 30 27 31 28 32 29 34 30 35 31 36 32 37 37 38
REMARK SMILES IDX 33 39 36 40 34 41 35 42 38 44 39 45 40 46 41 48 42 49 43 50
REMARK SMILES IDX 44 51 49 52 45 53 48 54 46 55 47 56 50 58 51 59 52 60
REMARK H PARENT 14 8 11 11 9 14 9 15 28 33 35 43 40 47 47 57 52 61
ROOT
ATOM      1  O   UNL     1       9.342  -0.405 -18.323  1.00  0.00    -0.272 OA
ATOM      2  C   UNL     1       9.357  -1.445 -17.649  1.00  0.00     0.245 C 
ENDROOT
BRANCH   2   3
ATOM      3  C   UNL     1       8.757  -2.735 -18.262  1.00  0.00     0.168 C 
ATOM      4  C   UNL     1       9.700  -3.329 -19.303  1.00  0.00     0.041 C 
BRANCH   3   5
ATOM      5  N   UNL     1       8.324  -3.729 -17.292  1.00  0.00    -0.342 N 
ATOM      6  C   UNL     1       6.990  -3.993 -17.066  1.00  0.00     0.251 C 
ATOM      7  O   UNL     1       6.078  -3.392 -17.624  1.00  0.00    -0.272 OA
ATOM      8  H   UNL     1       8.990  -4.267 -16.743  1.00  0.00     0.164 HD
BRANCH   6   9
ATOM      9  C   UNL     1       6.771  -5.175 -16.108  1.00  0.00     0.219 C 
BRANCH   9  10
ATOM     10  O   UNL     1       7.996  -5.668 -15.551  1.00  0.00    -0.382 OA
ATOM     11  H   UNL     1       8.577  -4.876 -15.534  1.00  0.00     0.211 HD
ENDBRANCH   9  10
BRANCH   9  12
ATOM     12  C   UNL     1       5.740  -4.871 -14.991  1.00  0.00     0.089 C 
BRANCH  12  13
ATOM     13  N   UNL     1       4.383  -4.923 -15.580  1.00  0.00    -0.325 NA
ATOM     14  H   UNL     1       3.695  -4.687 -14.862  1.00  0.00     0.119 HD
ATOM     15  H   UNL     1       4.173  -5.889 -15.843  1.00  0.00     0.119 HD
ENDBRANCH  12  13
BRANCH  12  16
ATOM     16  C   UNL     1       5.811  -5.777 -13.738  1.00  0.00     0.022 C 
BRANCH  16  17
ATOM     17  C   UNL     1       6.868  -5.486 -12.664  1.00  0.00     0.002 C 
BRANCH  17  18
ATOM     18  C   UNL     1       6.595  -4.251 -11.809  1.00  0.00     0.000 C 
BRANCH  18  19
ATOM     19  C   UNL     1       7.861  -3.501 -11.372  1.00  0.00    -0.000 C 
BRANCH  19  20
ATOM     20  C   UNL     1       7.622  -2.312 -10.437  1.00  0.00    -0.000 C 
BRANCH  20  21
ATOM     21  C   UNL     1       8.767  -1.295 -10.455  1.00  0.00    -0.003 C 
ATOM     22  C   UNL     1      10.109  -1.975 -10.673  1.00  0.00     0.004 C 
ENDBRANCH  20  21
ENDBRANCH  19  20
ENDBRANCH  18  19
ENDBRANCH  17  18
ENDBRANCH  16  17
ENDBRANCH  12  16
ENDBRANCH   9  12
ENDBRANCH   6   9
ENDBRANCH   3   5
ENDBRANCH   2   3
BRANCH   2  23
ATOM     23  N   UNL     1      10.011  -1.469 -16.421  1.00  0.00    -0.332 N 
ATOM     24  C   UNL     1      11.308  -2.086 -16.188  1.00  0.00     0.147 C 
BRANCH  23  25
ATOM     25  C   UNL     1       9.454  -0.724 -15.259  1.00  0.00     0.174 C 
BRANCH  25  26
ATOM     26  C   UNL     1      10.488  -0.511 -14.129  1.00  0.00     0.038 C 
BRANCH  26  27
ATOM     27  C   UNL     1      10.787   0.948 -13.719  1.00  0.00    -0.015 C 
ATOM     28  C   UNL     1      11.515   1.042 -12.379  1.00  0.00     0.007 C 
ATOM     29  C   UNL     1      11.532   1.739 -14.792  1.00  0.00     0.007 C 
ENDBRANCH  26  27
ENDBRANCH  25  26
BRANCH  25  30
ATOM     30  C   UNL     1       8.140  -1.386 -14.783  1.00  0.00     0.243 C 
ATOM     31  O   UNL     1       8.102  -2.554 -14.402  1.00  0.00    -0.273 OA
ATOM     32  N   UNL     1       7.026  -0.587 -14.821  1.00  0.00    -0.342 N 
ATOM     33  H   UNL     1       7.163   0.409 -15.014  1.00  0.00     0.164 HD
BRANCH  32  34
ATOM     34  C   UNL     1       5.692  -1.053 -14.434  1.00  0.00     0.175 C 
BRANCH  34  35
ATOM     35  C   UNL     1       5.400  -0.748 -12.956  1.00  0.00     0.070 C 
BRANCH  35  36
ATOM     36  C   UNL     1       4.323  -1.636 -12.377  1.00  0.00    -0.045 A 
ATOM     37  C   UNL     1       3.587  -2.486 -13.217  1.00  0.00     0.007 A 
ATOM     38  C   UNL     1       4.027  -1.609 -11.008  1.00  0.00     0.007 A 
ATOM     39  C   UNL     1       2.582  -3.300 -12.694  1.00  0.00     0.046 A 
ATOM     40  C   UNL     1       3.019  -2.422 -10.484  1.00  0.00     0.046 A 
ATOM     41  C   UNL     1       2.306  -3.262 -11.333  1.00  0.00     0.115 A 
BRANCH  41  42
ATOM     42  O   UNL     1       1.313  -4.070 -10.862  1.00  0.00    -0.508 OA
ATOM     43  H   UNL     1       1.406  -4.941 -11.282  1.00  0.00     0.293 HD
ENDBRANCH  41  42
ENDBRANCH  35  36
ENDBRANCH  34  35
BRANCH  34  44
ATOM     44  C   UNL     1       4.661  -0.389 -15.374  1.00  0.00     0.243 C 
ATOM     45  O   UNL     1       4.391  -0.792 -16.502  1.00  0.00    -0.273 OA
ATOM     46  N   UNL     1       4.151   0.794 -14.883  1.00  0.00    -0.341 N 
ATOM     47  H   UNL     1       4.494   1.147 -13.993  1.00  0.00     0.164 HD
BRANCH  46  48
ATOM     48  C   UNL     1       3.210   1.636 -15.625  1.00  0.00     0.196 C 
BRANCH  48  49
ATOM     49  C   UNL     1       2.173   2.277 -14.687  1.00  0.00     0.072 C 
BRANCH  49  50
ATOM     50  C   UNL     1       1.441   1.257 -13.845  1.00  0.00    -0.045 A 
ATOM     51  C   UNL     1       1.489   1.341 -12.446  1.00  0.00     0.007 A 
ATOM     52  C   UNL     1       0.727   0.209 -14.441  1.00  0.00     0.007 A 
ATOM     53  C   UNL     1       0.828   0.398 -11.659  1.00  0.00     0.046 A 
ATOM     54  C   UNL     1       0.067  -0.736 -13.653  1.00  0.00     0.046 A 
ATOM     55  C   UNL     1       0.122  -0.633 -12.267  1.00  0.00     0.115 A 
BRANCH  55  56
ATOM     56  O   UNL     1      -0.508  -1.535 -11.462  1.00  0.00    -0.508 OA
ATOM     57  H   UNL     1       0.163  -1.987 -10.925  1.00  0.00     0.293 HD
ENDBRANCH  55  56
ENDBRANCH  49  50
ENDBRANCH  48  49
BRANCH  48  58
ATOM     58  C   UNL     1       3.993   2.736 -16.355  1.00  0.00     0.326 C 
ATOM     59  O   UNL     1       3.963   3.935 -16.134  1.00  0.00    -0.250 OA
BRANCH  58  60
ATOM     60  O   UNL     1       4.803   2.263 -17.336  1.00  0.00    -0.480 OA
ATOM     61  H   UNL     1       5.661   2.133 -16.877  1.00  0.00     0.296 HD
ENDBRANCH  58  60
ENDBRANCH  48  58
ENDBRANCH  46  48
ENDBRANCH  34  44
ENDBRANCH  32  34
ENDBRANCH  25  30
ENDBRANCH  23  25
ENDBRANCH   2  23
TORSDOF 28
ENDMDL
MODEL 18
REMARK VINA RESULT:    -5.053      2.034      3.099
REMARK INTER + INTRA:         -20.513
REMARK INTER:                 -15.390
REMARK INTRA:                  -5.123
REMARK UNBOUND:                -7.927
REMARK SMILES CCCCCCC[C@H](N)[C@H](O)C(=O)N[C@H](C)C(=O)N(C)[C@H](CC(C)C)C(=O)N[C@@H](Cc1ccc(O)cc1)C(=O)N[C@@H](Cc1ccc(O)cc1)C(=O)O
REMARK SMILES IDX 18 1 17 2 15 3 16 4 14 5 12 6 13 7 10 9 11 10 8 12 9 13 7 16
REMARK SMILES IDX 6 17 5 18 4 19 3 20 2 21 1 22 19 23 20 24 21 25 22 26 23 27
REMARK SMILES IDX 24 28 25 29 26 30 27 31 28 32 29 34 30 35 31 36 32 37 37 38
REMARK SMILES IDX 33 39 36 40 34 41 35 42 38 44 39 45 40 46 41 48 42 49 43 50
REMARK SMILES IDX 44 51 49 52 45 53 48 54 46 55 47 56 50 58 51 59 52 60
REMARK H PARENT 14 8 11 11 9 14 9 15 28 33 35 43 40 47 47 57 52 61
ROOT
ATOM      1  O   UNL     1       8.808  -4.940 -18.998  1.00  0.00    -0.272 OA
ATOM      2  C   UNL     1       8.664  -4.081 -18.115  1.00  0.00     0.245 C 
ENDROOT
BRANCH   2   3
ATOM      3  C   UNL     1       7.345  -4.068 -17.302  1.00  0.00     0.168 C 
ATOM      4  C   UNL     1       7.311  -5.222 -16.306  1.00  0.00     0.041 C 
BRANCH   3   5
ATOM      5  N   UNL     1       7.029  -2.797 -16.670  1.00  0.00    -0.342 N 
ATOM      6  C   UNL     1       5.840  -2.141 -16.909  1.00  0.00     0.251 C 
ATOM      7  O   UNL     1       4.988  -2.548 -17.691  1.00  0.00    -0.272 OA
ATOM      8  H   UNL     1       7.674  -2.343 -16.028  1.00  0.00     0.164 HD
BRANCH   6   9
ATOM      9  C   UNL     1       5.662  -0.894 -16.027  1.00  0.00     0.219 C 
BRANCH   9  10
ATOM     10  O   UNL     1       6.057   0.313 -16.691  1.00  0.00    -0.382 OA
ATOM     11  H   UNL     1       6.799   0.647 -16.140  1.00  0.00     0.211 HD
ENDBRANCH   9  10
BRANCH   9  12
ATOM     12  C   UNL     1       4.231  -0.759 -15.445  1.00  0.00     0.089 C 
BRANCH  12  13
ATOM     13  N   UNL     1       3.770  -2.101 -15.023  1.00  0.00    -0.325 NA
ATOM     14  H   UNL     1       2.917  -2.005 -14.469  1.00  0.00     0.119 HD
ATOM     15  H   UNL     1       4.460  -2.502 -14.382  1.00  0.00     0.119 HD
ENDBRANCH  12  13
BRANCH  12  16
ATOM     16  C   UNL     1       4.063   0.250 -14.285  1.00  0.00     0.022 C 
BRANCH  16  17
ATOM     17  C   UNL     1       2.650   0.659 -13.849  1.00  0.00     0.002 C 
BRANCH  17  18
ATOM     18  C   UNL     1       2.141  -0.027 -12.583  1.00  0.00     0.000 C 
BRANCH  18  19
ATOM     19  C   UNL     1       0.640  -0.343 -12.604  1.00  0.00    -0.000 C 
BRANCH  19  20
ATOM     20  C   UNL     1       0.186  -1.271 -13.734  1.00  0.00    -0.000 C 
BRANCH  20  21
ATOM     21  C   UNL     1      -0.068  -2.707 -13.265  1.00  0.00    -0.003 C 
ATOM     22  C   UNL     1       0.812  -3.697 -14.012  1.00  0.00     0.004 C 
ENDBRANCH  20  21
ENDBRANCH  19  20
ENDBRANCH  18  19
ENDBRANCH  17  18
ENDBRANCH  16  17
ENDBRANCH  12  16
ENDBRANCH   9  12
ENDBRANCH   6   9
ENDBRANCH   3   5
ENDBRANCH   2   3
BRANCH   2  23
ATOM     23  N   UNL     1       9.718  -3.235 -17.788  1.00  0.00    -0.332 N 
ATOM     24  C   UNL     1       9.878  -1.881 -18.296  1.00  0.00     0.147 C 
BRANCH  23  25
ATOM     25  C   UNL     1      10.716  -3.641 -16.760  1.00  0.00     0.174 C 
BRANCH  25  26
ATOM     26  C   UNL     1      10.550  -5.110 -16.306  1.00  0.00     0.038 C 
BRANCH  26  27
ATOM     27  C   UNL     1      11.596  -6.124 -16.820  1.00  0.00    -0.015 C 
ATOM     28  C   UNL     1      12.447  -6.708 -15.693  1.00  0.00     0.007 C 
ATOM     29  C   UNL     1      10.994  -7.239 -17.671  1.00  0.00     0.007 C 
ENDBRANCH  26  27
ENDBRANCH  25  26
BRANCH  25  30
ATOM     30  C   UNL     1      10.720  -2.626 -15.594  1.00  0.00     0.243 C 
ATOM     31  O   UNL     1      11.663  -1.860 -15.402  1.00  0.00    -0.273 OA
ATOM     32  N   UNL     1       9.611  -2.643 -14.788  1.00  0.00    -0.342 N 
ATOM     33  H   UNL     1       8.813  -3.206 -15.094  1.00  0.00     0.164 HD
BRANCH  32  34
ATOM     34  C   UNL     1       9.454  -1.772 -13.621  1.00  0.00     0.175 C 
BRANCH  34  35
ATOM     35  C   UNL     1       8.861  -0.411 -14.015  1.00  0.00     0.070 C 
BRANCH  35  36
ATOM     36  C   UNL     1       9.658   0.754 -13.471  1.00  0.00    -0.045 A 
ATOM     37  C   UNL     1       9.431   2.049 -13.961  1.00  0.00     0.007 A 
ATOM     38  C   UNL     1      10.643   0.557 -12.495  1.00  0.00     0.007 A 
ATOM     39  C   UNL     1      10.171   3.128 -13.475  1.00  0.00     0.046 A 
ATOM     40  C   UNL     1      11.385   1.636 -12.009  1.00  0.00     0.046 A 
ATOM     41  C   UNL     1      11.141   2.913 -12.503  1.00  0.00     0.115 A 
BRANCH  41  42
ATOM     42  O   UNL     1      11.843   3.994 -12.057  1.00  0.00    -0.508 OA
ATOM     43  H   UNL     1      11.256   4.529 -11.498  1.00  0.00     0.293 HD
ENDBRANCH  41  42
ENDBRANCH  35  36
ENDBRANCH  34  35
BRANCH  34  44
ATOM     44  C   UNL     1       8.571  -2.509 -12.589  1.00  0.00     0.243 C 
ATOM     45  O   UNL     1       8.988  -2.997 -11.542  1.00  0.00    -0.273 OA
ATOM     46  N   UNL     1       7.270  -2.690 -13.009  1.00  0.00    -0.341 N 
ATOM     47  H   UNL     1       7.002  -2.370 -13.936  1.00  0.00     0.164 HD
BRANCH  46  48
ATOM     48  C   UNL     1       6.266  -3.420 -12.231  1.00  0.00     0.196 C 
BRANCH  48  49
ATOM     49  C   UNL     1       5.077  -2.516 -11.864  1.00  0.00     0.072 C 
BRANCH  49  50
ATOM     50  C   UNL     1       4.194  -3.122 -10.798  1.00  0.00    -0.045 A 
ATOM     51  C   UNL     1       4.766  -3.640  -9.627  1.00  0.00     0.007 A 
ATOM     52  C   UNL     1       2.805  -3.196 -10.968  1.00  0.00     0.007 A 
ATOM     53  C   UNL     1       3.962  -4.214  -8.642  1.00  0.00     0.046 A 
ATOM     54  C   UNL     1       2.000  -3.771  -9.982  1.00  0.00     0.046 A 
ATOM     55  C   UNL     1       2.586  -4.274  -8.826  1.00  0.00     0.115 A 
BRANCH  55  56
ATOM     56  O   UNL     1       1.836  -4.845  -7.840  1.00  0.00    -0.508 OA
ATOM     57  H   UNL     1       0.903  -4.634  -8.005  1.00  0.00     0.293 HD
ENDBRANCH  55  56
ENDBRANCH  49  50
ENDBRANCH  48  49
BRANCH  48  58
ATOM     58  C   UNL     1       5.769  -4.616 -13.055  1.00  0.00     0.326 C 
ATOM     59  O   UNL     1       4.850  -4.629 -13.858  1.00  0.00    -0.250 OA
BRANCH  58  60
ATOM     60  O   UNL     1       6.474  -5.754 -12.837  1.00  0.00    -0.480 OA
ATOM     61  H   UNL     1       7.384  -5.515 -13.120  1.00  0.00     0.296 HD
ENDBRANCH  58  60
ENDBRANCH  48  58
ENDBRANCH  46  48
ENDBRANCH  34  44
ENDBRANCH  32  34
ENDBRANCH  25  30
ENDBRANCH  23  25
ENDBRANCH   2  23
TORSDOF 28
ENDMDL
MODEL 19
REMARK VINA RESULT:    -5.048      2.217      4.205
REMARK INTER + INTRA:         -20.500
REMARK INTER:                 -15.277
REMARK INTRA:                  -5.223
REMARK UNBOUND:                -7.927
REMARK SMILES CCCCCCC[C@H](N)[C@H](O)C(=O)N[C@H](C)C(=O)N(C)[C@H](CC(C)C)C(=O)N[C@@H](Cc1ccc(O)cc1)C(=O)N[C@@H](Cc1ccc(O)cc1)C(=O)O
REMARK SMILES IDX 18 1 17 2 15 3 16 4 14 5 12 6 13 7 10 9 11 10 8 12 9 13 7 16
REMARK SMILES IDX 6 17 5 18 4 19 3 20 2 21 1 22 19 23 20 24 21 25 22 26 23 27
REMARK SMILES IDX 24 28 25 29 26 30 27 31 28 32 29 34 30 35 31 36 32 37 37 38
REMARK SMILES IDX 33 39 36 40 34 41 35 42 38 44 39 45 40 46 41 48 42 49 43 50
REMARK SMILES IDX 44 51 49 52 45 53 48 54 46 55 47 56 50 58 51 59 52 60
REMARK H PARENT 14 8 11 11 9 14 9 15 28 33 35 43 40 47 47 57 52 61
ROOT
ATOM      1  O   UNL     1      10.619  -0.852 -18.656  1.00  0.00    -0.272 OA
ATOM      2  C   UNL     1       9.849  -1.526 -17.957  1.00  0.00     0.245 C 
ENDROOT
BRANCH   2   3
ATOM      3  C   UNL     1       9.081  -0.823 -16.810  1.00  0.00     0.168 C 
ATOM      4  C   UNL     1       9.914   0.307 -16.214  1.00  0.00     0.041 C 
BRANCH   3   5
ATOM      5  N   UNL     1       7.738  -0.382 -17.155  1.00  0.00    -0.342 N 
ATOM      6  C   UNL     1       6.658  -1.239 -17.115  1.00  0.00     0.251 C 
ATOM      7  O   UNL     1       6.749  -2.428 -16.832  1.00  0.00    -0.272 OA
ATOM      8  H   UNL     1       7.544   0.575 -17.439  1.00  0.00     0.164 HD
BRANCH   6   9
ATOM      9  C   UNL     1       5.323  -0.524 -17.378  1.00  0.00     0.219 C 
BRANCH   9  10
ATOM     10  O   UNL     1       4.546  -1.164 -18.398  1.00  0.00    -0.382 OA
ATOM     11  H   UNL     1       3.748  -1.477 -17.918  1.00  0.00     0.211 HD
ENDBRANCH   9  10
BRANCH   9  12
ATOM     12  C   UNL     1       4.480  -0.316 -16.093  1.00  0.00     0.089 C 
BRANCH  12  13
ATOM     13  N   UNL     1       5.347  -0.567 -14.919  1.00  0.00    -0.325 NA
ATOM     14  H   UNL     1       6.099   0.125 -14.903  1.00  0.00     0.119 HD
ATOM     15  H   UNL     1       5.816  -1.467 -15.041  1.00  0.00     0.119 HD
ENDBRANCH  12  13
BRANCH  12  16
ATOM     16  C   UNL     1       3.783   1.059 -15.954  1.00  0.00     0.022 C 
BRANCH  16  17
ATOM     17  C   UNL     1       2.389   1.128 -15.315  1.00  0.00     0.002 C 
BRANCH  17  18
ATOM     18  C   UNL     1       2.376   1.518 -13.838  1.00  0.00     0.000 C 
BRANCH  18  19
ATOM     19  C   UNL     1       2.352   0.322 -12.877  1.00  0.00    -0.000 C 
BRANCH  19  20
ATOM     20  C   UNL     1       0.956  -0.131 -12.438  1.00  0.00    -0.000 C 
BRANCH  20  21
ATOM     21  C   UNL     1      -0.120   0.933 -12.669  1.00  0.00    -0.003 C 
ATOM     22  C   UNL     1      -0.597   1.534 -11.356  1.00  0.00     0.004 C 
ENDBRANCH  20  21
ENDBRANCH  19  20
ENDBRANCH  18  19
ENDBRANCH  17  18
ENDBRANCH  16  17
ENDBRANCH  12  16
ENDBRANCH   9  12
ENDBRANCH   6   9
ENDBRANCH   3   5
ENDBRANCH   2   3
BRANCH   2  23
ATOM     23  N   UNL     1       9.596  -2.855 -18.283  1.00  0.00    -0.332 N 
ATOM     24  C   UNL     1       8.846  -3.290 -19.451  1.00  0.00     0.147 C 
BRANCH  23  25
ATOM     25  C   UNL     1      10.212  -3.953 -17.489  1.00  0.00     0.174 C 
BRANCH  25  26
ATOM     26  C   UNL     1       9.789  -5.359 -17.975  1.00  0.00     0.038 C 
BRANCH  26  27
ATOM     27  C   UNL     1      10.908  -6.411 -18.135  1.00  0.00    -0.015 C 
ATOM     28  C   UNL     1      11.495  -6.849 -16.793  1.00  0.00     0.007 C 
ATOM     29  C   UNL     1      10.487  -7.626 -18.958  1.00  0.00     0.007 C 
ENDBRANCH  26  27
ENDBRANCH  25  26
BRANCH  25  30
ATOM     30  C   UNL     1       9.971  -3.719 -15.980  1.00  0.00     0.243 C 
ATOM     31  O   UNL     1      10.869  -3.342 -15.229  1.00  0.00    -0.273 OA
ATOM     32  N   UNL     1       8.696  -3.965 -15.538  1.00  0.00    -0.342 N 
ATOM     33  H   UNL     1       7.975  -4.137 -16.243  1.00  0.00     0.164 HD
BRANCH  32  34
ATOM     34  C   UNL     1       8.292  -3.823 -14.136  1.00  0.00     0.175 C 
BRANCH  34  35
ATOM     35  C   UNL     1       8.261  -2.347 -13.711  1.00  0.00     0.070 C 
BRANCH  35  36
ATOM     36  C   UNL     1       9.071  -2.081 -12.461  1.00  0.00    -0.045 A 
ATOM     37  C   UNL     1       8.665  -2.625 -11.233  1.00  0.00     0.007 A 
ATOM     38  C   UNL     1      10.216  -1.276 -12.505  1.00  0.00     0.007 A 
ATOM     39  C   UNL     1       9.398  -2.374 -10.073  1.00  0.00     0.046 A 
ATOM     40  C   UNL     1      10.950  -1.023 -11.343  1.00  0.00     0.046 A 
ATOM     41  C   UNL     1      10.534  -1.576 -10.137  1.00  0.00     0.115 A 
BRANCH  41  42
ATOM     42  O   UNL     1      11.220  -1.353  -8.980  1.00  0.00    -0.508 OA
ATOM     43  H   UNL     1      10.600  -1.439  -8.237  1.00  0.00     0.293 HD
ENDBRANCH  41  42
ENDBRANCH  35  36
ENDBRANCH  34  35
BRANCH  34  44
ATOM     44  C   UNL     1       6.916  -4.503 -13.964  1.00  0.00     0.243 C 
ATOM     45  O   UNL     1       6.733  -5.716 -13.993  1.00  0.00    -0.273 OA
ATOM     46  N   UNL     1       5.867  -3.610 -13.900  1.00  0.00    -0.341 N 
ATOM     47  H   UNL     1       6.058  -2.616 -13.998  1.00  0.00     0.164 HD
BRANCH  46  48
ATOM     48  C   UNL     1       4.464  -4.020 -13.805  1.00  0.00     0.196 C 
BRANCH  48  49
ATOM     49  C   UNL     1       3.614  -2.951 -13.098  1.00  0.00     0.072 C 
BRANCH  49  50
ATOM     50  C   UNL     1       3.472  -3.209 -11.615  1.00  0.00    -0.045 A 
ATOM     51  C   UNL     1       4.611  -3.227 -10.796  1.00  0.00     0.007 A 
ATOM     52  C   UNL     1       2.217  -3.452 -11.043  1.00  0.00     0.007 A 
ATOM     53  C   UNL     1       4.493  -3.477  -9.429  1.00  0.00     0.046 A 
ATOM     54  C   UNL     1       2.099  -3.703  -9.674  1.00  0.00     0.046 A 
ATOM     55  C   UNL     1       3.240  -3.712  -8.878  1.00  0.00     0.115 A 
BRANCH  55  56
ATOM     56  O   UNL     1       3.168  -3.954  -7.538  1.00  0.00    -0.508 OA
ATOM     57  H   UNL     1       3.527  -3.184  -7.068  1.00  0.00     0.293 HD
ENDBRANCH  55  56
ENDBRANCH  49  50
ENDBRANCH  48  49
BRANCH  48  58
ATOM     58  C   UNL     1       3.917  -4.259 -15.219  1.00  0.00     0.326 C 
ATOM     59  O   UNL     1       2.926  -4.901 -15.530  1.00  0.00    -0.250 OA
BRANCH  58  60
ATOM     60  O   UNL     1       4.647  -3.658 -16.191  1.00  0.00    -0.480 OA
ATOM     61  H   UNL     1       5.447  -4.223 -16.256  1.00  0.00     0.296 HD
ENDBRANCH  58  60
ENDBRANCH  48  58
ENDBRANCH  46  48
ENDBRANCH  34  44
ENDBRANCH  32  34
ENDBRANCH  25  30
ENDBRANCH  23  25
ENDBRANCH   2  23
TORSDOF 28
ENDMDL
MODEL 20
REMARK VINA RESULT:    -5.026      1.749      2.791
REMARK INTER + INTRA:         -20.445
REMARK INTER:                 -13.059
REMARK INTRA:                  -7.386
REMARK UNBOUND:                -7.927
REMARK SMILES CCCCCCC[C@H](N)[C@H](O)C(=O)N[C@H](C)C(=O)N(C)[C@H](CC(C)C)C(=O)N[C@@H](Cc1ccc(O)cc1)C(=O)N[C@@H](Cc1ccc(O)cc1)C(=O)O
REMARK SMILES IDX 18 1 17 2 15 3 16 4 14 5 12 6 13 7 10 9 11 10 8 12 9 13 7 16
REMARK SMILES IDX 6 17 5 18 4 19 3 20 2 21 1 22 19 23 20 24 21 25 22 26 23 27
REMARK SMILES IDX 24 28 25 29 26 30 27 31 28 32 29 34 30 35 31 36 32 37 37 38
REMARK SMILES IDX 33 39 36 40 34 41 35 42 38 44 39 45 40 46 41 48 42 49 43 50
REMARK SMILES IDX 44 51 49 52 45 53 48 54 46 55 47 56 50 58 51 59 52 60
REMARK H PARENT 14 8 11 11 9 14 9 15 28 33 35 43 40 47 47 57 52 61
ROOT
ATOM      1  O   UNL     1       9.576  -5.692 -15.878  1.00  0.00    -0.272 OA
ATOM      2  C   UNL     1       9.841  -4.698 -16.570  1.00  0.00     0.245 C 
ENDROOT
BRANCH   2   3
ATOM      3  C   UNL     1       8.787  -4.205 -17.593  1.00  0.00     0.168 C 
ATOM      4  C   UNL     1       8.559  -5.249 -18.681  1.00  0.00     0.041 C 
BRANCH   3   5
ATOM      5  N   UNL     1       7.536  -3.748 -17.009  1.00  0.00    -0.342 N 
ATOM      6  C   UNL     1       6.867  -2.643 -17.494  1.00  0.00     0.251 C 
ATOM      7  O   UNL     1       7.288  -1.946 -18.411  1.00  0.00    -0.272 OA
ATOM      8  H   UNL     1       7.106  -4.226 -16.221  1.00  0.00     0.164 HD
BRANCH   6   9
ATOM      9  C   UNL     1       5.502  -2.432 -16.820  1.00  0.00     0.219 C 
BRANCH   9  10
ATOM     10  O   UNL     1       4.903  -3.660 -16.387  1.00  0.00    -0.382 OA
ATOM     11  H   UNL     1       5.623  -4.319 -16.497  1.00  0.00     0.211 HD
ENDBRANCH   9  10
BRANCH   9  12
ATOM     12  C   UNL     1       5.547  -1.403 -15.660  1.00  0.00     0.089 C 
BRANCH  12  13
ATOM     13  N   UNL     1       6.966  -1.122 -15.341  1.00  0.00    -0.325 NA
ATOM     14  H   UNL     1       7.554  -1.440 -16.113  1.00  0.00     0.119 HD
ATOM     15  H   UNL     1       7.245  -1.694 -14.540  1.00  0.00     0.119 HD
ENDBRANCH  12  13
BRANCH  12  16
ATOM     16  C   UNL     1       4.783  -0.079 -15.898  1.00  0.00     0.022 C 
BRANCH  16  17
ATOM     17  C   UNL     1       3.477   0.177 -15.135  1.00  0.00     0.002 C 
BRANCH  17  18
ATOM     18  C   UNL     1       3.598   0.124 -13.613  1.00  0.00     0.000 C 
BRANCH  18  19
ATOM     19  C   UNL     1       4.601   1.129 -13.031  1.00  0.00    -0.000 C 
BRANCH  19  20
ATOM     20  C   UNL     1       5.588   0.547 -12.015  1.00  0.00    -0.000 C 
BRANCH  20  21
ATOM     21  C   UNL     1       5.375   1.085 -10.597  1.00  0.00    -0.003 C 
ATOM     22  C   UNL     1       4.545   0.125  -9.759  1.00  0.00     0.004 C 
ENDBRANCH  20  21
ENDBRANCH  19  20
ENDBRANCH  18  19
ENDBRANCH  17  18
ENDBRANCH  16  17
ENDBRANCH  12  16
ENDBRANCH   9  12
ENDBRANCH   6   9
ENDBRANCH   3   5
ENDBRANCH   2   3
BRANCH   2  23
ATOM     23  N   UNL     1      11.007  -3.977 -16.335  1.00  0.00    -0.332 N 
ATOM     24  C   UNL     1      12.328  -4.570 -16.188  1.00  0.00     0.147 C 
BRANCH  23  25
ATOM     25  C   UNL     1      10.986  -2.489 -16.346  1.00  0.00     0.174 C 
BRANCH  25  26
ATOM     26  C   UNL     1      12.078  -1.878 -17.256  1.00  0.00     0.038 C 
BRANCH  26  27
ATOM     27  C   UNL     1      11.686  -1.586 -18.721  1.00  0.00    -0.015 C 
ATOM     28  C   UNL     1      11.663  -2.848 -19.583  1.00  0.00     0.007 C 
ATOM     29  C   UNL     1      10.372  -0.819 -18.857  1.00  0.00     0.007 C 
ENDBRANCH  26  27
ENDBRANCH  25  26
BRANCH  25  30
ATOM     30  C   UNL     1      11.006  -1.945 -14.899  1.00  0.00     0.243 C 
ATOM     31  O   UNL     1      12.029  -1.489 -14.391  1.00  0.00    -0.273 OA
ATOM     32  N   UNL     1       9.815  -2.011 -14.224  1.00  0.00    -0.342 N 
ATOM     33  H   UNL     1       8.981  -2.270 -14.758  1.00  0.00     0.164 HD
BRANCH  32  34
ATOM     34  C   UNL     1       9.654  -1.568 -12.836  1.00  0.00     0.175 C 
BRANCH  34  35
ATOM     35  C   UNL     1       9.222  -0.095 -12.767  1.00  0.00     0.070 C 
BRANCH  35  36
ATOM     36  C   UNL     1       9.659   0.583 -11.488  1.00  0.00    -0.045 A 
ATOM     37  C   UNL     1       8.989   1.730 -11.037  1.00  0.00     0.007 A 
ATOM     38  C   UNL     1      10.745   0.094 -10.750  1.00  0.00     0.007 A 
ATOM     39  C   UNL     1       9.394   2.371  -9.866  1.00  0.00     0.046 A 
ATOM     40  C   UNL     1      11.152   0.735  -9.577  1.00  0.00     0.046 A 
ATOM     41  C   UNL     1      10.471   1.868  -9.145  1.00  0.00     0.115 A 
BRANCH  41  42
ATOM     42  O   UNL     1      10.836   2.525  -8.007  1.00  0.00    -0.508 OA
ATOM     43  H   UNL     1      11.805   2.585  -7.989  1.00  0.00     0.293 HD
ENDBRANCH  41  42
ENDBRANCH  35  36
ENDBRANCH  34  35
BRANCH  34  44
ATOM     44  C   UNL     1       8.632  -2.502 -12.151  1.00  0.00     0.243 C 
ATOM     45  O   UNL     1       8.827  -3.081 -11.086  1.00  0.00    -0.273 OA
ATOM     46  N   UNL     1       7.508  -2.740 -12.913  1.00  0.00    -0.341 N 
ATOM     47  H   UNL     1       7.445  -2.329 -13.841  1.00  0.00     0.164 HD
BRANCH  46  48
ATOM     48  C   UNL     1       6.432  -3.645 -12.502  1.00  0.00     0.196 C 
BRANCH  48  49
ATOM     49  C   UNL     1       5.105  -2.889 -12.316  1.00  0.00     0.072 C 
BRANCH  49  50
ATOM     50  C   UNL     1       4.397  -3.265 -11.034  1.00  0.00    -0.045 A 
ATOM     51  C   UNL     1       3.003  -3.141 -10.943  1.00  0.00     0.007 A 
ATOM     52  C   UNL     1       5.115  -3.719  -9.920  1.00  0.00     0.007 A 
ATOM     53  C   UNL     1       2.340  -3.472  -9.761  1.00  0.00     0.046 A 
ATOM     54  C   UNL     1       4.452  -4.049  -8.736  1.00  0.00     0.046 A 
ATOM     55  C   UNL     1       3.068  -3.924  -8.668  1.00  0.00     0.115 A 
BRANCH  55  56
ATOM     56  O   UNL     1       2.383  -4.235  -7.531  1.00  0.00    -0.508 OA
ATOM     57  H   UNL     1       1.834  -3.473  -7.286  1.00  0.00     0.293 HD
ENDBRANCH  55  56
ENDBRANCH  49  50
ENDBRANCH  48  49
BRANCH  48  58
ATOM     58  C   UNL     1       6.259  -4.732 -13.572  1.00  0.00     0.326 C 
ATOM     59  O   UNL     1       5.224  -5.291 -13.897  1.00  0.00    -0.250 OA
BRANCH  58  60
ATOM     60  O   UNL     1       7.416  -5.061 -14.201  1.00  0.00    -0.480 OA
ATOM     61  H   UNL     1       7.847  -5.680 -13.573  1.00  0.00     0.296 HD
ENDBRANCH  58  60
ENDBRANCH  48  58
ENDBRANCH  46  48
ENDBRANCH  34  44
ENDBRANCH  32  34
ENDBRANCH  25  30
ENDBRANCH  23  25
ENDBRANCH   2  23
TORSDOF 28
ENDMDL
MODEL 21
REMARK VINA RESULT:    -5.019      2.264      7.269
REMARK INTER + INTRA:         -20.428
REMARK INTER:                 -13.521
REMARK INTRA:                  -6.908
REMARK UNBOUND:                -7.927
REMARK SMILES CCCCCCC[C@H](N)[C@H](O)C(=O)N[C@H](C)C(=O)N(C)[C@H](CC(C)C)C(=O)N[C@@H](Cc1ccc(O)cc1)C(=O)N[C@@H](Cc1ccc(O)cc1)C(=O)O
REMARK SMILES IDX 18 1 17 2 15 3 16 4 14 5 12 6 13 7 10 9 11 10 8 12 9 13 7 16
REMARK SMILES IDX 6 17 5 18 4 19 3 20 2 21 1 22 19 23 20 24 21 25 22 26 23 27
REMARK SMILES IDX 24 28 25 29 26 30 27 31 28 32 29 34 30 35 31 36 32 37 37 38
REMARK SMILES IDX 33 39 36 40 34 41 35 42 38 44 39 45 40 46 41 48 42 49 43 50
REMARK SMILES IDX 44 51 49 52 45 53 48 54 46 55 47 56 50 58 51 59 52 60
REMARK H PARENT 14 8 11 11 9 14 9 15 28 33 35 43 40 47 47 57 52 61
ROOT
ATOM      1  O   UNL     1       1.919  -4.203 -11.693  1.00  0.00    -0.272 OA
ATOM      2  C   UNL     1       2.323  -3.515 -12.642  1.00  0.00     0.245 C 
ENDROOT
BRANCH   2   3
ATOM      3  C   UNL     1       2.682  -4.224 -13.971  1.00  0.00     0.168 C 
ATOM      4  C   UNL     1       1.420  -4.646 -14.717  1.00  0.00     0.041 C 
BRANCH   3   5
ATOM      5  N   UNL     1       3.598  -3.488 -14.829  1.00  0.00    -0.342 N 
ATOM      6  C   UNL     1       4.666  -4.101 -15.448  1.00  0.00     0.251 C 
ATOM      7  O   UNL     1       4.949  -5.285 -15.295  1.00  0.00    -0.272 OA
ATOM      8  H   UNL     1       3.486  -2.492 -15.004  1.00  0.00     0.164 HD
BRANCH   6   9
ATOM      9  C   UNL     1       5.410  -3.165 -16.414  1.00  0.00     0.219 C 
BRANCH   9  10
ATOM     10  O   UNL     1       5.126  -1.782 -16.173  1.00  0.00    -0.382 OA
ATOM     11  H   UNL     1       5.472  -1.332 -16.974  1.00  0.00     0.211 HD
ENDBRANCH   9  10
BRANCH   9  12
ATOM     12  C   UNL     1       6.941  -3.416 -16.448  1.00  0.00     0.089 C 
BRANCH  12  13
ATOM     13  N   UNL     1       7.372  -3.855 -15.101  1.00  0.00    -0.325 NA
ATOM     14  H   UNL     1       8.384  -3.996 -15.101  1.00  0.00     0.119 HD
ATOM     15  H   UNL     1       6.974  -4.777 -14.910  1.00  0.00     0.119 HD
ENDBRANCH  12  13
BRANCH  12  16
ATOM     16  C   UNL     1       7.441  -4.415 -17.518  1.00  0.00     0.022 C 
BRANCH  16  17
ATOM     17  C   UNL     1       8.875  -4.284 -18.050  1.00  0.00     0.002 C 
BRANCH  17  18
ATOM     18  C   UNL     1       9.439  -2.865 -18.039  1.00  0.00     0.000 C 
BRANCH  18  19
ATOM     19  C   UNL     1      10.787  -2.734 -17.319  1.00  0.00    -0.000 C 
BRANCH  19  20
ATOM     20  C   UNL     1      10.958  -3.635 -16.092  1.00  0.00    -0.000 C 
BRANCH  20  21
ATOM     21  C   UNL     1      12.164  -4.572 -16.200  1.00  0.00    -0.003 C 
ATOM     22  C   UNL     1      11.734  -6.031 -16.198  1.00  0.00     0.004 C 
ENDBRANCH  20  21
ENDBRANCH  19  20
ENDBRANCH  18  19
ENDBRANCH  17  18
ENDBRANCH  16  17
ENDBRANCH  12  16
ENDBRANCH   9  12
ENDBRANCH   6   9
ENDBRANCH   3   5
ENDBRANCH   2   3
BRANCH   2  23
ATOM     23  N   UNL     1       2.331  -2.127 -12.542  1.00  0.00    -0.332 N 
ATOM     24  C   UNL     1       1.295  -1.255 -13.074  1.00  0.00     0.147 C 
BRANCH  23  25
ATOM     25  C   UNL     1       3.381  -1.439 -11.741  1.00  0.00     0.174 C 
BRANCH  25  26
ATOM     26  C   UNL     1       2.844  -0.203 -10.980  1.00  0.00     0.038 C 
BRANCH  26  27
ATOM     27  C   UNL     1       2.642  -0.354  -9.456  1.00  0.00    -0.015 C 
ATOM     28  C   UNL     1       1.315  -1.028  -9.106  1.00  0.00     0.007 C 
ATOM     29  C   UNL     1       3.802  -1.055  -8.756  1.00  0.00     0.007 C 
ENDBRANCH  26  27
ENDBRANCH  25  26
BRANCH  25  30
ATOM     30  C   UNL     1       4.612  -1.137 -12.626  1.00  0.00     0.243 C 
ATOM     31  O   UNL     1       4.499  -0.700 -13.770  1.00  0.00    -0.273 OA
ATOM     32  N   UNL     1       5.831  -1.394 -12.053  1.00  0.00    -0.342 N 
ATOM     33  H   UNL     1       5.848  -1.619 -11.055  1.00  0.00     0.164 HD
BRANCH  32  34
ATOM     34  C   UNL     1       7.104  -1.194 -12.752  1.00  0.00     0.175 C 
BRANCH  34  35
ATOM     35  C   UNL     1       7.547   0.276 -12.696  1.00  0.00     0.070 C 
BRANCH  35  36
ATOM     36  C   UNL     1       7.767   0.873 -14.068  1.00  0.00    -0.045 A 
ATOM     37  C   UNL     1       7.750   2.266 -14.238  1.00  0.00     0.007 A 
ATOM     38  C   UNL     1       7.968   0.052 -15.186  1.00  0.00     0.007 A 
ATOM     39  C   UNL     1       7.938   2.825 -15.502  1.00  0.00     0.046 A 
ATOM     40  C   UNL     1       8.156   0.612 -16.452  1.00  0.00     0.046 A 
ATOM     41  C   UNL     1       8.141   1.995 -16.598  1.00  0.00     0.115 A 
BRANCH  41  42
ATOM     42  O   UNL     1       8.318   2.581 -17.816  1.00  0.00    -0.508 OA
ATOM     43  H   UNL     1       7.445   2.705 -18.225  1.00  0.00     0.293 HD
ENDBRANCH  41  42
ENDBRANCH  35  36
ENDBRANCH  34  35
BRANCH  34  44
ATOM     44  C   UNL     1       8.151  -2.138 -12.120  1.00  0.00     0.243 C 
ATOM     45  O   UNL     1       8.122  -3.362 -12.202  1.00  0.00    -0.273 OA
ATOM     46  N   UNL     1       9.071  -1.484 -11.328  1.00  0.00    -0.341 N 
ATOM     47  H   UNL     1       8.984  -0.479 -11.196  1.00  0.00     0.164 HD
BRANCH  46  48
ATOM     48  C   UNL     1      10.118  -2.174 -10.571  1.00  0.00     0.196 C 
BRANCH  48  49
ATOM     49  C   UNL     1      11.517  -1.677 -10.970  1.00  0.00     0.072 C 
BRANCH  49  50
ATOM     50  C   UNL     1      11.485  -0.732 -12.150  1.00  0.00    -0.045 A 
ATOM     51  C   UNL     1      11.680  -1.227 -13.447  1.00  0.00     0.007 A 
ATOM     52  C   UNL     1      11.283   0.642 -11.968  1.00  0.00     0.007 A 
ATOM     53  C   UNL     1      11.665  -0.364 -14.543  1.00  0.00     0.046 A 
ATOM     54  C   UNL     1      11.269   1.507 -13.064  1.00  0.00     0.046 A 
ATOM     55  C   UNL     1      11.459   0.996 -14.343  1.00  0.00     0.115 A 
BRANCH  55  56
ATOM     56  O   UNL     1      11.454   1.807 -15.440  1.00  0.00    -0.508 OA
ATOM     57  H   UNL     1      11.332   2.722 -15.143  1.00  0.00     0.293 HD
ENDBRANCH  55  56
ENDBRANCH  49  50
ENDBRANCH  48  49
BRANCH  48  58
ATOM     58  C   UNL     1       9.893  -1.931  -9.072  1.00  0.00     0.326 C 
ATOM     59  O   UNL     1       8.949  -2.305  -8.396  1.00  0.00    -0.250 OA
BRANCH  58  60
ATOM     60  O   UNL     1      10.893  -1.229  -8.482  1.00  0.00    -0.480 OA
ATOM     61  H   UNL     1      10.534  -1.032  -7.589  1.00  0.00     0.296 HD
ENDBRANCH  58  60
ENDBRANCH  48  58
ENDBRANCH  46  48
ENDBRANCH  34  44
ENDBRANCH  32  34
ENDBRANCH  25  30
ENDBRANCH  23  25
ENDBRANCH   2  23
TORSDOF 28
ENDMDL
MODEL 22
REMARK VINA RESULT:    -4.914      1.756      2.859
REMARK INTER + INTRA:         -20.166
REMARK INTER:                 -14.195
REMARK INTRA:                  -5.971
REMARK UNBOUND:                -7.927
REMARK SMILES CCCCCCC[C@H](N)[C@H](O)C(=O)N[C@H](C)C(=O)N(C)[C@H](CC(C)C)C(=O)N[C@@H](Cc1ccc(O)cc1)C(=O)N[C@@H](Cc1ccc(O)cc1)C(=O)O
REMARK SMILES IDX 18 1 17 2 15 3 16 4 14 5 12 6 13 7 10 9 11 10 8 12 9 13 7 16
REMARK SMILES IDX 6 17 5 18 4 19 3 20 2 21 1 22 19 23 20 24 21 25 22 26 23 27
REMARK SMILES IDX 24 28 25 29 26 30 27 31 28 32 29 34 30 35 31 36 32 37 37 38
REMARK SMILES IDX 33 39 36 40 34 41 35 42 38 44 39 45 40 46 41 48 42 49 43 50
REMARK SMILES IDX 44 51 49 52 45 53 48 54 46 55 47 56 50 58 51 59 52 60
REMARK H PARENT 14 8 11 11 9 14 9 15 28 33 35 43 40 47 47 57 52 61
ROOT
ATOM      1  O   UNL     1      11.997  -4.373 -15.481  1.00  0.00    -0.272 OA
ATOM      2  C   UNL     1      11.245  -3.739 -16.236  1.00  0.00     0.245 C 
ENDROOT
BRANCH   2   3
ATOM      3  C   UNL     1      10.034  -4.474 -16.864  1.00  0.00     0.168 C 
ATOM      4  C   UNL     1      10.127  -5.976 -16.621  1.00  0.00     0.041 C 
BRANCH   3   5
ATOM      5  N   UNL     1       8.734  -3.943 -16.485  1.00  0.00    -0.342 N 
ATOM      6  C   UNL     1       7.684  -3.884 -17.376  1.00  0.00     0.251 C 
ATOM      7  O   UNL     1       7.773  -4.228 -18.550  1.00  0.00    -0.272 OA
ATOM      8  H   UNL     1       8.550  -3.595 -15.547  1.00  0.00     0.164 HD
BRANCH   6   9
ATOM      9  C   UNL     1       6.373  -3.422 -16.720  1.00  0.00     0.219 C 
BRANCH   9  10
ATOM     10  O   UNL     1       5.573  -2.614 -17.592  1.00  0.00    -0.382 OA
ATOM     11  H   UNL     1       5.007  -3.268 -18.059  1.00  0.00     0.211 HD
ENDBRANCH   9  10
BRANCH   9  12
ATOM     12  C   UNL     1       5.539  -4.593 -16.136  1.00  0.00     0.089 C 
BRANCH  12  13
ATOM     13  N   UNL     1       6.457  -5.717 -15.839  1.00  0.00    -0.325 NA
ATOM     14  H   UNL     1       7.004  -5.492 -15.006  1.00  0.00     0.119 HD
ATOM     15  H   UNL     1       7.141  -5.794 -16.595  1.00  0.00     0.119 HD
ENDBRANCH  12  13
BRANCH  12  16
ATOM     16  C   UNL     1       4.684  -4.261 -14.890  1.00  0.00     0.022 C 
BRANCH  16  17
ATOM     17  C   UNL     1       4.324  -2.797 -14.600  1.00  0.00     0.002 C 
BRANCH  17  18
ATOM     18  C   UNL     1       2.960  -2.587 -13.946  1.00  0.00     0.000 C 
BRANCH  18  19
ATOM     19  C   UNL     1       2.323  -3.873 -13.401  1.00  0.00    -0.000 C 
BRANCH  19  20
ATOM     20  C   UNL     1       1.203  -3.661 -12.379  1.00  0.00    -0.000 C 
BRANCH  20  21
ATOM     21  C   UNL     1       1.710  -3.606 -10.936  1.00  0.00    -0.003 C 
ATOM     22  C   UNL     1       1.767  -2.176 -10.422  1.00  0.00     0.004 C 
ENDBRANCH  20  21
ENDBRANCH  19  20
ENDBRANCH  18  19
ENDBRANCH  17  18
ENDBRANCH  16  17
ENDBRANCH  12  16
ENDBRANCH   9  12
ENDBRANCH   6   9
ENDBRANCH   3   5
ENDBRANCH   2   3
BRANCH   2  23
ATOM     23  N   UNL     1      11.425  -2.371 -16.408  1.00  0.00    -0.332 N 
ATOM     24  C   UNL     1      12.399  -1.773 -17.308  1.00  0.00     0.147 C 
BRANCH  23  25
ATOM     25  C   UNL     1      10.506  -1.404 -15.746  1.00  0.00     0.174 C 
BRANCH  25  26
ATOM     26  C   UNL     1      10.356  -0.081 -16.534  1.00  0.00     0.038 C 
BRANCH  26  27
ATOM     27  C   UNL     1       9.052   0.720 -16.315  1.00  0.00    -0.015 C 
ATOM     28  C   UNL     1       7.842  -0.185 -16.084  1.00  0.00     0.007 C 
ATOM     29  C   UNL     1       9.161   1.765 -15.208  1.00  0.00     0.007 C 
ENDBRANCH  26  27
ENDBRANCH  25  26
BRANCH  25  30
ATOM     30  C   UNL     1      10.917  -1.205 -14.269  1.00  0.00     0.243 C 
ATOM     31  O   UNL     1      12.075  -0.948 -13.946  1.00  0.00    -0.273 OA
ATOM     32  N   UNL     1       9.908  -1.339 -13.350  1.00  0.00    -0.342 N 
ATOM     33  H   UNL     1       8.951  -1.411 -13.704  1.00  0.00     0.164 HD
BRANCH  32  34
ATOM     34  C   UNL     1      10.118  -1.211 -11.905  1.00  0.00     0.175 C 
BRANCH  34  35
ATOM     35  C   UNL     1       9.800   0.211 -11.418  1.00  0.00     0.070 C 
BRANCH  35  36
ATOM     36  C   UNL     1       9.868   0.343  -9.914  1.00  0.00    -0.045 A 
ATOM     37  C   UNL     1       8.695   0.551  -9.173  1.00  0.00     0.007 A 
ATOM     38  C   UNL     1      11.097   0.284  -9.242  1.00  0.00     0.007 A 
ATOM     39  C   UNL     1       8.750   0.687  -7.785  1.00  0.00     0.046 A 
ATOM     40  C   UNL     1      11.153   0.422  -7.853  1.00  0.00     0.046 A 
ATOM     41  C   UNL     1       9.977   0.621  -7.137  1.00  0.00     0.115 A 
BRANCH  41  42
ATOM     42  O   UNL     1       9.988   0.763  -5.781  1.00  0.00    -0.508 OA
ATOM     43  H   UNL     1       9.078   0.930  -5.485  1.00  0.00     0.293 HD
ENDBRANCH  41  42
ENDBRANCH  35  36
ENDBRANCH  34  35
BRANCH  34  44
ATOM     44  C   UNL     1       9.246  -2.272 -11.199  1.00  0.00     0.243 C 
ATOM     45  O   UNL     1       9.505  -2.768 -10.106  1.00  0.00    -0.273 OA
ATOM     46  N   UNL     1       8.195  -2.722 -11.971  1.00  0.00    -0.341 N 
ATOM     47  H   UNL     1       8.090  -2.364 -12.917  1.00  0.00     0.164 HD
BRANCH  46  48
ATOM     48  C   UNL     1       7.272  -3.774 -11.542  1.00  0.00     0.196 C 
BRANCH  48  49
ATOM     49  C   UNL     1       5.835  -3.242 -11.415  1.00  0.00     0.072 C 
BRANCH  49  50
ATOM     50  C   UNL     1       5.399  -3.079  -9.977  1.00  0.00    -0.045 A 
ATOM     51  C   UNL     1       4.749  -4.133  -9.319  1.00  0.00     0.007 A 
ATOM     52  C   UNL     1       5.617  -1.878  -9.289  1.00  0.00     0.007 A 
ATOM     53  C   UNL     1       4.330  -3.989  -7.997  1.00  0.00     0.046 A 
ATOM     54  C   UNL     1       5.197  -1.733  -7.965  1.00  0.00     0.046 A 
ATOM     55  C   UNL     1       4.558  -2.792  -7.329  1.00  0.00     0.115 A 
BRANCH  55  56
ATOM     56  O   UNL     1       4.132  -2.692  -6.038  1.00  0.00    -0.508 OA
ATOM     57  H   UNL     1       4.075  -3.586  -5.664  1.00  0.00     0.293 HD
ENDBRANCH  55  56
ENDBRANCH  49  50
ENDBRANCH  48  49
BRANCH  48  58
ATOM     58  C   UNL     1       7.309  -4.918 -12.564  1.00  0.00     0.326 C 
ATOM     59  O   UNL     1       6.668  -5.956 -12.536  1.00  0.00    -0.250 OA
BRANCH  58  60
ATOM     60  O   UNL     1       8.155  -4.691 -13.600  1.00  0.00    -0.480 OA
ATOM     61  H   UNL     1       7.670  -4.037 -14.149  1.00  0.00     0.296 HD
ENDBRANCH  58  60
ENDBRANCH  48  58
ENDBRANCH  46  48
ENDBRANCH  34  44
ENDBRANCH  32  34
ENDBRANCH  25  30
ENDBRANCH  23  25
ENDBRANCH   2  23
TORSDOF 28
ENDMDL
MODEL 23
REMARK VINA RESULT:    -4.888      1.998      3.832
REMARK INTER + INTRA:         -20.100
REMARK INTER:                 -12.845
REMARK INTRA:                  -7.255
REMARK UNBOUND:                -7.927
REMARK SMILES CCCCCCC[C@H](N)[C@H](O)C(=O)N[C@H](C)C(=O)N(C)[C@H](CC(C)C)C(=O)N[C@@H](Cc1ccc(O)cc1)C(=O)N[C@@H](Cc1ccc(O)cc1)C(=O)O
REMARK SMILES IDX 18 1 17 2 15 3 16 4 14 5 12 6 13 7 10 9 11 10 8 12 9 13 7 16
REMARK SMILES IDX 6 17 5 18 4 19 3 20 2 21 1 22 19 23 20 24 21 25 22 26 23 27
REMARK SMILES IDX 24 28 25 29 26 30 27 31 28 32 29 34 30 35 31 36 32 37 37 38
REMARK SMILES IDX 33 39 36 40 34 41 35 42 38 44 39 45 40 46 41 48 42 49 43 50
REMARK SMILES IDX 44 51 49 52 45 53 48 54 46 55 47 56 50 58 51 59 52 60
REMARK H PARENT 14 8 11 11 9 14 9 15 28 33 35 43 40 47 47 57 52 61
ROOT
ATOM      1  O   UNL     1       5.834  -3.450 -16.992  1.00  0.00    -0.272 OA
ATOM      2  C   UNL     1       6.710  -2.582 -17.122  1.00  0.00     0.245 C 
ENDROOT
BRANCH   2   3
ATOM      3  C   UNL     1       6.281  -1.093 -17.142  1.00  0.00     0.168 C 
ATOM      4  C   UNL     1       4.922  -0.930 -17.814  1.00  0.00     0.041 C 
BRANCH   3   5
ATOM      5  N   UNL     1       6.330  -0.426 -15.851  1.00  0.00    -0.342 N 
ATOM      6  C   UNL     1       6.467   0.942 -15.743  1.00  0.00     0.251 C 
ATOM      7  O   UNL     1       6.598   1.687 -16.708  1.00  0.00    -0.272 OA
ATOM      8  H   UNL     1       6.267  -0.943 -14.977  1.00  0.00     0.164 HD
BRANCH   6   9
ATOM      9  C   UNL     1       6.352   1.439 -14.293  1.00  0.00     0.219 C 
BRANCH   9  10
ATOM     10  O   UNL     1       7.114   2.628 -14.053  1.00  0.00    -0.382 OA
ATOM     11  H   UNL     1       6.445   3.269 -13.726  1.00  0.00     0.211 HD
ENDBRANCH   9  10
BRANCH   9  12
ATOM     12  C   UNL     1       4.884   1.622 -13.827  1.00  0.00     0.089 C 
BRANCH  12  13
ATOM     13  N   UNL     1       3.988   1.242 -14.943  1.00  0.00    -0.325 NA
ATOM     14  H   UNL     1       3.173   1.857 -14.944  1.00  0.00     0.119 HD
ATOM     15  H   UNL     1       3.616   0.306 -14.765  1.00  0.00     0.119 HD
ENDBRANCH  12  13
BRANCH  12  16
ATOM     16  C   UNL     1       4.481   0.864 -12.540  1.00  0.00     0.022 C 
BRANCH  16  17
ATOM     17  C   UNL     1       3.641   1.587 -11.478  1.00  0.00     0.002 C 
BRANCH  17  18
ATOM     18  C   UNL     1       2.198   1.103 -11.358  1.00  0.00     0.000 C 
BRANCH  18  19
ATOM     19  C   UNL     1       1.206   1.868 -12.244  1.00  0.00    -0.000 C 
BRANCH  19  20
ATOM     20  C   UNL     1       0.317   0.991 -13.131  1.00  0.00    -0.000 C 
BRANCH  20  21
ATOM     21  C   UNL     1       0.130  -0.425 -12.579  1.00  0.00    -0.003 C 
ATOM     22  C   UNL     1       0.259  -1.469 -13.677  1.00  0.00     0.004 C 
ENDBRANCH  20  21
ENDBRANCH  19  20
ENDBRANCH  18  19
ENDBRANCH  17  18
ENDBRANCH  16  17
ENDBRANCH  12  16
ENDBRANCH   9  12
ENDBRANCH   6   9
ENDBRANCH   3   5
ENDBRANCH   2   3
BRANCH   2  23
ATOM     23  N   UNL     1       8.053  -2.943 -17.124  1.00  0.00    -0.332 N 
ATOM     24  C   UNL     1       8.750  -3.524 -18.262  1.00  0.00     0.147 C 
BRANCH  23  25
ATOM     25  C   UNL     1       8.917  -2.627 -15.954  1.00  0.00     0.174 C 
BRANCH  25  26
ATOM     26  C   UNL     1      10.417  -2.535 -16.322  1.00  0.00     0.038 C 
BRANCH  26  27
ATOM     27  C   UNL     1      11.148  -1.223 -15.958  1.00  0.00    -0.015 C 
ATOM     28  C   UNL     1      10.187  -0.126 -15.501  1.00  0.00     0.007 C 
ATOM     29  C   UNL     1      12.268  -1.415 -14.938  1.00  0.00     0.007 C 
ENDBRANCH  26  27
ENDBRANCH  25  26
BRANCH  25  30
ATOM     30  C   UNL     1       8.621  -3.604 -14.794  1.00  0.00     0.243 C 
ATOM     31  O   UNL     1       8.731  -4.822 -14.925  1.00  0.00    -0.273 OA
ATOM     32  N   UNL     1       8.222  -3.024 -13.617  1.00  0.00    -0.342 N 
ATOM     33  H   UNL     1       8.291  -2.005 -13.544  1.00  0.00     0.164 HD
BRANCH  32  34
ATOM     34  C   UNL     1       7.874  -3.795 -12.421  1.00  0.00     0.175 C 
BRANCH  34  35
ATOM     35  C   UNL     1       8.135  -2.987 -11.140  1.00  0.00     0.070 C 
BRANCH  35  36
ATOM     36  C   UNL     1       9.024  -1.787 -11.376  1.00  0.00    -0.045 A 
ATOM     37  C   UNL     1       8.457  -0.553 -11.728  1.00  0.00     0.007 A 
ATOM     38  C   UNL     1      10.417  -1.892 -11.271  1.00  0.00     0.007 A 
ATOM     39  C   UNL     1       9.270   0.557 -11.962  1.00  0.00     0.046 A 
ATOM     40  C   UNL     1      11.232  -0.782 -11.506  1.00  0.00     0.046 A 
ATOM     41  C   UNL     1      10.650   0.434 -11.848  1.00  0.00     0.115 A 
BRANCH  41  42
ATOM     42  O   UNL     1      11.408   1.541 -12.088  1.00  0.00    -0.508 OA
ATOM     43  H   UNL     1      11.480   2.046 -11.261  1.00  0.00     0.293 HD
ENDBRANCH  41  42
ENDBRANCH  35  36
ENDBRANCH  34  35
BRANCH  34  44
ATOM     44  C   UNL     1       6.394  -4.222 -12.541  1.00  0.00     0.243 C 
ATOM     45  O   UNL     1       6.014  -5.385 -12.645  1.00  0.00    -0.273 OA
ATOM     46  N   UNL     1       5.523  -3.159 -12.655  1.00  0.00    -0.341 N 
ATOM     47  H   UNL     1       5.898  -2.214 -12.682  1.00  0.00     0.164 HD
BRANCH  46  48
ATOM     48  C   UNL     1       4.079  -3.317 -12.848  1.00  0.00     0.196 C 
BRANCH  48  49
ATOM     49  C   UNL     1       3.284  -2.443 -11.864  1.00  0.00     0.072 C 
BRANCH  49  50
ATOM     50  C   UNL     1       3.723  -2.636 -10.430  1.00  0.00    -0.045 A 
ATOM     51  C   UNL     1       3.358  -3.799  -9.737  1.00  0.00     0.007 A 
ATOM     52  C   UNL     1       4.475  -1.656  -9.769  1.00  0.00     0.007 A 
ATOM     53  C   UNL     1       3.745  -3.982  -8.410  1.00  0.00     0.046 A 
ATOM     54  C   UNL     1       4.862  -1.838  -8.439  1.00  0.00     0.046 A 
ATOM     55  C   UNL     1       4.494  -3.001  -7.771  1.00  0.00     0.115 A 
BRANCH  55  56
ATOM     56  O   UNL     1       4.851  -3.217  -6.473  1.00  0.00    -0.508 OA
ATOM     57  H   UNL     1       5.785  -2.973  -6.368  1.00  0.00     0.293 HD
ENDBRANCH  55  56
ENDBRANCH  49  50
ENDBRANCH  48  49
BRANCH  48  58
ATOM     58  C   UNL     1       3.723  -2.925 -14.289  1.00  0.00     0.326 C 
ATOM     59  O   UNL     1       3.668  -1.799 -14.757  1.00  0.00    -0.250 OA
BRANCH  58  60
ATOM     60  O   UNL     1       3.461  -3.989 -15.090  1.00  0.00    -0.480 OA
ATOM     61  H   UNL     1       4.173  -4.625 -14.861  1.00  0.00     0.296 HD
ENDBRANCH  58  60
ENDBRANCH  48  58
ENDBRANCH  46  48
ENDBRANCH  34  44
ENDBRANCH  32  34
ENDBRANCH  25  30
ENDBRANCH  23  25
ENDBRANCH   2  23
TORSDOF 28
ENDMDL
MODEL 24
REMARK VINA RESULT:    -4.883      1.468      2.360
REMARK INTER + INTRA:         -20.089
REMARK INTER:                 -13.669
REMARK INTRA:                  -6.420
REMARK UNBOUND:                -7.927
REMARK SMILES CCCCCCC[C@H](N)[C@H](O)C(=O)N[C@H](C)C(=O)N(C)[C@H](CC(C)C)C(=O)N[C@@H](Cc1ccc(O)cc1)C(=O)N[C@@H](Cc1ccc(O)cc1)C(=O)O
REMARK SMILES IDX 18 1 17 2 15 3 16 4 14 5 12 6 13 7 10 9 11 10 8 12 9 13 7 16
REMARK SMILES IDX 6 17 5 18 4 19 3 20 2 21 1 22 19 23 20 24 21 25 22 26 23 27
REMARK SMILES IDX 24 28 25 29 26 30 27 31 28 32 29 34 30 35 31 36 32 37 37 38
REMARK SMILES IDX 33 39 36 40 34 41 35 42 38 44 39 45 40 46 41 48 42 49 43 50
REMARK SMILES IDX 44 51 49 52 45 53 48 54 46 55 47 56 50 58 51 59 52 60
REMARK H PARENT 14 8 11 11 9 14 9 15 28 33 35 43 40 47 47 57 52 61
ROOT
ATOM      1  O   UNL     1      10.506  -5.522 -15.566  1.00  0.00    -0.272 OA
ATOM      2  C   UNL     1      10.322  -4.616 -16.392  1.00  0.00     0.245 C 
ENDROOT
BRANCH   2   3
ATOM      3  C   UNL     1       9.014  -4.625 -17.222  1.00  0.00     0.168 C 
ATOM      4  C   UNL     1       8.951  -5.856 -18.120  1.00  0.00     0.041 C 
BRANCH   3   5
ATOM      5  N   UNL     1       7.795  -4.459 -16.445  1.00  0.00    -0.342 N 
ATOM      6  C   UNL     1       6.796  -3.592 -16.834  1.00  0.00     0.251 C 
ATOM      7  O   UNL     1       6.872  -2.874 -17.825  1.00  0.00    -0.272 OA
ATOM      8  H   UNL     1       7.634  -4.975 -15.583  1.00  0.00     0.164 HD
BRANCH   6   9
ATOM      9  C   UNL     1       5.548  -3.685 -15.942  1.00  0.00     0.219 C 
BRANCH   9  10
ATOM     10  O   UNL     1       5.390  -4.978 -15.346  1.00  0.00    -0.382 OA
ATOM     11  H   UNL     1       5.706  -4.848 -14.425  1.00  0.00     0.211 HD
ENDBRANCH   9  10
BRANCH   9  12
ATOM     12  C   UNL     1       5.483  -2.571 -14.866  1.00  0.00     0.089 C 
BRANCH  12  13
ATOM     13  N   UNL     1       6.823  -1.950 -14.754  1.00  0.00    -0.325 NA
ATOM     14  H   UNL     1       7.228  -2.186 -13.846  1.00  0.00     0.119 HD
ATOM     15  H   UNL     1       6.717  -0.933 -14.743  1.00  0.00     0.119 HD
ENDBRANCH  12  13
BRANCH  12  16
ATOM     16  C   UNL     1       4.408  -1.479 -15.084  1.00  0.00     0.022 C 
BRANCH  16  17
ATOM     17  C   UNL     1       4.772  -0.010 -14.824  1.00  0.00     0.002 C 
BRANCH  17  18
ATOM     18  C   UNL     1       4.284   0.972 -15.887  1.00  0.00     0.000 C 
BRANCH  18  19
ATOM     19  C   UNL     1       2.808   0.795 -16.270  1.00  0.00    -0.000 C 
BRANCH  19  20
ATOM     20  C   UNL     1       2.123   2.053 -16.812  1.00  0.00    -0.000 C 
BRANCH  20  21
ATOM     21  C   UNL     1       0.694   1.795 -17.297  1.00  0.00    -0.003 C 
ATOM     22  C   UNL     1      -0.318   2.595 -16.492  1.00  0.00     0.004 C 
ENDBRANCH  20  21
ENDBRANCH  19  20
ENDBRANCH  18  19
ENDBRANCH  17  18
ENDBRANCH  16  17
ENDBRANCH  12  16
ENDBRANCH   9  12
ENDBRANCH   6   9
ENDBRANCH   3   5
ENDBRANCH   2   3
BRANCH   2  23
ATOM     23  N   UNL     1      11.218  -3.555 -16.474  1.00  0.00    -0.332 N 
ATOM     24  C   UNL     1      12.523  -3.624 -17.114  1.00  0.00     0.147 C 
BRANCH  23  25
ATOM     25  C   UNL     1      10.822  -2.200 -16.001  1.00  0.00     0.174 C 
BRANCH  25  26
ATOM     26  C   UNL     1      11.220  -1.078 -16.989  1.00  0.00     0.038 C 
BRANCH  26  27
ATOM     27  C   UNL     1      10.110  -0.534 -17.915  1.00  0.00    -0.015 C 
ATOM     28  C   UNL     1       9.817  -1.468 -19.088  1.00  0.00     0.007 C 
ATOM     29  C   UNL     1       8.822  -0.180 -17.175  1.00  0.00     0.007 C 
ENDBRANCH  26  27
ENDBRANCH  25  26
BRANCH  25  30
ATOM     30  C   UNL     1      11.332  -1.969 -14.560  1.00  0.00     0.243 C 
ATOM     31  O   UNL     1      12.513  -2.128 -14.255  1.00  0.00    -0.273 OA
ATOM     32  N   UNL     1      10.382  -1.584 -13.649  1.00  0.00    -0.342 N 
ATOM     33  H   UNL     1       9.456  -1.336 -14.007  1.00  0.00     0.164 HD
BRANCH  32  34
ATOM     34  C   UNL     1      10.678  -1.347 -12.234  1.00  0.00     0.175 C 
BRANCH  34  35
ATOM     35  C   UNL     1      10.766   0.156 -11.925  1.00  0.00     0.070 C 
BRANCH  35  36
ATOM     36  C   UNL     1      10.024   1.004 -12.933  1.00  0.00    -0.045 A 
ATOM     37  C   UNL     1       8.624   1.086 -12.887  1.00  0.00     0.007 A 
ATOM     38  C   UNL     1      10.715   1.698 -13.935  1.00  0.00     0.007 A 
ATOM     39  C   UNL     1       7.930   1.855 -13.821  1.00  0.00     0.046 A 
ATOM     40  C   UNL     1      10.020   2.468 -14.872  1.00  0.00     0.046 A 
ATOM     41  C   UNL     1       8.633   2.540 -14.805  1.00  0.00     0.115 A 
BRANCH  41  42
ATOM     42  O   UNL     1       7.917   3.278 -15.700  1.00  0.00    -0.508 OA
ATOM     43  H   UNL     1       8.339   4.149 -15.785  1.00  0.00     0.293 HD
ENDBRANCH  41  42
ENDBRANCH  35  36
ENDBRANCH  34  35
BRANCH  34  44
ATOM     44  C   UNL     1       9.586  -2.046 -11.393  1.00  0.00     0.243 C 
ATOM     45  O   UNL     1       9.579  -2.092 -10.166  1.00  0.00    -0.273 OA
ATOM     46  N   UNL     1       8.669  -2.740 -12.153  1.00  0.00    -0.341 N 
ATOM     47  H   UNL     1       8.785  -2.769 -13.163  1.00  0.00     0.164 HD
BRANCH  46  48
ATOM     48  C   UNL     1       7.582  -3.536 -11.577  1.00  0.00     0.196 C 
BRANCH  48  49
ATOM     49  C   UNL     1       6.299  -2.703 -11.423  1.00  0.00     0.072 C 
BRANCH  49  50
ATOM     50  C   UNL     1       5.694  -2.816 -10.042  1.00  0.00    -0.045 A 
ATOM     51  C   UNL     1       6.027  -1.878  -9.054  1.00  0.00     0.007 A 
ATOM     52  C   UNL     1       4.816  -3.860  -9.723  1.00  0.00     0.007 A 
ATOM     53  C   UNL     1       5.486  -1.980  -7.772  1.00  0.00     0.046 A 
ATOM     54  C   UNL     1       4.275  -3.963  -8.439  1.00  0.00     0.046 A 
ATOM     55  C   UNL     1       4.614  -3.020  -7.475  1.00  0.00     0.115 A 
BRANCH  55  56
ATOM     56  O   UNL     1       4.108  -3.085  -6.210  1.00  0.00    -0.508 OA
ATOM     57  H   UNL     1       4.334  -2.263  -5.748  1.00  0.00     0.293 HD
ENDBRANCH  55  56
ENDBRANCH  49  50
ENDBRANCH  48  49
BRANCH  48  58
ATOM     58  C   UNL     1       7.308  -4.740 -12.488  1.00  0.00     0.326 C 
ATOM     59  O   UNL     1       6.484  -5.623 -12.317  1.00  0.00    -0.250 OA
BRANCH  58  60
ATOM     60  O   UNL     1       8.089  -4.768 -13.597  1.00  0.00    -0.480 OA
ATOM     61  H   UNL     1       8.362  -5.709 -13.658  1.00  0.00     0.296 HD
ENDBRANCH  58  60
ENDBRANCH  48  58
ENDBRANCH  46  48
ENDBRANCH  34  44
ENDBRANCH  32  34
ENDBRANCH  25  30
ENDBRANCH  23  25
ENDBRANCH   2  23
TORSDOF 28
ENDMDL
MODEL 25
REMARK VINA RESULT:    -4.857      3.069      6.428
REMARK INTER + INTRA:         -20.024
REMARK INTER:                 -14.240
REMARK INTRA:                  -5.783
REMARK UNBOUND:                -7.927
REMARK SMILES CCCCCCC[C@H](N)[C@H](O)C(=O)N[C@H](C)C(=O)N(C)[C@H](CC(C)C)C(=O)N[C@@H](Cc1ccc(O)cc1)C(=O)N[C@@H](Cc1ccc(O)cc1)C(=O)O
REMARK SMILES IDX 18 1 17 2 15 3 16 4 14 5 12 6 13 7 10 9 11 10 8 12 9 13 7 16
REMARK SMILES IDX 6 17 5 18 4 19 3 20 2 21 1 22 19 23 20 24 21 25 22 26 23 27
REMARK SMILES IDX 24 28 25 29 26 30 27 31 28 32 29 34 30 35 31 36 32 37 37 38
REMARK SMILES IDX 33 39 36 40 34 41 35 42 38 44 39 45 40 46 41 48 42 49 43 50
REMARK SMILES IDX 44 51 49 52 45 53 48 54 46 55 47 56 50 58 51 59 52 60
REMARK H PARENT 14 8 11 11 9 14 9 15 28 33 35 43 40 47 47 57 52 61
ROOT
ATOM      1  O   UNL     1       3.725  -4.562 -15.852  1.00  0.00    -0.272 OA
ATOM      2  C   UNL     1       4.608  -4.118 -15.104  1.00  0.00     0.245 C 
ENDROOT
BRANCH   2   3
ATOM      3  C   UNL     1       4.196  -3.153 -13.964  1.00  0.00     0.168 C 
ATOM      4  C   UNL     1       5.231  -2.047 -13.790  1.00  0.00     0.041 C 
BRANCH   3   5
ATOM      5  N   UNL     1       2.846  -2.621 -14.071  1.00  0.00    -0.342 N 
ATOM      6  C   UNL     1       1.775  -3.221 -13.444  1.00  0.00     0.251 C 
ATOM      7  O   UNL     1       1.866  -4.256 -12.792  1.00  0.00    -0.272 OA
ATOM      8  H   UNL     1       2.641  -1.786 -14.615  1.00  0.00     0.164 HD
BRANCH   6   9
ATOM      9  C   UNL     1       0.477  -2.409 -13.578  1.00  0.00     0.219 C 
BRANCH   9  10
ATOM     10  O   UNL     1      -0.678  -3.239 -13.750  1.00  0.00    -0.382 OA
ATOM     11  H   UNL     1      -1.401  -2.596 -13.924  1.00  0.00     0.211 HD
ENDBRANCH   9  10
BRANCH   9  12
ATOM     12  C   UNL     1       0.265  -1.404 -12.416  1.00  0.00     0.089 C 
BRANCH  12  13
ATOM     13  N   UNL     1       1.413  -1.513 -11.488  1.00  0.00    -0.325 NA
ATOM     14  H   UNL     1       1.799  -2.458 -11.541  1.00  0.00     0.119 HD
ATOM     15  H   UNL     1       1.074  -1.416 -10.528  1.00  0.00     0.119 HD
ENDBRANCH  12  13
BRANCH  12  16
ATOM     16  C   UNL     1       0.052   0.073 -12.828  1.00  0.00     0.022 C 
BRANCH  16  17
ATOM     17  C   UNL     1       0.277   0.480 -14.290  1.00  0.00     0.002 C 
BRANCH  17  18
ATOM     18  C   UNL     1       1.732   0.749 -14.668  1.00  0.00     0.000 C 
BRANCH  18  19
ATOM     19  C   UNL     1       2.460   1.702 -13.711  1.00  0.00    -0.000 C 
BRANCH  19  20
ATOM     20  C   UNL     1       3.732   1.135 -13.073  1.00  0.00    -0.000 C 
BRANCH  20  21
ATOM     21  C   UNL     1       4.777   2.210 -12.761  1.00  0.00    -0.003 C 
ATOM     22  C   UNL     1       4.227   3.606 -13.010  1.00  0.00     0.004 C 
ENDBRANCH  20  21
ENDBRANCH  19  20
ENDBRANCH  18  19
ENDBRANCH  17  18
ENDBRANCH  16  17
ENDBRANCH  12  16
ENDBRANCH   9  12
ENDBRANCH   6   9
ENDBRANCH   3   5
ENDBRANCH   2   3
BRANCH   2  23
ATOM     23  N   UNL     1       5.915  -4.579 -15.218  1.00  0.00    -0.332 N 
ATOM     24  C   UNL     1       6.628  -5.307 -14.179  1.00  0.00     0.147 C 
BRANCH  23  25
ATOM     25  C   UNL     1       6.643  -4.460 -16.511  1.00  0.00     0.174 C 
BRANCH  25  26
ATOM     26  C   UNL     1       8.034  -5.135 -16.484  1.00  0.00     0.038 C 
BRANCH  26  27
ATOM     27  C   UNL     1       8.788  -5.241 -17.829  1.00  0.00    -0.015 C 
ATOM     28  C   UNL     1      10.097  -6.020 -17.705  1.00  0.00     0.007 C 
ATOM     29  C   UNL     1       7.932  -5.804 -18.961  1.00  0.00     0.007 C 
ENDBRANCH  26  27
ENDBRANCH  25  26
BRANCH  25  30
ATOM     30  C   UNL     1       6.678  -2.983 -16.968  1.00  0.00     0.243 C 
ATOM     31  O   UNL     1       5.775  -2.489 -17.641  1.00  0.00    -0.273 OA
ATOM     32  N   UNL     1       7.781  -2.267 -16.578  1.00  0.00    -0.342 N 
ATOM     33  H   UNL     1       8.415  -2.704 -15.904  1.00  0.00     0.164 HD
BRANCH  32  34
ATOM     34  C   UNL     1       7.996  -0.864 -16.941  1.00  0.00     0.175 C 
BRANCH  34  35
ATOM     35  C   UNL     1       7.732   0.069 -15.749  1.00  0.00     0.070 C 
BRANCH  35  36
ATOM     36  C   UNL     1       6.714   1.142 -16.060  1.00  0.00    -0.045 A 
ATOM     37  C   UNL     1       7.070   2.496 -15.966  1.00  0.00     0.007 A 
ATOM     38  C   UNL     1       5.403   0.805 -16.423  1.00  0.00     0.007 A 
ATOM     39  C   UNL     1       6.133   3.493 -16.238  1.00  0.00     0.046 A 
ATOM     40  C   UNL     1       4.464   1.804 -16.694  1.00  0.00     0.046 A 
ATOM     41  C   UNL     1       4.838   3.140 -16.600  1.00  0.00     0.115 A 
BRANCH  41  42
ATOM     42  O   UNL     1       3.953   4.145 -16.854  1.00  0.00    -0.508 OA
ATOM     43  H   UNL     1       3.484   4.354 -16.029  1.00  0.00     0.293 HD
ENDBRANCH  41  42
ENDBRANCH  35  36
ENDBRANCH  34  35
BRANCH  34  44
ATOM     44  C   UNL     1       9.439  -0.724 -17.476  1.00  0.00     0.243 C 
ATOM     45  O   UNL     1       9.751  -0.067 -18.465  1.00  0.00    -0.273 OA
ATOM     46  N   UNL     1      10.350  -1.519 -16.813  1.00  0.00    -0.341 N 
ATOM     47  H   UNL     1      10.021  -2.135 -16.073  1.00  0.00     0.164 HD
BRANCH  46  48
ATOM     48  C   UNL     1      11.764  -1.606 -17.184  1.00  0.00     0.196 C 
BRANCH  48  49
ATOM     49  C   UNL     1      12.653  -1.840 -15.951  1.00  0.00     0.072 C 
BRANCH  49  50
ATOM     50  C   UNL     1      12.270  -0.960 -14.783  1.00  0.00    -0.045 A 
ATOM     51  C   UNL     1      11.884  -1.543 -13.566  1.00  0.00     0.007 A 
ATOM     52  C   UNL     1      12.274   0.436 -14.899  1.00  0.00     0.007 A 
ATOM     53  C   UNL     1      11.516  -0.742 -12.485  1.00  0.00     0.046 A 
ATOM     54  C   UNL     1      11.904   1.238 -13.817  1.00  0.00     0.046 A 
ATOM     55  C   UNL     1      11.529   0.642 -12.618  1.00  0.00     0.115 A 
BRANCH  55  56
ATOM     56  O   UNL     1      11.160   1.389 -11.539  1.00  0.00    -0.508 OA
ATOM     57  H   UNL     1      11.736   2.168 -11.495  1.00  0.00     0.293 HD
ENDBRANCH  55  56
ENDBRANCH  49  50
ENDBRANCH  48  49
BRANCH  48  58
ATOM     58  C   UNL     1      11.948  -2.761 -18.178  1.00  0.00     0.326 C 
ATOM     59  O   UNL     1      12.652  -3.749 -18.041  1.00  0.00    -0.250 OA
BRANCH  58  60
ATOM     60  O   UNL     1      11.214  -2.623 -19.311  1.00  0.00    -0.480 OA
ATOM     61  H   UNL     1      11.450  -1.723 -19.625  1.00  0.00     0.296 HD
ENDBRANCH  58  60
ENDBRANCH  48  58
ENDBRANCH  46  48
ENDBRANCH  34  44
ENDBRANCH  32  34
ENDBRANCH  25  30
ENDBRANCH  23  25
ENDBRANCH   2  23
TORSDOF 28
ENDMDL
MODEL 26
REMARK VINA RESULT:    -4.853      2.006      4.741
REMARK INTER + INTRA:         -20.013
REMARK INTER:                 -14.236
REMARK INTRA:                  -5.777
REMARK UNBOUND:                -7.927
REMARK SMILES CCCCCCC[C@H](N)[C@H](O)C(=O)N[C@H](C)C(=O)N(C)[C@H](CC(C)C)C(=O)N[C@@H](Cc1ccc(O)cc1)C(=O)N[C@@H](Cc1ccc(O)cc1)C(=O)O
REMARK SMILES IDX 18 1 17 2 15 3 16 4 14 5 12 6 13 7 10 9 11 10 8 12 9 13 7 16
REMARK SMILES IDX 6 17 5 18 4 19 3 20 2 21 1 22 19 23 20 24 21 25 22 26 23 27
REMARK SMILES IDX 24 28 25 29 26 30 27 31 28 32 29 34 30 35 31 36 32 37 37 38
REMARK SMILES IDX 33 39 36 40 34 41 35 42 38 44 39 45 40 46 41 48 42 49 43 50
REMARK SMILES IDX 44 51 49 52 45 53 48 54 46 55 47 56 50 58 51 59 52 60
REMARK H PARENT 14 8 11 11 9 14 9 15 28 33 35 43 40 47 47 57 52 61
ROOT
ATOM      1  O   UNL     1       7.681  -2.566 -18.109  1.00  0.00    -0.272 OA
ATOM      2  C   UNL     1       8.910  -2.502 -18.258  1.00  0.00     0.245 C 
ENDROOT
BRANCH   2   3
ATOM      3  C   UNL     1       9.594  -1.114 -18.180  1.00  0.00     0.168 C 
ATOM      4  C   UNL     1      10.366  -0.819 -19.461  1.00  0.00     0.041 C 
BRANCH   3   5
ATOM      5  N   UNL     1       8.711  -0.017 -17.814  1.00  0.00    -0.342 N 
ATOM      6  C   UNL     1       8.855   0.668 -16.627  1.00  0.00     0.251 C 
ATOM      7  O   UNL     1       9.697   0.386 -15.781  1.00  0.00    -0.272 OA
ATOM      8  H   UNL     1       7.952   0.286 -18.421  1.00  0.00     0.164 HD
BRANCH   6   9
ATOM      9  C   UNL     1       7.908   1.874 -16.517  1.00  0.00     0.219 C 
BRANCH   9  10
ATOM     10  O   UNL     1       8.137   2.852 -17.539  1.00  0.00    -0.382 OA
ATOM     11  H   UNL     1       8.292   3.680 -17.035  1.00  0.00     0.211 HD
ENDBRANCH   9  10
BRANCH   9  12
ATOM     12  C   UNL     1       6.411   1.469 -16.468  1.00  0.00     0.089 C 
BRANCH  12  13
ATOM     13  N   UNL     1       6.327   0.030 -16.128  1.00  0.00    -0.325 NA
ATOM     14  H   UNL     1       6.405  -0.522 -16.984  1.00  0.00     0.119 HD
ATOM     15  H   UNL     1       5.392  -0.170 -15.765  1.00  0.00     0.119 HD
ENDBRANCH  12  13
BRANCH  12  16
ATOM     16  C   UNL     1       5.517   2.294 -15.512  1.00  0.00     0.022 C 
BRANCH  16  17
ATOM     17  C   UNL     1       5.990   2.540 -14.073  1.00  0.00     0.002 C 
BRANCH  17  18
ATOM     18  C   UNL     1       5.585   1.464 -13.068  1.00  0.00     0.000 C 
BRANCH  18  19
ATOM     19  C   UNL     1       6.768   0.816 -12.337  1.00  0.00    -0.000 C 
BRANCH  19  20
ATOM     20  C   UNL     1       8.146   1.367 -12.713  1.00  0.00    -0.000 C 
BRANCH  20  21
ATOM     21  C   UNL     1       8.911   1.938 -11.516  1.00  0.00    -0.003 C 
ATOM     22  C   UNL     1       8.400   1.360 -10.205  1.00  0.00     0.004 C 
ENDBRANCH  20  21
ENDBRANCH  19  20
ENDBRANCH  18  19
ENDBRANCH  17  18
ENDBRANCH  16  17
ENDBRANCH  12  16
ENDBRANCH   9  12
ENDBRANCH   6   9
ENDBRANCH   3   5
ENDBRANCH   2   3
BRANCH   2  23
ATOM     23  N   UNL     1       9.660  -3.668 -18.367  1.00  0.00    -0.332 N 
ATOM     24  C   UNL     1       9.395  -4.733 -19.322  1.00  0.00     0.147 C 
BRANCH  23  25
ATOM     25  C   UNL     1      10.901  -3.841 -17.563  1.00  0.00     0.174 C 
BRANCH  25  26
ATOM     26  C   UNL     1      11.631  -5.172 -17.862  1.00  0.00     0.038 C 
BRANCH  26  27
ATOM     27  C   UNL     1      11.265  -6.385 -16.979  1.00  0.00    -0.015 C 
ATOM     28  C   UNL     1      10.997  -7.646 -17.800  1.00  0.00     0.007 C 
ATOM     29  C   UNL     1      12.286  -6.667 -15.880  1.00  0.00     0.007 C 
ENDBRANCH  26  27
ENDBRANCH  25  26
BRANCH  25  30
ATOM     30  C   UNL     1      10.599  -3.622 -16.063  1.00  0.00     0.243 C 
ATOM     31  O   UNL     1      11.485  -3.351 -15.254  1.00  0.00    -0.273 OA
ATOM     32  N   UNL     1       9.284  -3.754 -15.697  1.00  0.00    -0.342 N 
ATOM     33  H   UNL     1       8.590  -3.838 -16.445  1.00  0.00     0.164 HD
BRANCH  32  34
ATOM     34  C   UNL     1       8.818  -3.608 -14.316  1.00  0.00     0.175 C 
BRANCH  34  35
ATOM     35  C   UNL     1       8.812  -2.134 -13.881  1.00  0.00     0.070 C 
BRANCH  35  36
ATOM     36  C   UNL     1       9.423  -1.926 -12.514  1.00  0.00    -0.045 A 
ATOM     37  C   UNL     1      10.654  -1.264 -12.388  1.00  0.00     0.007 A 
ATOM     38  C   UNL     1       8.788  -2.406 -11.361  1.00  0.00     0.007 A 
ATOM     39  C   UNL     1      11.232  -1.079 -11.132  1.00  0.00     0.046 A 
ATOM     40  C   UNL     1       9.367  -2.223 -10.103  1.00  0.00     0.046 A 
ATOM     41  C   UNL     1      10.585  -1.559 -10.000  1.00  0.00     0.115 A 
BRANCH  41  42
ATOM     42  O   UNL     1      11.185  -1.360  -8.792  1.00  0.00    -0.508 OA
ATOM     43  H   UNL     1      12.030  -0.904  -8.943  1.00  0.00     0.293 HD
ENDBRANCH  41  42
ENDBRANCH  35  36
ENDBRANCH  34  35
BRANCH  34  44
ATOM     44  C   UNL     1       7.413  -4.245 -14.215  1.00  0.00     0.243 C 
ATOM     45  O   UNL     1       7.177  -5.436 -14.394  1.00  0.00    -0.273 OA
ATOM     46  N   UNL     1       6.405  -3.323 -14.029  1.00  0.00    -0.341 N 
ATOM     47  H   UNL     1       6.638  -2.333 -14.003  1.00  0.00     0.164 HD
BRANCH  46  48
ATOM     48  C   UNL     1       4.986  -3.682 -13.970  1.00  0.00     0.196 C 
BRANCH  48  49
ATOM     49  C   UNL     1       4.178  -2.644 -13.173  1.00  0.00     0.072 C 
BRANCH  49  50
ATOM     50  C   UNL     1       3.988  -3.041 -11.727  1.00  0.00    -0.045 A 
ATOM     51  C   UNL     1       2.694  -3.184 -11.205  1.00  0.00     0.007 A 
ATOM     52  C   UNL     1       5.089  -3.251 -10.886  1.00  0.00     0.007 A 
ATOM     53  C   UNL     1       2.506  -3.537  -9.869  1.00  0.00     0.046 A 
ATOM     54  C   UNL     1       4.901  -3.603  -9.548  1.00  0.00     0.046 A 
ATOM     55  C   UNL     1       3.610  -3.744  -9.051  1.00  0.00     0.115 A 
BRANCH  55  56
ATOM     56  O   UNL     1       3.383  -4.086  -7.750  1.00  0.00    -0.508 OA
ATOM     57  H   UNL     1       2.677  -4.751  -7.727  1.00  0.00     0.293 HD
ENDBRANCH  55  56
ENDBRANCH  49  50
ENDBRANCH  48  49
BRANCH  48  58
ATOM     58  C   UNL     1       4.435  -3.774 -15.400  1.00  0.00     0.326 C 
ATOM     59  O   UNL     1       3.593  -4.552 -15.819  1.00  0.00    -0.250 OA
BRANCH  58  60
ATOM     60  O   UNL     1       4.969  -2.858 -16.246  1.00  0.00    -0.480 OA
ATOM     61  H   UNL     1       4.192  -2.328 -16.525  1.00  0.00     0.296 HD
ENDBRANCH  58  60
ENDBRANCH  48  58
ENDBRANCH  46  48
ENDBRANCH  34  44
ENDBRANCH  32  34
ENDBRANCH  25  30
ENDBRANCH  23  25
ENDBRANCH   2  23
TORSDOF 28
ENDMDL
MODEL 27
REMARK VINA RESULT:    -4.841      1.936      2.532
REMARK INTER + INTRA:         -19.985
REMARK INTER:                 -14.080
REMARK INTRA:                  -5.906
REMARK UNBOUND:                -7.927
REMARK SMILES CCCCCCC[C@H](N)[C@H](O)C(=O)N[C@H](C)C(=O)N(C)[C@H](CC(C)C)C(=O)N[C@@H](Cc1ccc(O)cc1)C(=O)N[C@@H](Cc1ccc(O)cc1)C(=O)O
REMARK SMILES IDX 18 1 17 2 15 3 16 4 14 5 12 6 13 7 10 9 11 10 8 12 9 13 7 16
REMARK SMILES IDX 6 17 5 18 4 19 3 20 2 21 1 22 19 23 20 24 21 25 22 26 23 27
REMARK SMILES IDX 24 28 25 29 26 30 27 31 28 32 29 34 30 35 31 36 32 37 37 38
REMARK SMILES IDX 33 39 36 40 34 41 35 42 38 44 39 45 40 46 41 48 42 49 43 50
REMARK SMILES IDX 44 51 49 52 45 53 48 54 46 55 47 56 50 58 51 59 52 60
REMARK H PARENT 14 8 11 11 9 14 9 15 28 33 35 43 40 47 47 57 52 61
ROOT
ATOM      1  O   UNL     1       9.065  -3.608 -14.578  1.00  0.00    -0.272 OA
ATOM      2  C   UNL     1       9.049  -2.807 -15.525  1.00  0.00     0.245 C 
ENDROOT
BRANCH   2   3
ATOM      3  C   UNL     1       7.766  -2.705 -16.386  1.00  0.00     0.168 C 
ATOM      4  C   UNL     1       7.039  -4.044 -16.438  1.00  0.00     0.041 C 
BRANCH   3   5
ATOM      5  N   UNL     1       6.871  -1.617 -16.023  1.00  0.00    -0.342 N 
ATOM      6  C   UNL     1       5.905  -1.149 -16.888  1.00  0.00     0.251 C 
ATOM      7  O   UNL     1       5.753  -1.576 -18.028  1.00  0.00    -0.272 OA
ATOM      8  H   UNL     1       6.924  -1.159 -15.116  1.00  0.00     0.164 HD
BRANCH   6   9
ATOM      9  C   UNL     1       4.987  -0.098 -16.242  1.00  0.00     0.219 C 
BRANCH   9  10
ATOM     10  O   UNL     1       4.368   0.762 -17.206  1.00  0.00    -0.382 OA
ATOM     11  H   UNL     1       5.097   0.973 -17.830  1.00  0.00     0.211 HD
ENDBRANCH   9  10
BRANCH   9  12
ATOM     12  C   UNL     1       3.926  -0.717 -15.295  1.00  0.00     0.089 C 
BRANCH  12  13
ATOM     13  N   UNL     1       4.137  -2.182 -15.250  1.00  0.00    -0.325 NA
ATOM     14  H   UNL     1       5.138  -2.379 -15.306  1.00  0.00     0.119 HD
ATOM     15  H   UNL     1       3.735  -2.600 -16.093  1.00  0.00     0.119 HD
ENDBRANCH  12  13
BRANCH  12  16
ATOM     16  C   UNL     1       3.883  -0.143 -13.858  1.00  0.00     0.022 C 
BRANCH  16  17
ATOM     17  C   UNL     1       2.522   0.152 -13.212  1.00  0.00     0.002 C 
BRANCH  17  18
ATOM     18  C   UNL     1       1.784  -1.074 -12.678  1.00  0.00     0.000 C 
BRANCH  18  19
ATOM     19  C   UNL     1       0.670  -1.584 -13.602  1.00  0.00    -0.000 C 
BRANCH  19  20
ATOM     20  C   UNL     1       0.153  -2.990 -13.283  1.00  0.00    -0.000 C 
BRANCH  20  21
ATOM     21  C   UNL     1       1.257  -4.051 -13.295  1.00  0.00    -0.003 C 
ATOM     22  C   UNL     1       1.456  -4.628 -14.688  1.00  0.00     0.004 C 
ENDBRANCH  20  21
ENDBRANCH  19  20
ENDBRANCH  18  19
ENDBRANCH  17  18
ENDBRANCH  16  17
ENDBRANCH  12  16
ENDBRANCH   9  12
ENDBRANCH   6   9
ENDBRANCH   3   5
ENDBRANCH   2   3
BRANCH   2  23
ATOM     23  N   UNL     1      10.118  -1.940 -15.721  1.00  0.00    -0.332 N 
ATOM     24  C   UNL     1      10.977  -1.940 -16.896  1.00  0.00     0.147 C 
BRANCH  23  25
ATOM     25  C   UNL     1      10.376  -0.836 -14.757  1.00  0.00     0.174 C 
BRANCH  25  26
ATOM     26  C   UNL     1      11.355   0.228 -15.307  1.00  0.00     0.038 C 
BRANCH  26  27
ATOM     27  C   UNL     1      11.272   1.642 -14.689  1.00  0.00    -0.015 C 
ATOM     28  C   UNL     1      12.452   2.526 -15.091  1.00  0.00     0.007 C 
ATOM     29  C   UNL     1       9.950   2.351 -14.969  1.00  0.00     0.007 C 
ENDBRANCH  26  27
ENDBRANCH  25  26
BRANCH  25  30
ATOM     30  C   UNL     1      10.794  -1.414 -13.385  1.00  0.00     0.243 C 
ATOM     31  O   UNL     1      11.906  -1.907 -13.199  1.00  0.00    -0.273 OA
ATOM     32  N   UNL     1       9.845  -1.346 -12.398  1.00  0.00    -0.342 N 
ATOM     33  H   UNL     1       9.002  -0.797 -12.589  1.00  0.00     0.164 HD
BRANCH  32  34
ATOM     34  C   UNL     1      10.055  -1.868 -11.045  1.00  0.00     0.175 C 
BRANCH  34  35
ATOM     35  C   UNL     1      10.558  -0.770 -10.095  1.00  0.00     0.070 C 
BRANCH  35  36
ATOM     36  C   UNL     1      10.145   0.617 -10.532  1.00  0.00    -0.045 A 
ATOM     37  C   UNL     1      11.117   1.541 -10.944  1.00  0.00     0.007 A 
ATOM     38  C   UNL     1       8.799   1.006 -10.513  1.00  0.00     0.007 A 
ATOM     39  C   UNL     1      10.746   2.828 -11.336  1.00  0.00     0.046 A 
ATOM     40  C   UNL     1       8.428   2.294 -10.904  1.00  0.00     0.046 A 
ATOM     41  C   UNL     1       9.406   3.194 -11.314  1.00  0.00     0.115 A 
BRANCH  41  42
ATOM     42  O   UNL     1       9.087   4.461 -11.703  1.00  0.00    -0.508 OA
ATOM     43  H   UNL     1       8.119   4.526 -11.766  1.00  0.00     0.293 HD
ENDBRANCH  41  42
ENDBRANCH  35  36
ENDBRANCH  34  35
BRANCH  34  44
ATOM     44  C   UNL     1       8.726  -2.489 -10.560  1.00  0.00     0.243 C 
ATOM     45  O   UNL     1       8.444  -2.688  -9.382  1.00  0.00    -0.273 OA
ATOM     46  N   UNL     1       7.919  -2.929 -11.587  1.00  0.00    -0.341 N 
ATOM     47  H   UNL     1       8.249  -2.847 -12.545  1.00  0.00     0.164 HD
BRANCH  46  48
ATOM     48  C   UNL     1       6.641  -3.612 -11.371  1.00  0.00     0.196 C 
BRANCH  48  49
ATOM     49  C   UNL     1       5.519  -2.612 -11.049  1.00  0.00     0.072 C 
BRANCH  49  50
ATOM     50  C   UNL     1       4.532  -3.150 -10.038  1.00  0.00    -0.045 A 
ATOM     51  C   UNL     1       3.201  -3.382 -10.415  1.00  0.00     0.007 A 
ATOM     52  C   UNL     1       4.919  -3.404  -8.716  1.00  0.00     0.007 A 
ATOM     53  C   UNL     1       2.278  -3.867  -9.488  1.00  0.00     0.046 A 
ATOM     54  C   UNL     1       3.995  -3.887  -7.787  1.00  0.00     0.046 A 
ATOM     55  C   UNL     1       2.682  -4.116  -8.182  1.00  0.00     0.115 A 
BRANCH  55  56
ATOM     56  O   UNL     1       1.749  -4.587  -7.306  1.00  0.00    -0.508 OA
ATOM     57  H   UNL     1       2.200  -5.131  -6.642  1.00  0.00     0.293 HD
ENDBRANCH  55  56
ENDBRANCH  49  50
ENDBRANCH  48  49
BRANCH  48  58
ATOM     58  C   UNL     1       6.278  -4.404 -12.635  1.00  0.00     0.326 C 
ATOM     59  O   UNL     1       5.248  -4.328 -13.284  1.00  0.00    -0.250 OA
BRANCH  58  60
ATOM     60  O   UNL     1       7.253  -5.257 -13.038  1.00  0.00    -0.480 OA
ATOM     61  H   UNL     1       7.407  -4.999 -13.973  1.00  0.00     0.296 HD
ENDBRANCH  58  60
ENDBRANCH  48  58
ENDBRANCH  46  48
ENDBRANCH  34  44
ENDBRANCH  32  34
ENDBRANCH  25  30
ENDBRANCH  23  25
ENDBRANCH   2  23
TORSDOF 28
ENDMDL
MODEL 28
REMARK VINA RESULT:    -4.824      2.288      6.593
REMARK INTER + INTRA:         -19.942
REMARK INTER:                 -14.410
REMARK INTRA:                  -5.532
REMARK UNBOUND:                -7.927
REMARK SMILES CCCCCCC[C@H](N)[C@H](O)C(=O)N[C@H](C)C(=O)N(C)[C@H](CC(C)C)C(=O)N[C@@H](Cc1ccc(O)cc1)C(=O)N[C@@H](Cc1ccc(O)cc1)C(=O)O
REMARK SMILES IDX 18 1 17 2 15 3 16 4 14 5 12 6 13 7 10 9 11 10 8 12 9 13 7 16
REMARK SMILES IDX 6 17 5 18 4 19 3 20 2 21 1 22 19 23 20 24 21 25 22 26 23 27
REMARK SMILES IDX 24 28 25 29 26 30 27 31 28 32 29 34 30 35 31 36 32 37 37 38
REMARK SMILES IDX 33 39 36 40 34 41 35 42 38 44 39 45 40 46 41 48 42 49 43 50
REMARK SMILES IDX 44 51 49 52 45 53 48 54 46 55 47 56 50 58 51 59 52 60
REMARK H PARENT 14 8 11 11 9 14 9 15 28 33 35 43 40 47 47 57 52 61
ROOT
ATOM      1  O   UNL     1       4.910  -1.933 -17.592  1.00  0.00    -0.272 OA
ATOM      2  C   UNL     1       5.549  -1.751 -16.545  1.00  0.00     0.245 C 
ENDROOT
BRANCH   2   3
ATOM      3  C   UNL     1       7.096  -1.707 -16.618  1.00  0.00     0.168 C 
ATOM      4  C   UNL     1       7.645  -0.557 -15.781  1.00  0.00     0.041 C 
BRANCH   3   5
ATOM      5  N   UNL     1       7.758  -2.965 -16.313  1.00  0.00    -0.342 N 
ATOM      6  C   UNL     1       8.055  -3.889 -17.293  1.00  0.00     0.251 C 
ATOM      7  O   UNL     1       7.752  -3.744 -18.472  1.00  0.00    -0.272 OA
ATOM      8  H   UNL     1       8.028  -3.212 -15.363  1.00  0.00     0.164 HD
BRANCH   6   9
ATOM      9  C   UNL     1       8.880  -5.073 -16.763  1.00  0.00     0.219 C 
BRANCH   9  10
ATOM     10  O   UNL     1       8.972  -6.148 -17.706  1.00  0.00    -0.382 OA
ATOM     11  H   UNL     1       9.868  -6.039 -18.093  1.00  0.00     0.211 HD
ENDBRANCH   9  10
BRANCH   9  12
ATOM     12  C   UNL     1      10.287  -4.659 -16.261  1.00  0.00     0.089 C 
BRANCH  12  13
ATOM     13  N   UNL     1      10.967  -5.863 -15.731  1.00  0.00    -0.325 NA
ATOM     14  H   UNL     1      11.097  -6.536 -16.489  1.00  0.00     0.119 HD
ATOM     15  H   UNL     1      10.346  -6.328 -15.065  1.00  0.00     0.119 HD
ENDBRANCH  12  13
BRANCH  12  16
ATOM     16  C   UNL     1      11.194  -3.947 -17.293  1.00  0.00     0.022 C 
BRANCH  16  17
ATOM     17  C   UNL     1      11.713  -2.537 -16.984  1.00  0.00     0.002 C 
BRANCH  17  18
ATOM     18  C   UNL     1      11.180  -1.922 -15.693  1.00  0.00     0.000 C 
BRANCH  18  19
ATOM     19  C   UNL     1      12.216  -1.842 -14.564  1.00  0.00    -0.000 C 
BRANCH  19  20
ATOM     20  C   UNL     1      11.954  -0.756 -13.516  1.00  0.00    -0.000 C 
BRANCH  20  21
ATOM     21  C   UNL     1      10.507  -0.741 -13.018  1.00  0.00    -0.003 C 
ATOM     22  C   UNL     1       9.932   0.667 -13.027  1.00  0.00     0.004 C 
ENDBRANCH  20  21
ENDBRANCH  19  20
ENDBRANCH  18  19
ENDBRANCH  17  18
ENDBRANCH  16  17
ENDBRANCH  12  16
ENDBRANCH   9  12
ENDBRANCH   6   9
ENDBRANCH   3   5
ENDBRANCH   2   3
BRANCH   2  23
ATOM     23  N   UNL     1       4.877  -1.471 -15.360  1.00  0.00    -0.332 N 
ATOM     24  C   UNL     1       4.362  -0.160 -14.992  1.00  0.00     0.147 C 
BRANCH  23  25
ATOM     25  C   UNL     1       4.522  -2.570 -14.420  1.00  0.00     0.174 C 
BRANCH  25  26
ATOM     26  C   UNL     1       3.061  -2.486 -13.920  1.00  0.00     0.038 C 
BRANCH  26  27
ATOM     27  C   UNL     1       2.261  -3.807 -13.873  1.00  0.00    -0.015 C 
ATOM     28  C   UNL     1       0.751  -3.578 -13.948  1.00  0.00     0.007 C 
ATOM     29  C   UNL     1       2.703  -4.823 -14.923  1.00  0.00     0.007 C 
ENDBRANCH  26  27
ENDBRANCH  25  26
BRANCH  25  30
ATOM     30  C   UNL     1       5.565  -2.654 -13.281  1.00  0.00     0.243 C 
ATOM     31  O   UNL     1       6.710  -3.058 -13.477  1.00  0.00    -0.273 OA
ATOM     32  N   UNL     1       5.127  -2.255 -12.045  1.00  0.00    -0.342 N 
ATOM     33  H   UNL     1       4.212  -1.800 -11.991  1.00  0.00     0.164 HD
BRANCH  32  34
ATOM     34  C   UNL     1       5.968  -2.292 -10.846  1.00  0.00     0.175 C 
BRANCH  34  35
ATOM     35  C   UNL     1       6.783  -0.998 -10.694  1.00  0.00     0.070 C 
BRANCH  35  36
ATOM     36  C   UNL     1       8.185  -1.246 -10.186  1.00  0.00    -0.045 A 
ATOM     37  C   UNL     1       8.754  -2.525 -10.291  1.00  0.00     0.007 A 
ATOM     38  C   UNL     1       8.924  -0.219  -9.586  1.00  0.00     0.007 A 
ATOM     39  C   UNL     1      10.042  -2.766  -9.812  1.00  0.00     0.046 A 
ATOM     40  C   UNL     1      10.214  -0.460  -9.105  1.00  0.00     0.046 A 
ATOM     41  C   UNL     1      10.761  -1.733  -9.225  1.00  0.00     0.115 A 
BRANCH  41  42
ATOM     42  O   UNL     1      12.015  -2.012  -8.767  1.00  0.00    -0.508 OA
ATOM     43  H   UNL     1      12.523  -2.409  -9.494  1.00  0.00     0.293 HD
ENDBRANCH  41  42
ENDBRANCH  35  36
ENDBRANCH  34  35
BRANCH  34  44
ATOM     44  C   UNL     1       5.052  -2.544  -9.626  1.00  0.00     0.243 C 
ATOM     45  O   UNL     1       5.454  -2.869  -8.513  1.00  0.00    -0.273 OA
ATOM     46  N   UNL     1       3.708  -2.499  -9.931  1.00  0.00    -0.341 N 
ATOM     47  H   UNL     1       3.425  -2.341 -10.894  1.00  0.00     0.164 HD
BRANCH  46  48
ATOM     48  C   UNL     1       2.652  -2.772  -8.954  1.00  0.00     0.196 C 
BRANCH  48  49
ATOM     49  C   UNL     1       1.616  -1.635  -8.917  1.00  0.00     0.072 C 
BRANCH  49  50
ATOM     50  C   UNL     1       1.508  -0.903 -10.235  1.00  0.00    -0.045 A 
ATOM     51  C   UNL     1       2.485   0.036 -10.595  1.00  0.00     0.007 A 
ATOM     52  C   UNL     1       0.431  -1.133 -11.100  1.00  0.00     0.007 A 
ATOM     53  C   UNL     1       2.388   0.728 -11.803  1.00  0.00     0.046 A 
ATOM     54  C   UNL     1       0.333  -0.440 -12.309  1.00  0.00     0.046 A 
ATOM     55  C   UNL     1       1.315   0.484 -12.651  1.00  0.00     0.115 A 
BRANCH  55  56
ATOM     56  O   UNL     1       1.256   1.182 -13.821  1.00  0.00    -0.508 OA
ATOM     57  H   UNL     1       0.437   1.702 -13.826  1.00  0.00     0.293 HD
ENDBRANCH  55  56
ENDBRANCH  49  50
ENDBRANCH  48  49
BRANCH  48  58
ATOM     58  C   UNL     1       1.957  -4.089  -9.326  1.00  0.00     0.326 C 
ATOM     59  O   UNL     1       1.496  -4.923  -8.563  1.00  0.00    -0.250 OA
BRANCH  58  60
ATOM     60  O   UNL     1       1.859  -4.290 -10.664  1.00  0.00    -0.480 OA
ATOM     61  H   UNL     1       2.121  -5.230 -10.771  1.00  0.00     0.296 HD
ENDBRANCH  58  60
ENDBRANCH  48  58
ENDBRANCH  46  48
ENDBRANCH  34  44
ENDBRANCH  32  34
ENDBRANCH  25  30
ENDBRANCH  23  25
ENDBRANCH   2  23
TORSDOF 28
ENDMDL
MODEL 29
REMARK VINA RESULT:    -4.817      1.676      2.571
REMARK INTER + INTRA:         -19.924
REMARK INTER:                 -13.496
REMARK INTRA:                  -6.428
REMARK UNBOUND:                -7.927
REMARK SMILES CCCCCCC[C@H](N)[C@H](O)C(=O)N[C@H](C)C(=O)N(C)[C@H](CC(C)C)C(=O)N[C@@H](Cc1ccc(O)cc1)C(=O)N[C@@H](Cc1ccc(O)cc1)C(=O)O
REMARK SMILES IDX 18 1 17 2 15 3 16 4 14 5 12 6 13 7 10 9 11 10 8 12 9 13 7 16
REMARK SMILES IDX 6 17 5 18 4 19 3 20 2 21 1 22 19 23 20 24 21 25 22 26 23 27
REMARK SMILES IDX 24 28 25 29 26 30 27 31 28 32 29 34 30 35 31 36 32 37 37 38
REMARK SMILES IDX 33 39 36 40 34 41 35 42 38 44 39 45 40 46 41 48 42 49 43 50
REMARK SMILES IDX 44 51 49 52 45 53 48 54 46 55 47 56 50 58 51 59 52 60
REMARK H PARENT 14 8 11 11 9 14 9 15 28 33 35 43 40 47 47 57 52 61
ROOT
ATOM      1  O   UNL     1       9.247  -5.624 -15.577  1.00  0.00    -0.272 OA
ATOM      2  C   UNL     1       9.507  -4.675 -16.332  1.00  0.00     0.245 C 
ENDROOT
BRANCH   2   3
ATOM      3  C   UNL     1       8.392  -4.148 -17.269  1.00  0.00     0.168 C 
ATOM      4  C   UNL     1       7.828  -5.274 -18.128  1.00  0.00     0.041 C 
BRANCH   3   5
ATOM      5  N   UNL     1       7.340  -3.395 -16.603  1.00  0.00    -0.342 N 
ATOM      6  C   UNL     1       6.734  -2.309 -17.199  1.00  0.00     0.251 C 
ATOM      7  O   UNL     1       7.056  -1.873 -18.299  1.00  0.00    -0.272 OA
ATOM      8  H   UNL     1       7.011  -3.641 -15.673  1.00  0.00     0.164 HD
BRANCH   6   9
ATOM      9  C   UNL     1       5.557  -1.760 -16.376  1.00  0.00     0.219 C 
BRANCH   9  10
ATOM     10  O   UNL     1       5.768  -1.877 -14.963  1.00  0.00    -0.382 OA
ATOM     11  H   UNL     1       4.863  -2.005 -14.604  1.00  0.00     0.211 HD
ENDBRANCH   9  10
BRANCH   9  12
ATOM     12  C   UNL     1       5.174  -0.306 -16.756  1.00  0.00     0.089 C 
BRANCH  12  13
ATOM     13  N   UNL     1       4.207  -0.355 -17.876  1.00  0.00    -0.325 NA
ATOM     14  H   UNL     1       4.393  -1.184 -18.444  1.00  0.00     0.119 HD
ATOM     15  H   UNL     1       4.380   0.438 -18.498  1.00  0.00     0.119 HD
ENDBRANCH  12  13
BRANCH  12  16
ATOM     16  C   UNL     1       4.615   0.570 -15.610  1.00  0.00     0.022 C 
BRANCH  16  17
ATOM     17  C   UNL     1       3.111   0.532 -15.306  1.00  0.00     0.002 C 
BRANCH  17  18
ATOM     18  C   UNL     1       2.686  -0.523 -14.286  1.00  0.00     0.000 C 
BRANCH  18  19
ATOM     19  C   UNL     1       3.148  -0.228 -12.853  1.00  0.00    -0.000 C 
BRANCH  19  20
ATOM     20  C   UNL     1       2.870   1.195 -12.360  1.00  0.00    -0.000 C 
BRANCH  20  21
ATOM     21  C   UNL     1       4.147   1.992 -12.076  1.00  0.00    -0.003 C 
ATOM     22  C   UNL     1       5.293   1.076 -11.675  1.00  0.00     0.004 C 
ENDBRANCH  20  21
ENDBRANCH  19  20
ENDBRANCH  18  19
ENDBRANCH  17  18
ENDBRANCH  16  17
ENDBRANCH  12  16
ENDBRANCH   9  12
ENDBRANCH   6   9
ENDBRANCH   3   5
ENDBRANCH   2   3
BRANCH   2  23
ATOM     23  N   UNL     1      10.735  -4.030 -16.241  1.00  0.00    -0.332 N 
ATOM     24  C   UNL     1      12.026  -4.699 -16.305  1.00  0.00     0.147 C 
BRANCH  23  25
ATOM     25  C   UNL     1      10.801  -2.543 -16.197  1.00  0.00     0.174 C 
BRANCH  25  26
ATOM     26  C   UNL     1      11.961  -1.967 -17.043  1.00  0.00     0.038 C 
BRANCH  26  27
ATOM     27  C   UNL     1      11.624  -1.530 -18.486  1.00  0.00    -0.015 C 
ATOM     28  C   UNL     1      11.668  -2.695 -19.475  1.00  0.00     0.007 C 
ATOM     29  C   UNL     1      10.300  -0.779 -18.600  1.00  0.00     0.007 C 
ENDBRANCH  26  27
ENDBRANCH  25  26
BRANCH  25  30
ATOM     30  C   UNL     1      10.799  -2.054 -14.730  1.00  0.00     0.243 C 
ATOM     31  O   UNL     1      11.841  -1.895 -14.097  1.00  0.00    -0.273 OA
ATOM     32  N   UNL     1       9.563  -1.817 -14.186  1.00  0.00    -0.342 N 
ATOM     33  H   UNL     1       8.757  -1.835 -14.815  1.00  0.00     0.164 HD
BRANCH  32  34
ATOM     34  C   UNL     1       9.368  -1.375 -12.802  1.00  0.00     0.175 C 
BRANCH  34  35
ATOM     35  C   UNL     1       8.625  -0.032 -12.744  1.00  0.00     0.070 C 
BRANCH  35  36
ATOM     36  C   UNL     1       9.328   1.059 -13.522  1.00  0.00    -0.045 A 
ATOM     37  C   UNL     1       8.688   1.666 -14.613  1.00  0.00     0.007 A 
ATOM     38  C   UNL     1      10.626   1.461 -13.183  1.00  0.00     0.007 A 
ATOM     39  C   UNL     1       9.333   2.664 -15.344  1.00  0.00     0.046 A 
ATOM     40  C   UNL     1      11.274   2.458 -13.916  1.00  0.00     0.046 A 
ATOM     41  C   UNL     1      10.619   3.052 -14.991  1.00  0.00     0.115 A 
BRANCH  41  42
ATOM     42  O   UNL     1      11.216   4.028 -15.733  1.00  0.00    -0.508 OA
ATOM     43  H   UNL     1      11.948   3.627 -16.231  1.00  0.00     0.293 HD
ENDBRANCH  41  42
ENDBRANCH  35  36
ENDBRANCH  34  35
BRANCH  34  44
ATOM     44  C   UNL     1       8.607  -2.488 -12.047  1.00  0.00     0.243 C 
ATOM     45  O   UNL     1       9.051  -3.097 -11.078  1.00  0.00    -0.273 OA
ATOM     46  N   UNL     1       7.414  -2.839 -12.643  1.00  0.00    -0.341 N 
ATOM     47  H   UNL     1       7.144  -2.386 -13.512  1.00  0.00     0.164 HD
BRANCH  46  48
ATOM     48  C   UNL     1       6.552  -3.915 -12.148  1.00  0.00     0.196 C 
BRANCH  48  49
ATOM     49  C   UNL     1       5.176  -3.377 -11.721  1.00  0.00     0.072 C 
BRANCH  49  50
ATOM     50  C   UNL     1       5.052  -3.219 -10.223  1.00  0.00    -0.045 A 
ATOM     51  C   UNL     1       5.663  -2.131  -9.582  1.00  0.00     0.007 A 
ATOM     52  C   UNL     1       4.350  -4.157  -9.454  1.00  0.00     0.007 A 
ATOM     53  C   UNL     1       5.567  -1.982  -8.198  1.00  0.00     0.046 A 
ATOM     54  C   UNL     1       4.255  -4.008  -8.069  1.00  0.00     0.046 A 
ATOM     55  C   UNL     1       4.864  -2.920  -7.453  1.00  0.00     0.115 A 
BRANCH  55  56
ATOM     56  O   UNL     1       4.795  -2.739  -6.103  1.00  0.00    -0.508 OA
ATOM     57  H   UNL     1       4.133  -3.351  -5.745  1.00  0.00     0.293 HD
ENDBRANCH  55  56
ENDBRANCH  49  50
ENDBRANCH  48  49
BRANCH  48  58
ATOM     58  C   UNL     1       6.375  -4.962 -13.255  1.00  0.00     0.326 C 
ATOM     59  O   UNL     1       6.152  -4.758 -14.438  1.00  0.00    -0.250 OA
BRANCH  58  60
ATOM     60  O   UNL     1       6.504  -6.240 -12.817  1.00  0.00    -0.480 OA
ATOM     61  H   UNL     1       7.473  -6.343 -12.702  1.00  0.00     0.296 HD
ENDBRANCH  58  60
ENDBRANCH  48  58
ENDBRANCH  46  48
ENDBRANCH  34  44
ENDBRANCH  32  34
ENDBRANCH  25  30
ENDBRANCH  23  25
ENDBRANCH   2  23
TORSDOF 28
ENDMDL
MODEL 30
REMARK VINA RESULT:    -4.800      2.587      3.884
REMARK INTER + INTRA:         -19.881
REMARK INTER:                 -13.481
REMARK INTRA:                  -6.400
REMARK UNBOUND:                -7.927
REMARK SMILES CCCCCCC[C@H](N)[C@H](O)C(=O)N[C@H](C)C(=O)N(C)[C@H](CC(C)C)C(=O)N[C@@H](Cc1ccc(O)cc1)C(=O)N[C@@H](Cc1ccc(O)cc1)C(=O)O
REMARK SMILES IDX 18 1 17 2 15 3 16 4 14 5 12 6 13 7 10 9 11 10 8 12 9 13 7 16
REMARK SMILES IDX 6 17 5 18 4 19 3 20 2 21 1 22 19 23 20 24 21 25 22 26 23 27
REMARK SMILES IDX 24 28 25 29 26 30 27 31 28 32 29 34 30 35 31 36 32 37 37 38
REMARK SMILES IDX 33 39 36 40 34 41 35 42 38 44 39 45 40 46 41 48 42 49 43 50
REMARK SMILES IDX 44 51 49 52 45 53 48 54 46 55 47 56 50 58 51 59 52 60
REMARK H PARENT 14 8 11 11 9 14 9 15 28 33 35 43 40 47 47 57 52 61
ROOT
ATOM      1  O   UNL     1       9.828  -5.019 -15.621  1.00  0.00    -0.272 OA
ATOM      2  C   UNL     1       9.535  -3.881 -16.018  1.00  0.00     0.245 C 
ENDROOT
BRANCH   2   3
ATOM      3  C   UNL     1       8.334  -3.719 -16.983  1.00  0.00     0.168 C 
ATOM      4  C   UNL     1       7.830  -5.079 -17.453  1.00  0.00     0.041 C 
BRANCH   3   5
ATOM      5  N   UNL     1       7.254  -2.884 -16.481  1.00  0.00    -0.342 N 
ATOM      6  C   UNL     1       6.637  -1.938 -17.271  1.00  0.00     0.251 C 
ATOM      7  O   UNL     1       6.973  -1.699 -18.426  1.00  0.00    -0.272 OA
ATOM      8  H   UNL     1       6.912  -2.967 -15.526  1.00  0.00     0.164 HD
BRANCH   6   9
ATOM      9  C   UNL     1       5.434  -1.278 -16.579  1.00  0.00     0.219 C 
BRANCH   9  10
ATOM     10  O   UNL     1       5.692  -0.961 -15.205  1.00  0.00    -0.382 OA
ATOM     11  H   UNL     1       6.500  -1.479 -14.997  1.00  0.00     0.211 HD
ENDBRANCH   9  10
BRANCH   9  12
ATOM     12  C   UNL     1       4.900  -0.036 -17.339  1.00  0.00     0.089 C 
BRANCH  12  13
ATOM     13  N   UNL     1       3.963  -0.498 -18.388  1.00  0.00    -0.325 NA
ATOM     14  H   UNL     1       4.277  -0.149 -19.296  1.00  0.00     0.119 HD
ATOM     15  H   UNL     1       3.052  -0.059 -18.235  1.00  0.00     0.119 HD
ENDBRANCH  12  13
BRANCH  12  16
ATOM     16  C   UNL     1       4.229   1.055 -16.470  1.00  0.00     0.022 C 
BRANCH  16  17
ATOM     17  C   UNL     1       2.731   0.943 -16.156  1.00  0.00     0.002 C 
BRANCH  17  18
ATOM     18  C   UNL     1       1.868   2.070 -16.720  1.00  0.00     0.000 C 
BRANCH  18  19
ATOM     19  C   UNL     1       0.815   1.602 -17.734  1.00  0.00    -0.000 C 
BRANCH  19  20
ATOM     20  C   UNL     1      -0.639   1.838 -17.316  1.00  0.00    -0.000 C 
BRANCH  20  21
ATOM     21  C   UNL     1      -0.767   2.545 -15.964  1.00  0.00    -0.003 C 
ATOM     22  C   UNL     1      -1.439   3.901 -16.109  1.00  0.00     0.004 C 
ENDBRANCH  20  21
ENDBRANCH  19  20
ENDBRANCH  18  19
ENDBRANCH  17  18
ENDBRANCH  16  17
ENDBRANCH  12  16
ENDBRANCH   9  12
ENDBRANCH   6   9
ENDBRANCH   3   5
ENDBRANCH   2   3
BRANCH   2  23
ATOM     23  N   UNL     1      10.198  -2.772 -15.503  1.00  0.00    -0.332 N 
ATOM     24  C   UNL     1      11.634  -2.553 -15.595  1.00  0.00     0.147 C 
BRANCH  23  25
ATOM     25  C   UNL     1       9.428  -1.642 -14.915  1.00  0.00     0.174 C 
BRANCH  25  26
ATOM     26  C   UNL     1      10.124  -0.274 -15.108  1.00  0.00     0.038 C 
BRANCH  26  27
ATOM     27  C   UNL     1       9.221   0.979 -15.091  1.00  0.00    -0.015 C 
ATOM     28  C   UNL     1      10.000   2.257 -14.781  1.00  0.00     0.007 C 
ATOM     29  C   UNL     1       8.395   1.149 -16.364  1.00  0.00     0.007 C 
ENDBRANCH  26  27
ENDBRANCH  25  26
BRANCH  25  30
ATOM     30  C   UNL     1       9.066  -1.953 -13.444  1.00  0.00     0.243 C 
ATOM     31  O   UNL     1       9.917  -1.982 -12.557  1.00  0.00    -0.273 OA
ATOM     32  N   UNL     1       7.739  -2.200 -13.200  1.00  0.00    -0.342 N 
ATOM     33  H   UNL     1       7.076  -2.018 -13.958  1.00  0.00     0.164 HD
BRANCH  32  34
ATOM     34  C   UNL     1       7.218  -2.538 -11.873  1.00  0.00     0.175 C 
BRANCH  34  35
ATOM     35  C   UNL     1       7.114  -1.293 -10.979  1.00  0.00     0.070 C 
BRANCH  35  36
ATOM     36  C   UNL     1       6.336  -0.170 -11.628  1.00  0.00    -0.045 A 
ATOM     37  C   UNL     1       4.934  -0.169 -11.579  1.00  0.00     0.007 A 
ATOM     38  C   UNL     1       6.996   0.865 -12.303  1.00  0.00     0.007 A 
ATOM     39  C   UNL     1       4.207   0.855 -12.187  1.00  0.00     0.046 A 
ATOM     40  C   UNL     1       6.268   1.890 -12.913  1.00  0.00     0.046 A 
ATOM     41  C   UNL     1       4.879   1.876 -12.848  1.00  0.00     0.115 A 
BRANCH  41  42
ATOM     42  O   UNL     1       4.131   2.856 -13.431  1.00  0.00    -0.508 OA
ATOM     43  H   UNL     1       4.329   3.696 -12.985  1.00  0.00     0.293 HD
ENDBRANCH  41  42
ENDBRANCH  35  36
ENDBRANCH  34  35
BRANCH  34  44
ATOM     44  C   UNL     1       5.850  -3.231 -12.058  1.00  0.00     0.243 C 
ATOM     45  O   UNL     1       5.332  -3.977 -11.231  1.00  0.00    -0.273 OA
ATOM     46  N   UNL     1       5.304  -3.043 -13.310  1.00  0.00    -0.341 N 
ATOM     47  H   UNL     1       5.828  -2.512 -14.002  1.00  0.00     0.164 HD
BRANCH  46  48
ATOM     48  C   UNL     1       4.047  -3.657 -13.743  1.00  0.00     0.196 C 
BRANCH  48  49
ATOM     49  C   UNL     1       2.986  -2.593 -14.069  1.00  0.00     0.072 C 
BRANCH  49  50
ATOM     50  C   UNL     1       2.130  -2.239 -12.874  1.00  0.00    -0.045 A 
ATOM     51  C   UNL     1       1.254  -1.146 -12.940  1.00  0.00     0.007 A 
ATOM     52  C   UNL     1       2.211  -2.977 -11.686  1.00  0.00     0.007 A 
ATOM     53  C   UNL     1       0.469  -0.803 -11.840  1.00  0.00     0.046 A 
ATOM     54  C   UNL     1       1.426  -2.632 -10.583  1.00  0.00     0.046 A 
ATOM     55  C   UNL     1       0.560  -1.548 -10.671  1.00  0.00     0.115 A 
BRANCH  55  56
ATOM     56  O   UNL     1      -0.223  -1.178  -9.617  1.00  0.00    -0.508 OA
ATOM     57  H   UNL     1      -0.935  -0.609  -9.950  1.00  0.00     0.293 HD
ENDBRANCH  55  56
ENDBRANCH  49  50
ENDBRANCH  48  49
BRANCH  48  58
ATOM     58  C   UNL     1       4.313  -4.517 -14.986  1.00  0.00     0.326 C 
ATOM     59  O   UNL     1       5.392  -4.925 -15.386  1.00  0.00    -0.250 OA
BRANCH  58  60
ATOM     60  O   UNL     1       3.188  -4.840 -15.672  1.00  0.00    -0.480 OA
ATOM     61  H   UNL     1       2.507  -4.253 -15.278  1.00  0.00     0.296 HD
ENDBRANCH  58  60
ENDBRANCH  48  58
ENDBRANCH  46  48
ENDBRANCH  34  44
ENDBRANCH  32  34
ENDBRANCH  25  30
ENDBRANCH  23  25
ENDBRANCH   2  23
TORSDOF 28
ENDMDL
MODEL 31
REMARK VINA RESULT:    -4.783      2.153      5.299
REMARK INTER + INTRA:         -19.839
REMARK INTER:                 -14.228
REMARK INTRA:                  -5.612
REMARK UNBOUND:                -7.927
REMARK SMILES CCCCCCC[C@H](N)[C@H](O)C(=O)N[C@H](C)C(=O)N(C)[C@H](CC(C)C)C(=O)N[C@@H](Cc1ccc(O)cc1)C(=O)N[C@@H](Cc1ccc(O)cc1)C(=O)O
REMARK SMILES IDX 18 1 17 2 15 3 16 4 14 5 12 6 13 7 10 9 11 10 8 12 9 13 7 16
REMARK SMILES IDX 6 17 5 18 4 19 3 20 2 21 1 22 19 23 20 24 21 25 22 26 23 27
REMARK SMILES IDX 24 28 25 29 26 30 27 31 28 32 29 34 30 35 31 36 32 37 37 38
REMARK SMILES IDX 33 39 36 40 34 41 35 42 38 44 39 45 40 46 41 48 42 49 43 50
REMARK SMILES IDX 44 51 49 52 45 53 48 54 46 55 47 56 50 58 51 59 52 60
REMARK H PARENT 14 8 11 11 9 14 9 15 28 33 35 43 40 47 47 57 52 61
ROOT
ATOM      1  O   UNL     1       9.915  -5.741 -15.922  1.00  0.00    -0.272 OA
ATOM      2  C   UNL     1       9.527  -4.815 -16.649  1.00  0.00     0.245 C 
ENDROOT
BRANCH   2   3
ATOM      3  C   UNL     1      10.588  -3.924 -17.343  1.00  0.00     0.168 C 
ATOM      4  C   UNL     1      10.146  -3.558 -18.756  1.00  0.00     0.041 C 
BRANCH   3   5
ATOM      5  N   UNL     1      10.995  -2.754 -16.582  1.00  0.00    -0.342 N 
ATOM      6  C   UNL     1      11.981  -2.818 -15.619  1.00  0.00     0.251 C 
ATOM      7  O   UNL     1      12.551  -3.857 -15.304  1.00  0.00    -0.272 OA
ATOM      8  H   UNL     1      10.569  -1.842 -16.730  1.00  0.00     0.164 HD
BRANCH   6   9
ATOM      9  C   UNL     1      12.344  -1.439 -15.047  1.00  0.00     0.219 C 
BRANCH   9  10
ATOM     10  O   UNL     1      12.650  -0.481 -16.068  1.00  0.00    -0.382 OA
ATOM     11  H   UNL     1      11.825  -0.439 -16.600  1.00  0.00     0.211 HD
ENDBRANCH   9  10
BRANCH   9  12
ATOM     12  C   UNL     1      11.275  -0.882 -14.072  1.00  0.00     0.089 C 
BRANCH  12  13
ATOM     13  N   UNL     1      10.272  -1.943 -13.823  1.00  0.00    -0.325 NA
ATOM     14  H   UNL     1      10.591  -2.531 -13.050  1.00  0.00     0.119 HD
ATOM     15  H   UNL     1      10.239  -2.564 -14.635  1.00  0.00     0.119 HD
ENDBRANCH  12  13
BRANCH  12  16
ATOM     16  C   UNL     1      11.805  -0.326 -12.729  1.00  0.00     0.022 C 
BRANCH  16  17
ATOM     17  C   UNL     1      10.996  -0.570 -11.448  1.00  0.00     0.002 C 
BRANCH  17  18
ATOM     18  C   UNL     1      11.438  -1.779 -10.626  1.00  0.00     0.000 C 
BRANCH  18  19
ATOM     19  C   UNL     1      11.029  -1.714  -9.149  1.00  0.00    -0.000 C 
BRANCH  19  20
ATOM     20  C   UNL     1      11.261  -0.361  -8.470  1.00  0.00    -0.000 C 
BRANCH  20  21
ATOM     21  C   UNL     1       9.969   0.283  -7.960  1.00  0.00    -0.003 C 
ATOM     22  C   UNL     1       9.627   1.538  -8.747  1.00  0.00     0.004 C 
ENDBRANCH  20  21
ENDBRANCH  19  20
ENDBRANCH  18  19
ENDBRANCH  17  18
ENDBRANCH  16  17
ENDBRANCH  12  16
ENDBRANCH   9  12
ENDBRANCH   6   9
ENDBRANCH   3   5
ENDBRANCH   2   3
BRANCH   2  23
ATOM     23  N   UNL     1       8.172  -4.667 -16.925  1.00  0.00    -0.332 N 
ATOM     24  C   UNL     1       7.466  -5.362 -17.991  1.00  0.00     0.147 C 
BRANCH  23  25
ATOM     25  C   UNL     1       7.307  -3.853 -16.027  1.00  0.00     0.174 C 
BRANCH  25  26
ATOM     26  C   UNL     1       7.688  -2.354 -16.022  1.00  0.00     0.038 C 
BRANCH  26  27
ATOM     27  C   UNL     1       6.551  -1.342 -16.289  1.00  0.00    -0.015 C 
ATOM     28  C   UNL     1       7.074   0.076 -16.518  1.00  0.00     0.007 C 
ATOM     29  C   UNL     1       5.619  -1.761 -17.423  1.00  0.00     0.007 C 
ENDBRANCH  26  27
ENDBRANCH  25  26
BRANCH  25  30
ATOM     30  C   UNL     1       7.256  -4.487 -14.618  1.00  0.00     0.243 C 
ATOM     31  O   UNL     1       7.018  -5.682 -14.451  1.00  0.00    -0.273 OA
ATOM     32  N   UNL     1       7.488  -3.630 -13.573  1.00  0.00    -0.342 N 
ATOM     33  H   UNL     1       7.818  -2.688 -13.798  1.00  0.00     0.164 HD
BRANCH  32  34
ATOM     34  C   UNL     1       7.453  -4.049 -12.170  1.00  0.00     0.175 C 
BRANCH  34  35
ATOM     35  C   UNL     1       8.374  -3.176 -11.303  1.00  0.00     0.070 C 
BRANCH  35  36
ATOM     36  C   UNL     1       7.647  -2.011 -10.669  1.00  0.00    -0.045 A 
ATOM     37  C   UNL     1       7.202  -2.100  -9.341  1.00  0.00     0.007 A 
ATOM     38  C   UNL     1       7.388  -0.842 -11.397  1.00  0.00     0.007 A 
ATOM     39  C   UNL     1       6.519  -1.036  -8.752  1.00  0.00     0.046 A 
ATOM     40  C   UNL     1       6.703   0.223 -10.808  1.00  0.00     0.046 A 
ATOM     41  C   UNL     1       6.276   0.117  -9.489  1.00  0.00     0.115 A 
BRANCH  41  42
ATOM     42  O   UNL     1       5.602   1.132  -8.877  1.00  0.00    -0.508 OA
ATOM     43  H   UNL     1       5.264   0.804  -8.027  1.00  0.00     0.293 HD
ENDBRANCH  41  42
ENDBRANCH  35  36
ENDBRANCH  34  35
BRANCH  34  44
ATOM     44  C   UNL     1       5.985  -3.994 -11.690  1.00  0.00     0.243 C 
ATOM     45  O   UNL     1       5.533  -4.662 -10.765  1.00  0.00    -0.273 OA
ATOM     46  N   UNL     1       5.177  -3.212 -12.487  1.00  0.00    -0.341 N 
ATOM     47  H   UNL     1       5.574  -2.771 -13.313  1.00  0.00     0.164 HD
BRANCH  46  48
ATOM     48  C   UNL     1       3.736  -3.061 -12.271  1.00  0.00     0.196 C 
BRANCH  48  49
ATOM     49  C   UNL     1       3.436  -1.956 -11.244  1.00  0.00     0.072 C 
BRANCH  49  50
ATOM     50  C   UNL     1       2.940  -2.506  -9.926  1.00  0.00    -0.045 A 
ATOM     51  C   UNL     1       2.509  -3.838  -9.842  1.00  0.00     0.007 A 
ATOM     52  C   UNL     1       2.881  -1.697  -8.784  1.00  0.00     0.007 A 
ATOM     53  C   UNL     1       2.037  -4.353  -8.635  1.00  0.00     0.046 A 
ATOM     54  C   UNL     1       2.407  -2.212  -7.575  1.00  0.00     0.046 A 
ATOM     55  C   UNL     1       1.989  -3.537  -7.511  1.00  0.00     0.115 A 
BRANCH  55  56
ATOM     56  O   UNL     1       1.519  -4.078  -6.351  1.00  0.00    -0.508 OA
ATOM     57  H   UNL     1       0.911  -3.442  -5.942  1.00  0.00     0.293 HD
ENDBRANCH  55  56
ENDBRANCH  49  50
ENDBRANCH  48  49
BRANCH  48  58
ATOM     58  C   UNL     1       3.064  -2.718 -13.608  1.00  0.00     0.326 C 
ATOM     59  O   UNL     1       3.578  -2.714 -14.714  1.00  0.00    -0.250 OA
BRANCH  58  60
ATOM     60  O   UNL     1       1.749  -2.404 -13.488  1.00  0.00    -0.480 OA
ATOM     61  H   UNL     1       1.295  -3.176 -13.890  1.00  0.00     0.296 HD
ENDBRANCH  58  60
ENDBRANCH  48  58
ENDBRANCH  46  48
ENDBRANCH  34  44
ENDBRANCH  32  34
ENDBRANCH  25  30
ENDBRANCH  23  25
ENDBRANCH   2  23
TORSDOF 28
ENDMDL
MODEL 32
REMARK VINA RESULT:    -4.782      2.580      5.760
REMARK INTER + INTRA:         -19.837
REMARK INTER:                 -13.622
REMARK INTRA:                  -6.216
REMARK UNBOUND:                -7.927
REMARK SMILES CCCCCCC[C@H](N)[C@H](O)C(=O)N[C@H](C)C(=O)N(C)[C@H](CC(C)C)C(=O)N[C@@H](Cc1ccc(O)cc1)C(=O)N[C@@H](Cc1ccc(O)cc1)C(=O)O
REMARK SMILES IDX 18 1 17 2 15 3 16 4 14 5 12 6 13 7 10 9 11 10 8 12 9 13 7 16
REMARK SMILES IDX 6 17 5 18 4 19 3 20 2 21 1 22 19 23 20 24 21 25 22 26 23 27
REMARK SMILES IDX 24 28 25 29 26 30 27 31 28 32 29 34 30 35 31 36 32 37 37 38
REMARK SMILES IDX 33 39 36 40 34 41 35 42 38 44 39 45 40 46 41 48 42 49 43 50
REMARK SMILES IDX 44 51 49 52 45 53 48 54 46 55 47 56 50 58 51 59 52 60
REMARK H PARENT 14 8 11 11 9 14 9 15 28 33 35 43 40 47 47 57 52 61
ROOT
ATOM      1  O   UNL     1       9.352   2.005 -14.695  1.00  0.00    -0.272 OA
ATOM      2  C   UNL     1       8.371   1.477 -15.239  1.00  0.00     0.245 C 
ENDROOT
BRANCH   2   3
ATOM      3  C   UNL     1       7.249   2.390 -15.793  1.00  0.00     0.168 C 
ATOM      4  C   UNL     1       7.758   3.221 -16.967  1.00  0.00     0.041 C 
BRANCH   3   5
ATOM      5  N   UNL     1       6.006   1.707 -16.112  1.00  0.00    -0.342 N 
ATOM      6  C   UNL     1       4.786   2.169 -15.666  1.00  0.00     0.251 C 
ATOM      7  O   UNL     1       4.658   3.152 -14.943  1.00  0.00    -0.272 OA
ATOM      8  H   UNL     1       5.988   0.860 -16.675  1.00  0.00     0.164 HD
BRANCH   6   9
ATOM      9  C   UNL     1       3.602   1.374 -16.240  1.00  0.00     0.219 C 
BRANCH   9  10
ATOM     10  O   UNL     1       3.965   0.592 -17.385  1.00  0.00    -0.382 OA
ATOM     11  H   UNL     1       3.977  -0.328 -17.041  1.00  0.00     0.211 HD
ENDBRANCH   9  10
BRANCH   9  12
ATOM     12  C   UNL     1       2.885   0.498 -15.180  1.00  0.00     0.089 C 
BRANCH  12  13
ATOM     13  N   UNL     1       3.857   0.168 -14.112  1.00  0.00    -0.325 NA
ATOM     14  H   UNL     1       3.752   0.834 -13.345  1.00  0.00     0.119 HD
ATOM     15  H   UNL     1       4.804   0.318 -14.468  1.00  0.00     0.119 HD
ENDBRANCH  12  13
BRANCH  12  16
ATOM     16  C   UNL     1       1.600   1.098 -14.562  1.00  0.00     0.022 C 
BRANCH  16  17
ATOM     17  C   UNL     1       0.896   0.345 -13.424  1.00  0.00     0.002 C 
BRANCH  17  18
ATOM     18  C   UNL     1       1.266   0.810 -12.018  1.00  0.00     0.000 C 
BRANCH  18  19
ATOM     19  C   UNL     1       0.740  -0.101 -10.900  1.00  0.00    -0.000 C 
BRANCH  19  20
ATOM     20  C   UNL     1      -0.614  -0.759 -11.181  1.00  0.00    -0.000 C 
BRANCH  20  21
ATOM     21  C   UNL     1      -1.737  -0.224 -10.289  1.00  0.00    -0.003 C 
ATOM     22  C   UNL     1      -2.211   1.144 -10.754  1.00  0.00     0.004 C 
ENDBRANCH  20  21
ENDBRANCH  19  20
ENDBRANCH  18  19
ENDBRANCH  17  18
ENDBRANCH  16  17
ENDBRANCH  12  16
ENDBRANCH   9  12
ENDBRANCH   6   9
ENDBRANCH   3   5
ENDBRANCH   2   3
BRANCH   2  23
ATOM     23  N   UNL     1       8.349   0.102 -15.450  1.00  0.00    -0.332 N 
ATOM     24  C   UNL     1       9.041  -0.577 -16.536  1.00  0.00     0.147 C 
BRANCH  23  25
ATOM     25  C   UNL     1       7.694  -0.799 -14.464  1.00  0.00     0.174 C 
BRANCH  25  26
ATOM     26  C   UNL     1       8.705  -1.529 -13.550  1.00  0.00     0.038 C 
BRANCH  26  27
ATOM     27  C   UNL     1       8.341  -1.643 -12.053  1.00  0.00    -0.015 C 
ATOM     28  C   UNL     1       8.162  -3.093 -11.604  1.00  0.00     0.007 C 
ATOM     29  C   UNL     1       9.315  -0.912 -11.133  1.00  0.00     0.007 C 
ENDBRANCH  26  27
ENDBRANCH  25  26
BRANCH  25  30
ATOM     30  C   UNL     1       6.708  -1.748 -15.183  1.00  0.00     0.243 C 
ATOM     31  O   UNL     1       5.764  -1.323 -15.848  1.00  0.00    -0.273 OA
ATOM     32  N   UNL     1       6.953  -3.088 -15.025  1.00  0.00    -0.342 N 
ATOM     33  H   UNL     1       7.833  -3.360 -14.579  1.00  0.00     0.164 HD
BRANCH  32  34
ATOM     34  C   UNL     1       6.108  -4.132 -15.612  1.00  0.00     0.175 C 
BRANCH  34  35
ATOM     35  C   UNL     1       6.951  -5.312 -16.121  1.00  0.00     0.070 C 
BRANCH  35  36
ATOM     36  C   UNL     1       8.190  -4.867 -16.865  1.00  0.00    -0.045 A 
ATOM     37  C   UNL     1       8.078  -4.332 -18.157  1.00  0.00     0.007 A 
ATOM     38  C   UNL     1       9.460  -5.003 -16.291  1.00  0.00     0.007 A 
ATOM     39  C   UNL     1       9.217  -3.932 -18.857  1.00  0.00     0.046 A 
ATOM     40  C   UNL     1      10.601  -4.604 -16.991  1.00  0.00     0.046 A 
ATOM     41  C   UNL     1      10.469  -4.070 -18.269  1.00  0.00     0.115 A 
BRANCH  41  42
ATOM     42  O   UNL     1      11.556  -3.670 -18.987  1.00  0.00    -0.508 OA
ATOM     43  H   UNL     1      12.351  -4.044 -18.570  1.00  0.00     0.293 HD
ENDBRANCH  41  42
ENDBRANCH  35  36
ENDBRANCH  34  35
BRANCH  34  44
ATOM     44  C   UNL     1       5.082  -4.574 -14.544  1.00  0.00     0.243 C 
ATOM     45  O   UNL     1       5.166  -5.608 -13.887  1.00  0.00    -0.273 OA
ATOM     46  N   UNL     1       3.973  -3.758 -14.478  1.00  0.00    -0.341 N 
ATOM     47  H   UNL     1       3.895  -2.978 -15.126  1.00  0.00     0.164 HD
BRANCH  46  48
ATOM     48  C   UNL     1       2.836  -4.013 -13.590  1.00  0.00     0.196 C 
BRANCH  48  49
ATOM     49  C   UNL     1       2.604  -2.838 -12.626  1.00  0.00     0.072 C 
BRANCH  49  50
ATOM     50  C   UNL     1       3.084  -3.133 -11.223  1.00  0.00    -0.045 A 
ATOM     51  C   UNL     1       4.450  -3.042 -10.918  1.00  0.00     0.007 A 
ATOM     52  C   UNL     1       2.186  -3.519 -10.220  1.00  0.00     0.007 A 
ATOM     53  C   UNL     1       4.906  -3.325  -9.630  1.00  0.00     0.046 A 
ATOM     54  C   UNL     1       2.643  -3.803  -8.931  1.00  0.00     0.046 A 
ATOM     55  C   UNL     1       4.000  -3.703  -8.647  1.00  0.00     0.115 A 
BRANCH  55  56
ATOM     56  O   UNL     1       4.487  -3.972  -7.402  1.00  0.00    -0.508 OA
ATOM     57  H   UNL     1       5.295  -3.452  -7.270  1.00  0.00     0.293 HD
ENDBRANCH  55  56
ENDBRANCH  49  50
ENDBRANCH  48  49
BRANCH  48  58
ATOM     58  C   UNL     1       1.579  -4.237 -14.441  1.00  0.00     0.326 C 
ATOM     59  O   UNL     1       1.460  -4.977 -15.404  1.00  0.00    -0.250 OA
BRANCH  58  60
ATOM     60  O   UNL     1       0.507  -3.518 -14.023  1.00  0.00    -0.480 OA
ATOM     61  H   UNL     1       0.235  -3.027 -14.829  1.00  0.00     0.296 HD
ENDBRANCH  58  60
ENDBRANCH  48  58
ENDBRANCH  46  48
ENDBRANCH  34  44
ENDBRANCH  32  34
ENDBRANCH  25  30
ENDBRANCH  23  25
ENDBRANCH   2  23
TORSDOF 28
ENDMDL
MODEL 33
REMARK VINA RESULT:    -4.775      2.660      8.343
REMARK INTER + INTRA:         -19.820
REMARK INTER:                 -13.310
REMARK INTRA:                  -6.510
REMARK UNBOUND:                -7.927
REMARK SMILES CCCCCCC[C@H](N)[C@H](O)C(=O)N[C@H](C)C(=O)N(C)[C@H](CC(C)C)C(=O)N[C@@H](Cc1ccc(O)cc1)C(=O)N[C@@H](Cc1ccc(O)cc1)C(=O)O
REMARK SMILES IDX 18 1 17 2 15 3 16 4 14 5 12 6 13 7 10 9 11 10 8 12 9 13 7 16
REMARK SMILES IDX 6 17 5 18 4 19 3 20 2 21 1 22 19 23 20 24 21 25 22 26 23 27
REMARK SMILES IDX 24 28 25 29 26 30 27 31 28 32 29 34 30 35 31 36 32 37 37 38
REMARK SMILES IDX 33 39 36 40 34 41 35 42 38 44 39 45 40 46 41 48 42 49 43 50
REMARK SMILES IDX 44 51 49 52 45 53 48 54 46 55 47 56 50 58 51 59 52 60
REMARK H PARENT 14 8 11 11 9 14 9 15 28 33 35 43 40 47 47 57 52 61
ROOT
ATOM      1  O   UNL     1       0.786  -1.951  -8.728  1.00  0.00    -0.272 OA
ATOM      2  C   UNL     1       1.693  -2.362  -9.467  1.00  0.00     0.245 C 
ENDROOT
BRANCH   2   3
ATOM      3  C   UNL     1       2.914  -3.063  -8.822  1.00  0.00     0.168 C 
ATOM      4  C   UNL     1       2.568  -4.491  -8.417  1.00  0.00     0.041 C 
BRANCH   3   5
ATOM      5  N   UNL     1       4.138  -3.003  -9.606  1.00  0.00    -0.342 N 
ATOM      6  C   UNL     1       5.364  -2.757  -9.025  1.00  0.00     0.251 C 
ATOM      7  O   UNL     1       5.512  -2.530  -7.829  1.00  0.00    -0.272 OA
ATOM      8  H   UNL     1       4.136  -3.141 -10.614  1.00  0.00     0.164 HD
BRANCH   6   9
ATOM      9  C   UNL     1       6.529  -2.882 -10.019  1.00  0.00     0.219 C 
BRANCH   9  10
ATOM     10  O   UNL     1       6.089  -2.942 -11.382  1.00  0.00    -0.382 OA
ATOM     11  H   UNL     1       6.907  -2.767 -11.897  1.00  0.00     0.211 HD
ENDBRANCH   9  10
BRANCH   9  12
ATOM     12  C   UNL     1       7.607  -1.781  -9.837  1.00  0.00     0.089 C 
BRANCH  12  13
ATOM     13  N   UNL     1       8.382  -2.085  -8.612  1.00  0.00    -0.325 NA
ATOM     14  H   UNL     1       7.740  -2.363  -7.868  1.00  0.00     0.119 HD
ATOM     15  H   UNL     1       8.823  -1.225  -8.277  1.00  0.00     0.119 HD
ENDBRANCH  12  13
BRANCH  12  16
ATOM     16  C   UNL     1       8.564  -1.565 -11.033  1.00  0.00     0.022 C 
BRANCH  16  17
ATOM     17  C   UNL     1       9.211  -0.187 -11.232  1.00  0.00     0.002 C 
BRANCH  17  18
ATOM     18  C   UNL     1      10.737  -0.195 -11.293  1.00  0.00     0.000 C 
BRANCH  18  19
ATOM     19  C   UNL     1      11.320  -1.266 -12.224  1.00  0.00    -0.000 C 
BRANCH  19  20
ATOM     20  C   UNL     1      11.900  -0.739 -13.539  1.00  0.00    -0.000 C 
BRANCH  20  21
ATOM     21  C   UNL     1      11.966   0.789 -13.596  1.00  0.00    -0.003 C 
ATOM     22  C   UNL     1      11.129   1.338 -14.741  1.00  0.00     0.004 C 
ENDBRANCH  20  21
ENDBRANCH  19  20
ENDBRANCH  18  19
ENDBRANCH  17  18
ENDBRANCH  16  17
ENDBRANCH  12  16
ENDBRANCH   9  12
ENDBRANCH   6   9
ENDBRANCH   3   5
ENDBRANCH   2   3
BRANCH   2  23
ATOM     23  N   UNL     1       1.547  -2.299 -10.849  1.00  0.00    -0.332 N 
ATOM     24  C   UNL     1       1.402  -3.457 -11.718  1.00  0.00     0.147 C 
BRANCH  23  25
ATOM     25  C   UNL     1       1.399  -0.983 -11.529  1.00  0.00     0.174 C 
BRANCH  25  26
ATOM     26  C   UNL     1      -0.076  -0.535 -11.660  1.00  0.00     0.038 C 
BRANCH  26  27
ATOM     27  C   UNL     1      -0.395   0.935 -11.308  1.00  0.00    -0.015 C 
ATOM     28  C   UNL     1      -1.851   1.133 -10.887  1.00  0.00     0.007 C 
ATOM     29  C   UNL     1       0.551   1.530 -10.267  1.00  0.00     0.007 C 
ENDBRANCH  26  27
ENDBRANCH  25  26
BRANCH  25  30
ATOM     30  C   UNL     1       2.168  -0.988 -12.870  1.00  0.00     0.243 C 
ATOM     31  O   UNL     1       1.602  -0.794 -13.945  1.00  0.00    -0.273 OA
ATOM     32  N   UNL     1       3.515  -1.228 -12.781  1.00  0.00    -0.342 N 
ATOM     33  H   UNL     1       3.934  -1.238 -11.847  1.00  0.00     0.164 HD
BRANCH  32  34
ATOM     34  C   UNL     1       4.397  -1.296 -13.949  1.00  0.00     0.175 C 
BRANCH  34  35
ATOM     35  C   UNL     1       5.764  -0.659 -13.656  1.00  0.00     0.070 C 
BRANCH  35  36
ATOM     36  C   UNL     1       6.095   0.476 -14.599  1.00  0.00    -0.045 A 
ATOM     37  C   UNL     1       7.226   1.274 -14.368  1.00  0.00     0.007 A 
ATOM     38  C   UNL     1       5.272   0.762 -15.697  1.00  0.00     0.007 A 
ATOM     39  C   UNL     1       7.532   2.331 -15.225  1.00  0.00     0.046 A 
ATOM     40  C   UNL     1       5.577   1.821 -16.554  1.00  0.00     0.046 A 
ATOM     41  C   UNL     1       6.706   2.596 -16.311  1.00  0.00     0.115 A 
BRANCH  41  42
ATOM     42  O   UNL     1       7.039   3.641 -17.122  1.00  0.00    -0.508 OA
ATOM     43  H   UNL     1       7.788   3.368 -17.677  1.00  0.00     0.293 HD
ENDBRANCH  41  42
ENDBRANCH  35  36
ENDBRANCH  34  35
BRANCH  34  44
ATOM     44  C   UNL     1       4.528  -2.779 -14.364  1.00  0.00     0.243 C 
ATOM     45  O   UNL     1       3.578  -3.529 -14.569  1.00  0.00    -0.273 OA
ATOM     46  N   UNL     1       5.829  -3.236 -14.361  1.00  0.00    -0.341 N 
ATOM     47  H   UNL     1       6.573  -2.607 -14.071  1.00  0.00     0.164 HD
BRANCH  46  48
ATOM     48  C   UNL     1       6.196  -4.624 -14.654  1.00  0.00     0.196 C 
BRANCH  48  49
ATOM     49  C   UNL     1       7.121  -4.711 -15.879  1.00  0.00     0.072 C 
BRANCH  49  50
ATOM     50  C   UNL     1       7.667  -3.363 -16.294  1.00  0.00    -0.045 A 
ATOM     51  C   UNL     1       7.033  -2.636 -17.312  1.00  0.00     0.007 A 
ATOM     52  C   UNL     1       8.814  -2.833 -15.690  1.00  0.00     0.007 A 
ATOM     53  C   UNL     1       7.534  -1.398 -17.712  1.00  0.00     0.046 A 
ATOM     54  C   UNL     1       9.317  -1.594 -16.092  1.00  0.00     0.046 A 
ATOM     55  C   UNL     1       8.671  -0.885 -17.099  1.00  0.00     0.115 A 
BRANCH  55  56
ATOM     56  O   UNL     1       9.131   0.327 -17.521  1.00  0.00    -0.508 OA
ATOM     57  H   UNL     1       8.769   0.501 -18.405  1.00  0.00     0.293 HD
ENDBRANCH  55  56
ENDBRANCH  49  50
ENDBRANCH  48  49
BRANCH  48  58
ATOM     58  C   UNL     1       6.903  -5.222 -13.430  1.00  0.00     0.326 C 
ATOM     59  O   UNL     1       7.881  -4.778 -12.851  1.00  0.00    -0.250 OA
BRANCH  58  60
ATOM     60  O   UNL     1       6.326  -6.363 -12.976  1.00  0.00    -0.480 OA
ATOM     61  H   UNL     1       6.321  -6.242 -12.002  1.00  0.00     0.296 HD
ENDBRANCH  58  60
ENDBRANCH  48  58
ENDBRANCH  46  48
ENDBRANCH  34  44
ENDBRANCH  32  34
ENDBRANCH  25  30
ENDBRANCH  23  25
ENDBRANCH   2  23
TORSDOF 28
ENDMDL
MODEL 34
REMARK VINA RESULT:    -4.770      2.097      6.902
REMARK INTER + INTRA:         -19.807
REMARK INTER:                 -15.386
REMARK INTRA:                  -4.421
REMARK UNBOUND:                -7.927
REMARK SMILES CCCCCCC[C@H](N)[C@H](O)C(=O)N[C@H](C)C(=O)N(C)[C@H](CC(C)C)C(=O)N[C@@H](Cc1ccc(O)cc1)C(=O)N[C@@H](Cc1ccc(O)cc1)C(=O)O
REMARK SMILES IDX 18 1 17 2 15 3 16 4 14 5 12 6 13 7 10 9 11 10 8 12 9 13 7 16
REMARK SMILES IDX 6 17 5 18 4 19 3 20 2 21 1 22 19 23 20 24 21 25 22 26 23 27
REMARK SMILES IDX 24 28 25 29 26 30 27 31 28 32 29 34 30 35 31 36 32 37 37 38
REMARK SMILES IDX 33 39 36 40 34 41 35 42 38 44 39 45 40 46 41 48 42 49 43 50
REMARK SMILES IDX 44 51 49 52 45 53 48 54 46 55 47 56 50 58 51 59 52 60
REMARK H PARENT 14 8 11 11 9 14 9 15 28 33 35 43 40 47 47 57 52 61
ROOT
ATOM      1  O   UNL     1       6.524  -1.023 -11.450  1.00  0.00    -0.272 OA
ATOM      2  C   UNL     1       7.003  -1.722 -10.545  1.00  0.00     0.245 C 
ENDROOT
BRANCH   2   3
ATOM      3  C   UNL     1       6.152  -1.978  -9.277  1.00  0.00     0.168 C 
ATOM      4  C   UNL     1       5.746  -0.661  -8.622  1.00  0.00     0.041 C 
BRANCH   3   5
ATOM      5  N   UNL     1       5.011  -2.859  -9.473  1.00  0.00    -0.342 N 
ATOM      6  C   UNL     1       4.393  -3.496  -8.418  1.00  0.00     0.251 C 
ATOM      7  O   UNL     1       4.773  -3.404  -7.256  1.00  0.00    -0.272 OA
ATOM      8  H   UNL     1       4.627  -3.040 -10.398  1.00  0.00     0.164 HD
BRANCH   6   9
ATOM      9  C   UNL     1       3.128  -4.259  -8.844  1.00  0.00     0.219 C 
BRANCH   9  10
ATOM     10  O   UNL     1       2.267  -4.560  -7.739  1.00  0.00    -0.382 OA
ATOM     11  H   UNL     1       1.565  -3.875  -7.799  1.00  0.00     0.211 HD
ENDBRANCH   9  10
BRANCH   9  12
ATOM     12  C   UNL     1       2.342  -3.551  -9.978  1.00  0.00     0.089 C 
BRANCH  12  13
ATOM     13  N   UNL     1       1.390  -4.522 -10.564  1.00  0.00    -0.325 NA
ATOM     14  H   UNL     1       1.024  -4.147 -11.440  1.00  0.00     0.119 HD
ATOM     15  H   UNL     1       0.577  -4.602  -9.948  1.00  0.00     0.119 HD
ENDBRANCH  12  13
BRANCH  12  16
ATOM     16  C   UNL     1       1.599  -2.253  -9.580  1.00  0.00     0.022 C 
BRANCH  16  17
ATOM     17  C   UNL     1       1.461  -1.125 -10.612  1.00  0.00     0.002 C 
BRANCH  17  18
ATOM     18  C   UNL     1       0.189  -1.176 -11.456  1.00  0.00     0.000 C 
BRANCH  18  19
ATOM     19  C   UNL     1       0.445  -1.264 -12.966  1.00  0.00    -0.000 C 
BRANCH  19  20
ATOM     20  C   UNL     1       0.340  -2.670 -13.563  1.00  0.00    -0.000 C 
BRANCH  20  21
ATOM     21  C   UNL     1       1.703  -3.284 -13.894  1.00  0.00    -0.003 C 
ATOM     22  C   UNL     1       1.552  -4.649 -14.547  1.00  0.00     0.004 C 
ENDBRANCH  20  21
ENDBRANCH  19  20
ENDBRANCH  18  19
ENDBRANCH  17  18
ENDBRANCH  16  17
ENDBRANCH  12  16
ENDBRANCH   9  12
ENDBRANCH   6   9
ENDBRANCH   3   5
ENDBRANCH   2   3
BRANCH   2  23
ATOM     23  N   UNL     1       8.227  -2.357 -10.730  1.00  0.00    -0.332 N 
ATOM     24  C   UNL     1       9.151  -2.698  -9.659  1.00  0.00     0.147 C 
BRANCH  23  25
ATOM     25  C   UNL     1       8.617  -2.857 -12.077  1.00  0.00     0.174 C 
BRANCH  25  26
ATOM     26  C   UNL     1       8.961  -1.718 -13.066  1.00  0.00     0.038 C 
BRANCH  26  27
ATOM     27  C   UNL     1      10.044  -0.709 -12.622  1.00  0.00    -0.015 C 
ATOM     28  C   UNL     1      11.454  -1.162 -12.998  1.00  0.00     0.007 C 
ATOM     29  C   UNL     1       9.787   0.713 -13.115  1.00  0.00     0.007 C 
ENDBRANCH  26  27
ENDBRANCH  25  26
BRANCH  25  30
ATOM     30  C   UNL     1       7.551  -3.841 -12.609  1.00  0.00     0.243 C 
ATOM     31  O   UNL     1       6.808  -4.466 -11.854  1.00  0.00    -0.273 OA
ATOM     32  N   UNL     1       7.494  -3.974 -13.973  1.00  0.00    -0.342 N 
ATOM     33  H   UNL     1       8.043  -3.319 -14.536  1.00  0.00     0.164 HD
BRANCH  32  34
ATOM     34  C   UNL     1       6.565  -4.881 -14.652  1.00  0.00     0.175 C 
BRANCH  34  35
ATOM     35  C   UNL     1       5.185  -4.231 -14.836  1.00  0.00     0.070 C 
BRANCH  35  36
ATOM     36  C   UNL     1       5.270  -2.818 -15.366  1.00  0.00    -0.045 A 
ATOM     37  C   UNL     1       5.438  -2.593 -16.741  1.00  0.00     0.007 A 
ATOM     38  C   UNL     1       5.205  -1.720 -14.499  1.00  0.00     0.007 A 
ATOM     39  C   UNL     1       5.531  -1.292 -17.238  1.00  0.00     0.046 A 
ATOM     40  C   UNL     1       5.300  -0.417 -14.995  1.00  0.00     0.046 A 
ATOM     41  C   UNL     1       5.461  -0.216 -16.362  1.00  0.00     0.115 A 
BRANCH  41  42
ATOM     42  O   UNL     1       5.559   1.039 -16.887  1.00  0.00    -0.508 OA
ATOM     43  H   UNL     1       4.888   1.131 -17.584  1.00  0.00     0.293 HD
ENDBRANCH  41  42
ENDBRANCH  35  36
ENDBRANCH  34  35
BRANCH  34  44
ATOM     44  C   UNL     1       7.196  -5.289 -16.002  1.00  0.00     0.243 C 
ATOM     45  O   UNL     1       6.559  -5.687 -16.974  1.00  0.00    -0.273 OA
ATOM     46  N   UNL     1       8.574  -5.293 -15.985  1.00  0.00    -0.341 N 
ATOM     47  H   UNL     1       9.058  -5.068 -15.119  1.00  0.00     0.164 HD
BRANCH  46  48
ATOM     48  C   UNL     1       9.393  -5.710 -17.126  1.00  0.00     0.196 C 
BRANCH  48  49
ATOM     49  C   UNL     1       9.439  -4.620 -18.210  1.00  0.00     0.072 C 
BRANCH  49  50
ATOM     50  C   UNL     1       9.900  -3.284 -17.673  1.00  0.00    -0.045 A 
ATOM     51  C   UNL     1      11.265  -2.960 -17.682  1.00  0.00     0.007 A 
ATOM     52  C   UNL     1       8.985  -2.366 -17.143  1.00  0.00     0.007 A 
ATOM     53  C   UNL     1      11.703  -1.736 -17.178  1.00  0.00     0.046 A 
ATOM     54  C   UNL     1       9.424  -1.140 -16.637  1.00  0.00     0.046 A 
ATOM     55  C   UNL     1      10.781  -0.836 -16.659  1.00  0.00     0.115 A 
BRANCH  55  56
ATOM     56  O   UNL     1      11.251   0.349 -16.174  1.00  0.00    -0.508 OA
ATOM     57  H   UNL     1      10.497   0.867 -15.850  1.00  0.00     0.293 HD
ENDBRANCH  55  56
ENDBRANCH  49  50
ENDBRANCH  48  49
BRANCH  48  58
ATOM     58  C   UNL     1      10.817  -6.009 -16.636  1.00  0.00     0.326 C 
ATOM     59  O   UNL     1      11.727  -6.516 -17.272  1.00  0.00    -0.250 OA
BRANCH  58  60
ATOM     60  O   UNL     1      11.036  -5.634 -15.350  1.00  0.00    -0.480 OA
ATOM     61  H   UNL     1      11.803  -5.025 -15.419  1.00  0.00     0.296 HD
ENDBRANCH  58  60
ENDBRANCH  48  58
ENDBRANCH  46  48
ENDBRANCH  34  44
ENDBRANCH  32  34
ENDBRANCH  25  30
ENDBRANCH  23  25
ENDBRANCH   2  23
TORSDOF 28
ENDMDL
MODEL 35
REMARK VINA RESULT:    -4.761      1.964      3.691
REMARK INTER + INTRA:         -19.785
REMARK INTER:                 -12.870
REMARK INTRA:                  -6.915
REMARK UNBOUND:                -7.927
REMARK SMILES CCCCCCC[C@H](N)[C@H](O)C(=O)N[C@H](C)C(=O)N(C)[C@H](CC(C)C)C(=O)N[C@@H](Cc1ccc(O)cc1)C(=O)N[C@@H](Cc1ccc(O)cc1)C(=O)O
REMARK SMILES IDX 18 1 17 2 15 3 16 4 14 5 12 6 13 7 10 9 11 10 8 12 9 13 7 16
REMARK SMILES IDX 6 17 5 18 4 19 3 20 2 21 1 22 19 23 20 24 21 25 22 26 23 27
REMARK SMILES IDX 24 28 25 29 26 30 27 31 28 32 29 34 30 35 31 36 32 37 37 38
REMARK SMILES IDX 33 39 36 40 34 41 35 42 38 44 39 45 40 46 41 48 42 49 43 50
REMARK SMILES IDX 44 51 49 52 45 53 48 54 46 55 47 56 50 58 51 59 52 60
REMARK H PARENT 14 8 11 11 9 14 9 15 28 33 35 43 40 47 47 57 52 61
ROOT
ATOM      1  O   UNL     1       7.783  -2.257 -18.453  1.00  0.00    -0.272 OA
ATOM      2  C   UNL     1       7.988  -2.969 -17.459  1.00  0.00     0.245 C 
ENDROOT
BRANCH   2   3
ATOM      3  C   UNL     1       7.367  -4.387 -17.422  1.00  0.00     0.168 C 
ATOM      4  C   UNL     1       8.399  -5.441 -17.810  1.00  0.00     0.041 C 
BRANCH   3   5
ATOM      5  N   UNL     1       6.688  -4.725 -16.181  1.00  0.00    -0.342 N 
ATOM      6  C   UNL     1       5.444  -4.218 -15.871  1.00  0.00     0.251 C 
ATOM      7  O   UNL     1       4.840  -3.423 -16.583  1.00  0.00    -0.272 OA
ATOM      8  H   UNL     1       7.105  -5.348 -15.494  1.00  0.00     0.164 HD
BRANCH   6   9
ATOM      9  C   UNL     1       4.861  -4.821 -14.582  1.00  0.00     0.219 C 
BRANCH   9  10
ATOM     10  O   UNL     1       5.822  -5.588 -13.847  1.00  0.00    -0.382 OA
ATOM     11  H   UNL     1       6.638  -5.043 -13.895  1.00  0.00     0.211 HD
ENDBRANCH   9  10
BRANCH   9  12
ATOM     12  C   UNL     1       4.183  -3.766 -13.669  1.00  0.00     0.089 C 
BRANCH  12  13
ATOM     13  N   UNL     1       5.002  -2.533 -13.691  1.00  0.00    -0.325 NA
ATOM     14  H   UNL     1       4.437  -1.748 -13.362  1.00  0.00     0.119 HD
ATOM     15  H   UNL     1       5.235  -2.307 -14.661  1.00  0.00     0.119 HD
ENDBRANCH  12  13
BRANCH  12  16
ATOM     16  C   UNL     1       2.709  -3.430 -14.000  1.00  0.00     0.022 C 
BRANCH  16  17
ATOM     17  C   UNL     1       1.596  -4.342 -13.462  1.00  0.00     0.002 C 
BRANCH  17  18
ATOM     18  C   UNL     1       1.276  -4.162 -11.980  1.00  0.00     0.000 C 
BRANCH  18  19
ATOM     19  C   UNL     1       1.707  -2.805 -11.408  1.00  0.00    -0.000 C 
BRANCH  19  20
ATOM     20  C   UNL     1       1.776  -2.736  -9.880  1.00  0.00    -0.000 C 
BRANCH  20  21
ATOM     21  C   UNL     1       2.776  -3.728  -9.279  1.00  0.00    -0.003 C 
ATOM     22  C   UNL     1       2.157  -4.515  -8.134  1.00  0.00     0.004 C 
ENDBRANCH  20  21
ENDBRANCH  19  20
ENDBRANCH  18  19
ENDBRANCH  17  18
ENDBRANCH  16  17
ENDBRANCH  12  16
ENDBRANCH   9  12
ENDBRANCH   6   9
ENDBRANCH   3   5
ENDBRANCH   2   3
BRANCH   2  23
ATOM     23  N   UNL     1       8.859  -2.539 -16.464  1.00  0.00    -0.332 N 
ATOM     24  C   UNL     1      10.309  -2.636 -16.536  1.00  0.00     0.147 C 
BRANCH  23  25
ATOM     25  C   UNL     1       8.339  -1.810 -15.274  1.00  0.00     0.174 C 
BRANCH  25  26
ATOM     26  C   UNL     1       9.039  -0.449 -15.048  1.00  0.00     0.038 C 
BRANCH  26  27
ATOM     27  C   UNL     1       8.171   0.819 -15.205  1.00  0.00    -0.015 C 
ATOM     28  C   UNL     1       7.024   0.622 -16.196  1.00  0.00     0.007 C 
ATOM     29  C   UNL     1       7.647   1.365 -13.880  1.00  0.00     0.007 C 
ENDBRANCH  26  27
ENDBRANCH  25  26
BRANCH  25  30
ATOM     30  C   UNL     1       8.359  -2.733 -14.034  1.00  0.00     0.243 C 
ATOM     31  O   UNL     1       8.533  -3.947 -14.130  1.00  0.00    -0.273 OA
ATOM     32  N   UNL     1       8.165  -2.111 -12.828  1.00  0.00    -0.342 N 
ATOM     33  H   UNL     1       8.169  -1.088 -12.817  1.00  0.00     0.164 HD
BRANCH  32  34
ATOM     34  C   UNL     1       8.126  -2.830 -11.552  1.00  0.00     0.175 C 
BRANCH  34  35
ATOM     35  C   UNL     1       9.239  -2.352 -10.606  1.00  0.00     0.070 C 
BRANCH  35  36
ATOM     36  C   UNL     1       9.972  -1.139 -11.133  1.00  0.00    -0.045 A 
ATOM     37  C   UNL     1       9.554   0.149 -10.765  1.00  0.00     0.007 A 
ATOM     38  C   UNL     1      11.057  -1.279 -12.008  1.00  0.00     0.007 A 
ATOM     39  C   UNL     1      10.216   1.274 -11.256  1.00  0.00     0.046 A 
ATOM     40  C   UNL     1      11.720  -0.153 -12.502  1.00  0.00     0.046 A 
ATOM     41  C   UNL     1      11.293   1.115 -12.120  1.00  0.00     0.115 A 
BRANCH  41  42
ATOM     42  O   UNL     1      11.911   2.240 -12.581  1.00  0.00    -0.508 OA
ATOM     43  H   UNL     1      12.661   1.970 -13.136  1.00  0.00     0.293 HD
ENDBRANCH  41  42
ENDBRANCH  35  36
ENDBRANCH  34  35
BRANCH  34  44
ATOM     44  C   UNL     1       6.722  -2.636 -10.935  1.00  0.00     0.243 C 
ATOM     45  O   UNL     1       5.957  -3.553 -10.650  1.00  0.00    -0.273 OA
ATOM     46  N   UNL     1       6.338  -1.315 -10.850  1.00  0.00    -0.341 N 
ATOM     47  H   UNL     1       6.961  -0.595 -11.208  1.00  0.00     0.164 HD
BRANCH  46  48
ATOM     48  C   UNL     1       5.025  -0.887 -10.363  1.00  0.00     0.196 C 
BRANCH  48  49
ATOM     49  C   UNL     1       5.147  -0.068  -9.067  1.00  0.00     0.072 C 
BRANCH  49  50
ATOM     50  C   UNL     1       4.492  -0.747  -7.885  1.00  0.00    -0.045 A 
ATOM     51  C   UNL     1       3.211  -0.350  -7.473  1.00  0.00     0.007 A 
ATOM     52  C   UNL     1       5.154  -1.758  -7.177  1.00  0.00     0.007 A 
ATOM     53  C   UNL     1       2.602  -0.960  -6.377  1.00  0.00     0.046 A 
ATOM     54  C   UNL     1       4.544  -2.367  -6.078  1.00  0.00     0.046 A 
ATOM     55  C   UNL     1       3.272  -1.963  -5.688  1.00  0.00     0.115 A 
BRANCH  55  56
ATOM     56  O   UNL     1       2.642  -2.533  -4.621  1.00  0.00    -0.508 OA
ATOM     57  H   UNL     1       2.887  -2.038  -3.822  1.00  0.00     0.293 HD
ENDBRANCH  55  56
ENDBRANCH  49  50
ENDBRANCH  48  49
BRANCH  48  58
ATOM     58  C   UNL     1       4.343  -0.039 -11.445  1.00  0.00     0.326 C 
ATOM     59  O   UNL     1       4.698   0.106 -12.604  1.00  0.00    -0.250 OA
BRANCH  58  60
ATOM     60  O   UNL     1       3.218   0.587 -11.014  1.00  0.00    -0.480 OA
ATOM     61  H   UNL     1       2.497   0.072 -11.438  1.00  0.00     0.296 HD
ENDBRANCH  58  60
ENDBRANCH  48  58
ENDBRANCH  46  48
ENDBRANCH  34  44
ENDBRANCH  32  34
ENDBRANCH  25  30
ENDBRANCH  23  25
ENDBRANCH   2  23
TORSDOF 28
ENDMDL
MODEL 36
REMARK VINA RESULT:    -4.746      2.617      8.165
REMARK INTER + INTRA:         -19.748
REMARK INTER:                 -13.093
REMARK INTRA:                  -6.655
REMARK UNBOUND:                -7.927
REMARK SMILES CCCCCCC[C@H](N)[C@H](O)C(=O)N[C@H](C)C(=O)N(C)[C@H](CC(C)C)C(=O)N[C@@H](Cc1ccc(O)cc1)C(=O)N[C@@H](Cc1ccc(O)cc1)C(=O)O
REMARK SMILES IDX 18 1 17 2 15 3 16 4 14 5 12 6 13 7 10 9 11 10 8 12 9 13 7 16
REMARK SMILES IDX 6 17 5 18 4 19 3 20 2 21 1 22 19 23 20 24 21 25 22 26 23 27
REMARK SMILES IDX 24 28 25 29 26 30 27 31 28 32 29 34 30 35 31 36 32 37 37 38
REMARK SMILES IDX 33 39 36 40 34 41 35 42 38 44 39 45 40 46 41 48 42 49 43 50
REMARK SMILES IDX 44 51 49 52 45 53 48 54 46 55 47 56 50 58 51 59 52 60
REMARK H PARENT 14 8 11 11 9 14 9 15 28 33 35 43 40 47 47 57 52 61
ROOT
ATOM      1  O   UNL     1       4.418  -3.813  -7.460  1.00  0.00    -0.272 OA
ATOM      2  C   UNL     1       4.797  -2.892  -8.198  1.00  0.00     0.245 C 
ENDROOT
BRANCH   2   3
ATOM      3  C   UNL     1       5.621  -1.736  -7.578  1.00  0.00     0.168 C 
ATOM      4  C   UNL     1       5.456  -1.707  -6.062  1.00  0.00     0.041 C 
BRANCH   3   5
ATOM      5  N   UNL     1       7.021  -1.704  -7.971  1.00  0.00    -0.342 N 
ATOM      6  C   UNL     1       7.461  -0.940  -9.031  1.00  0.00     0.251 C 
ATOM      7  O   UNL     1       6.715  -0.272  -9.740  1.00  0.00    -0.272 OA
ATOM      8  H   UNL     1       7.729  -2.244  -7.480  1.00  0.00     0.164 HD
BRANCH   6   9
ATOM      9  C   UNL     1       8.992  -0.947  -9.174  1.00  0.00     0.219 C 
BRANCH   9  10
ATOM     10  O   UNL     1       9.578  -2.190  -8.770  1.00  0.00    -0.382 OA
ATOM     11  H   UNL     1       9.697  -2.675  -9.616  1.00  0.00     0.211 HD
ENDBRANCH   9  10
BRANCH   9  12
ATOM     12  C   UNL     1       9.473  -0.547 -10.593  1.00  0.00     0.089 C 
BRANCH  12  13
ATOM     13  N   UNL     1       9.030   0.841 -10.863  1.00  0.00    -0.325 NA
ATOM     14  H   UNL     1       8.793   0.932 -11.852  1.00  0.00     0.119 HD
ATOM     15  H   UNL     1       9.820   1.474 -10.718  1.00  0.00     0.119 HD
ENDBRANCH  12  13
BRANCH  12  16
ATOM     16  C   UNL     1      10.992  -0.681 -10.857  1.00  0.00     0.022 C 
BRANCH  16  17
ATOM     17  C   UNL     1      11.500  -0.692 -12.306  1.00  0.00     0.002 C 
BRANCH  17  18
ATOM     18  C   UNL     1      10.618  -1.453 -13.293  1.00  0.00     0.000 C 
BRANCH  18  19
ATOM     19  C   UNL     1      10.837  -1.058 -14.759  1.00  0.00    -0.000 C 
BRANCH  19  20
ATOM     20  C   UNL     1       9.944   0.078 -15.267  1.00  0.00    -0.000 C 
BRANCH  20  21
ATOM     21  C   UNL     1       9.070  -0.333 -16.455  1.00  0.00    -0.003 C 
ATOM     22  C   UNL     1       7.777   0.468 -16.496  1.00  0.00     0.004 C 
ENDBRANCH  20  21
ENDBRANCH  19  20
ENDBRANCH  18  19
ENDBRANCH  17  18
ENDBRANCH  16  17
ENDBRANCH  12  16
ENDBRANCH   9  12
ENDBRANCH   6   9
ENDBRANCH   3   5
ENDBRANCH   2   3
BRANCH   2  23
ATOM     23  N   UNL     1       4.587  -2.969  -9.571  1.00  0.00    -0.332 N 
ATOM     24  C   UNL     1       5.362  -3.801 -10.480  1.00  0.00     0.147 C 
BRANCH  23  25
ATOM     25  C   UNL     1       3.429  -2.272 -10.194  1.00  0.00     0.174 C 
BRANCH  25  26
ATOM     26  C   UNL     1       2.656  -1.378  -9.196  1.00  0.00     0.038 C 
BRANCH  26  27
ATOM     27  C   UNL     1       2.845   0.149  -9.333  1.00  0.00    -0.015 C 
ATOM     28  C   UNL     1       3.289   0.559 -10.737  1.00  0.00     0.007 C 
ATOM     29  C   UNL     1       1.622   0.954  -8.901  1.00  0.00     0.007 C 
ENDBRANCH  26  27
ENDBRANCH  25  26
BRANCH  25  30
ATOM     30  C   UNL     1       2.533  -3.289 -10.939  1.00  0.00     0.243 C 
ATOM     31  O   UNL     1       1.909  -4.165 -10.342  1.00  0.00    -0.273 OA
ATOM     32  N   UNL     1       2.489  -3.154 -12.302  1.00  0.00    -0.342 N 
ATOM     33  H   UNL     1       2.920  -2.319 -12.710  1.00  0.00     0.164 HD
BRANCH  32  34
ATOM     34  C   UNL     1       1.716  -4.044 -13.172  1.00  0.00     0.175 C 
BRANCH  34  35
ATOM     35  C   UNL     1       0.392  -3.394 -13.603  1.00  0.00     0.070 C 
BRANCH  35  36
ATOM     36  C   UNL     1       0.307  -1.933 -13.223  1.00  0.00    -0.045 A 
ATOM     37  C   UNL     1       0.940  -0.963 -14.016  1.00  0.00     0.007 A 
ATOM     38  C   UNL     1      -0.378  -1.528 -12.069  1.00  0.00     0.007 A 
ATOM     39  C   UNL     1       0.879   0.386 -13.666  1.00  0.00     0.046 A 
ATOM     40  C   UNL     1      -0.438  -0.178 -11.717  1.00  0.00     0.046 A 
ATOM     41  C   UNL     1       0.191   0.768 -12.521  1.00  0.00     0.115 A 
BRANCH  41  42
ATOM     42  O   UNL     1       0.158   2.096 -12.212  1.00  0.00    -0.508 OA
ATOM     43  H   UNL     1       0.518   2.209 -11.317  1.00  0.00     0.293 HD
ENDBRANCH  41  42
ENDBRANCH  35  36
ENDBRANCH  34  35
BRANCH  34  44
ATOM     44  C   UNL     1       2.599  -4.414 -14.385  1.00  0.00     0.243 C 
ATOM     45  O   UNL     1       2.164  -4.790 -15.470  1.00  0.00    -0.273 OA
ATOM     46  N   UNL     1       3.948  -4.412 -14.102  1.00  0.00    -0.341 N 
ATOM     47  H   UNL     1       4.254  -4.207 -13.154  1.00  0.00     0.164 HD
BRANCH  46  48
ATOM     48  C   UNL     1       4.976  -4.795 -15.073  1.00  0.00     0.196 C 
BRANCH  48  49
ATOM     49  C   UNL     1       5.546  -3.565 -15.799  1.00  0.00     0.072 C 
BRANCH  49  50
ATOM     50  C   UNL     1       5.756  -2.388 -14.873  1.00  0.00    -0.045 A 
ATOM     51  C   UNL     1       4.834  -1.332 -14.865  1.00  0.00     0.007 A 
ATOM     52  C   UNL     1       6.874  -2.324 -14.032  1.00  0.00     0.007 A 
ATOM     53  C   UNL     1       5.025  -0.235 -14.025  1.00  0.00     0.046 A 
ATOM     54  C   UNL     1       7.066  -1.225 -13.191  1.00  0.00     0.046 A 
ATOM     55  C   UNL     1       6.138  -0.190 -13.194  1.00  0.00     0.115 A 
BRANCH  55  56
ATOM     56  O   UNL     1       6.288   0.901 -12.389  1.00  0.00    -0.508 OA
ATOM     57  H   UNL     1       6.321   0.598 -11.468  1.00  0.00     0.293 HD
ENDBRANCH  55  56
ENDBRANCH  49  50
ENDBRANCH  48  49
BRANCH  48  58
ATOM     58  C   UNL     1       6.106  -5.530 -14.341  1.00  0.00     0.326 C 
ATOM     59  O   UNL     1       6.096  -5.946 -13.193  1.00  0.00    -0.250 OA
BRANCH  58  60
ATOM     60  O   UNL     1       7.211  -5.724 -15.105  1.00  0.00    -0.480 OA
ATOM     61  H   UNL     1       7.941  -5.405 -14.531  1.00  0.00     0.296 HD
ENDBRANCH  58  60
ENDBRANCH  48  58
ENDBRANCH  46  48
ENDBRANCH  34  44
ENDBRANCH  32  34
ENDBRANCH  25  30
ENDBRANCH  23  25
ENDBRANCH   2  23
TORSDOF 28
ENDMDL
MODEL 37
REMARK VINA RESULT:    -4.737      2.656      6.828
REMARK INTER + INTRA:         -19.725
REMARK INTER:                 -15.956
REMARK INTRA:                  -3.769
REMARK UNBOUND:                -7.927
REMARK SMILES CCCCCCC[C@H](N)[C@H](O)C(=O)N[C@H](C)C(=O)N(C)[C@H](CC(C)C)C(=O)N[C@@H](Cc1ccc(O)cc1)C(=O)N[C@@H](Cc1ccc(O)cc1)C(=O)O
REMARK SMILES IDX 18 1 17 2 15 3 16 4 14 5 12 6 13 7 10 9 11 10 8 12 9 13 7 16
REMARK SMILES IDX 6 17 5 18 4 19 3 20 2 21 1 22 19 23 20 24 21 25 22 26 23 27
REMARK SMILES IDX 24 28 25 29 26 30 27 31 28 32 29 34 30 35 31 36 32 37 37 38
REMARK SMILES IDX 33 39 36 40 34 41 35 42 38 44 39 45 40 46 41 48 42 49 43 50
REMARK SMILES IDX 44 51 49 52 45 53 48 54 46 55 47 56 50 58 51 59 52 60
REMARK H PARENT 14 8 11 11 9 14 9 15 28 33 35 43 40 47 47 57 52 61
ROOT
ATOM      1  O   UNL     1       4.887  -2.845 -17.490  1.00  0.00    -0.272 OA
ATOM      2  C   UNL     1       5.580  -2.093 -16.789  1.00  0.00     0.245 C 
ENDROOT
BRANCH   2   3
ATOM      3  C   UNL     1       7.025  -1.775 -17.248  1.00  0.00     0.168 C 
ATOM      4  C   UNL     1       7.603  -0.611 -16.450  1.00  0.00     0.041 C 
BRANCH   3   5
ATOM      5  N   UNL     1       7.925  -2.917 -17.270  1.00  0.00    -0.342 N 
ATOM      6  C   UNL     1       8.599  -3.292 -18.413  1.00  0.00     0.251 C 
ATOM      7  O   UNL     1       8.463  -2.728 -19.494  1.00  0.00    -0.272 OA
ATOM      8  H   UNL     1       8.092  -3.484 -16.442  1.00  0.00     0.164 HD
BRANCH   6   9
ATOM      9  C   UNL     1       9.599  -4.433 -18.167  1.00  0.00     0.219 C 
BRANCH   9  10
ATOM     10  O   UNL     1      10.765  -4.333 -18.993  1.00  0.00    -0.382 OA
ATOM     11  H   UNL     1      11.439  -4.855 -18.505  1.00  0.00     0.211 HD
ENDBRANCH   9  10
BRANCH   9  12
ATOM     12  C   UNL     1       9.992  -4.587 -16.675  1.00  0.00     0.089 C 
BRANCH  12  13
ATOM     13  N   UNL     1       9.182  -5.678 -16.087  1.00  0.00    -0.325 NA
ATOM     14  H   UNL     1       8.393  -5.275 -15.580  1.00  0.00     0.119 HD
ATOM     15  H   UNL     1       9.739  -6.158 -15.377  1.00  0.00     0.119 HD
ENDBRANCH  12  13
BRANCH  12  16
ATOM     16  C   UNL     1      11.494  -4.828 -16.391  1.00  0.00     0.022 C 
BRANCH  16  17
ATOM     17  C   UNL     1      12.353  -3.665 -15.875  1.00  0.00     0.002 C 
BRANCH  17  18
ATOM     18  C   UNL     1      11.684  -2.294 -15.933  1.00  0.00     0.000 C 
BRANCH  18  19
ATOM     19  C   UNL     1      12.534  -1.159 -15.347  1.00  0.00    -0.000 C 
BRANCH  19  20
ATOM     20  C   UNL     1      11.881  -0.385 -14.198  1.00  0.00    -0.000 C 
BRANCH  20  21
ATOM     21  C   UNL     1      11.723  -1.221 -12.925  1.00  0.00    -0.003 C 
ATOM     22  C   UNL     1      11.157  -0.391 -11.783  1.00  0.00     0.004 C 
ENDBRANCH  20  21
ENDBRANCH  19  20
ENDBRANCH  18  19
ENDBRANCH  17  18
ENDBRANCH  16  17
ENDBRANCH  12  16
ENDBRANCH   9  12
ENDBRANCH   6   9
ENDBRANCH   3   5
ENDBRANCH   2   3
BRANCH   2  23
ATOM     23  N   UNL     1       5.021  -1.460 -15.684  1.00  0.00    -0.332 N 
ATOM     24  C   UNL     1       4.214  -0.251 -15.746  1.00  0.00     0.147 C 
BRANCH  23  25
ATOM     25  C   UNL     1       5.115  -2.082 -14.334  1.00  0.00     0.174 C 
BRANCH  25  26
ATOM     26  C   UNL     1       6.069  -3.299 -14.297  1.00  0.00     0.038 C 
BRANCH  26  27
ATOM     27  C   UNL     1       7.146  -3.311 -13.190  1.00  0.00    -0.015 C 
ATOM     28  C   UNL     1       7.329  -4.695 -12.568  1.00  0.00     0.007 C 
ATOM     29  C   UNL     1       8.489  -2.744 -13.643  1.00  0.00     0.007 C 
ENDBRANCH  26  27
ENDBRANCH  25  26
BRANCH  25  30
ATOM     30  C   UNL     1       3.701  -2.383 -13.787  1.00  0.00     0.243 C 
ATOM     31  O   UNL     1       2.927  -3.143 -14.368  1.00  0.00    -0.273 OA
ATOM     32  N   UNL     1       3.368  -1.744 -12.620  1.00  0.00    -0.342 N 
ATOM     33  H   UNL     1       4.111  -1.243 -12.126  1.00  0.00     0.164 HD
BRANCH  32  34
ATOM     34  C   UNL     1       2.062  -1.889 -11.971  1.00  0.00     0.175 C 
BRANCH  34  35
ATOM     35  C   UNL     1       0.920  -1.848 -12.998  1.00  0.00     0.070 C 
BRANCH  35  36
ATOM     36  C   UNL     1       0.533  -0.439 -13.387  1.00  0.00    -0.045 A 
ATOM     37  C   UNL     1       0.151   0.482 -12.399  1.00  0.00     0.007 A 
ATOM     38  C   UNL     1       0.528  -0.039 -14.730  1.00  0.00     0.007 A 
ATOM     39  C   UNL     1      -0.220   1.780 -12.749  1.00  0.00     0.046 A 
ATOM     40  C   UNL     1       0.154   1.261 -15.081  1.00  0.00     0.046 A 
ATOM     41  C   UNL     1      -0.215   2.159 -14.086  1.00  0.00     0.115 A 
BRANCH  41  42
ATOM     42  O   UNL     1      -0.588   3.436 -14.386  1.00  0.00    -0.508 OA
ATOM     43  H   UNL     1       0.050   3.798 -15.023  1.00  0.00     0.293 HD
ENDBRANCH  41  42
ENDBRANCH  35  36
ENDBRANCH  34  35
BRANCH  34  44
ATOM     44  C   UNL     1       2.070  -3.210 -11.169  1.00  0.00     0.243 C 
ATOM     45  O   UNL     1       1.521  -4.246 -11.533  1.00  0.00    -0.273 OA
ATOM     46  N   UNL     1       2.648  -3.091  -9.923  1.00  0.00    -0.341 N 
ATOM     47  H   UNL     1       2.985  -2.181  -9.619  1.00  0.00     0.164 HD
BRANCH  46  48
ATOM     48  C   UNL     1       2.711  -4.190  -8.956  1.00  0.00     0.196 C 
BRANCH  48  49
ATOM     49  C   UNL     1       4.152  -4.431  -8.476  1.00  0.00     0.072 C 
BRANCH  49  50
ATOM     50  C   UNL     1       5.017  -3.197  -8.590  1.00  0.00    -0.045 A 
ATOM     51  C   UNL     1       5.048  -2.265  -7.541  1.00  0.00     0.007 A 
ATOM     52  C   UNL     1       5.779  -2.954  -9.740  1.00  0.00     0.007 A 
ATOM     53  C   UNL     1       5.832  -1.116  -7.640  1.00  0.00     0.046 A 
ATOM     54  C   UNL     1       6.564  -1.802  -9.839  1.00  0.00     0.046 A 
ATOM     55  C   UNL     1       6.584  -0.893  -8.787  1.00  0.00     0.115 A 
BRANCH  55  56
ATOM     56  O   UNL     1       7.336   0.243  -8.845  1.00  0.00    -0.508 OA
ATOM     57  H   UNL     1       7.299   0.588  -9.752  1.00  0.00     0.293 HD
ENDBRANCH  55  56
ENDBRANCH  49  50
ENDBRANCH  48  49
BRANCH  48  58
ATOM     58  C   UNL     1       1.818  -3.850  -7.755  1.00  0.00     0.326 C 
ATOM     59  O   UNL     1       1.464  -4.602  -6.861  1.00  0.00    -0.250 OA
BRANCH  58  60
ATOM     60  O   UNL     1       1.419  -2.553  -7.727  1.00  0.00    -0.480 OA
ATOM     61  H   UNL     1       2.093  -2.097  -8.277  1.00  0.00     0.296 HD
ENDBRANCH  58  60
ENDBRANCH  48  58
ENDBRANCH  46  48
ENDBRANCH  34  44
ENDBRANCH  32  34
ENDBRANCH  25  30
ENDBRANCH  23  25
ENDBRANCH   2  23
TORSDOF 28
ENDMDL
MODEL 38
REMARK VINA RESULT:    -4.734      2.369      8.279
REMARK INTER + INTRA:         -19.718
REMARK INTER:                 -13.566
REMARK INTRA:                  -6.152
REMARK UNBOUND:                -7.927
REMARK SMILES CCCCCCC[C@H](N)[C@H](O)C(=O)N[C@H](C)C(=O)N(C)[C@H](CC(C)C)C(=O)N[C@@H](Cc1ccc(O)cc1)C(=O)N[C@@H](Cc1ccc(O)cc1)C(=O)O
REMARK SMILES IDX 18 1 17 2 15 3 16 4 14 5 12 6 13 7 10 9 11 10 8 12 9 13 7 16
REMARK SMILES IDX 6 17 5 18 4 19 3 20 2 21 1 22 19 23 20 24 21 25 22 26 23 27
REMARK SMILES IDX 24 28 25 29 26 30 27 31 28 32 29 34 30 35 31 36 32 37 37 38
REMARK SMILES IDX 33 39 36 40 34 41 35 42 38 44 39 45 40 46 41 48 42 49 43 50
REMARK SMILES IDX 44 51 49 52 45 53 48 54 46 55 47 56 50 58 51 59 52 60
REMARK H PARENT 14 8 11 11 9 14 9 15 28 33 35 43 40 47 47 57 52 61
ROOT
ATOM      1  O   UNL     1       1.304  -2.267  -8.917  1.00  0.00    -0.272 OA
ATOM      2  C   UNL     1       2.424  -2.078  -9.415  1.00  0.00     0.245 C 
ENDROOT
BRANCH   2   3
ATOM      3  C   UNL     1       3.644  -2.795  -8.786  1.00  0.00     0.168 C 
ATOM      4  C   UNL     1       3.308  -4.244  -8.451  1.00  0.00     0.041 C 
BRANCH   3   5
ATOM      5  N   UNL     1       4.877  -2.688  -9.551  1.00  0.00    -0.342 N 
ATOM      6  C   UNL     1       6.064  -2.300  -8.968  1.00  0.00     0.251 C 
ATOM      7  O   UNL     1       6.166  -1.980  -7.789  1.00  0.00    -0.272 OA
ATOM      8  H   UNL     1       4.909  -2.894 -10.547  1.00  0.00     0.164 HD
BRANCH   6   9
ATOM      9  C   UNL     1       7.259  -2.396  -9.931  1.00  0.00     0.219 C 
BRANCH   9  10
ATOM     10  O   UNL     1       6.938  -1.950 -11.255  1.00  0.00    -0.382 OA
ATOM     11  H   UNL     1       6.142  -2.475 -11.489  1.00  0.00     0.211 HD
ENDBRANCH   9  10
BRANCH   9  12
ATOM     12  C   UNL     1       8.528  -1.679  -9.401  1.00  0.00     0.089 C 
BRANCH  12  13
ATOM     13  N   UNL     1       8.852  -2.231  -8.065  1.00  0.00    -0.325 NA
ATOM     14  H   UNL     1       9.541  -1.628  -7.611  1.00  0.00     0.119 HD
ATOM     15  H   UNL     1       9.323  -3.131  -8.185  1.00  0.00     0.119 HD
ENDBRANCH  12  13
BRANCH  12  16
ATOM     16  C   UNL     1       9.773  -1.738 -10.317  1.00  0.00     0.022 C 
BRANCH  16  17
ATOM     17  C   UNL     1      10.362  -0.430 -10.863  1.00  0.00     0.002 C 
BRANCH  17  18
ATOM     18  C   UNL     1       9.566   0.212 -11.997  1.00  0.00     0.000 C 
BRANCH  18  19
ATOM     19  C   UNL     1      10.133  -0.068 -13.395  1.00  0.00    -0.000 C 
BRANCH  19  20
ATOM     20  C   UNL     1      11.568  -0.602 -13.419  1.00  0.00    -0.000 C 
BRANCH  20  21
ATOM     21  C   UNL     1      12.402  -0.031 -14.569  1.00  0.00    -0.003 C 
ATOM     22  C   UNL     1      12.344   1.489 -14.594  1.00  0.00     0.004 C 
ENDBRANCH  20  21
ENDBRANCH  19  20
ENDBRANCH  18  19
ENDBRANCH  17  18
ENDBRANCH  16  17
ENDBRANCH  12  16
ENDBRANCH   9  12
ENDBRANCH   6   9
ENDBRANCH   3   5
ENDBRANCH   2   3
BRANCH   2  23
ATOM     23  N   UNL     1       2.549  -1.335 -10.584  1.00  0.00    -0.332 N 
ATOM     24  C   UNL     1       3.052   0.030 -10.645  1.00  0.00     0.147 C 
BRANCH  23  25
ATOM     25  C   UNL     1       2.283  -1.965 -11.906  1.00  0.00     0.174 C 
BRANCH  25  26
ATOM     26  C   UNL     1       1.634  -3.364 -11.787  1.00  0.00     0.038 C 
BRANCH  26  27
ATOM     27  C   UNL     1       0.778  -3.842 -12.980  1.00  0.00    -0.015 C 
ATOM     28  C   UNL     1      -0.059  -2.716 -13.588  1.00  0.00     0.007 C 
ATOM     29  C   UNL     1       1.586  -4.554 -14.062  1.00  0.00     0.007 C 
ENDBRANCH  26  27
ENDBRANCH  25  26
BRANCH  25  30
ATOM     30  C   UNL     1       3.564  -1.946 -12.772  1.00  0.00     0.243 C 
ATOM     31  O   UNL     1       4.574  -2.570 -12.452  1.00  0.00    -0.273 OA
ATOM     32  N   UNL     1       3.498  -1.185 -13.911  1.00  0.00    -0.342 N 
ATOM     33  H   UNL     1       2.584  -0.814 -14.181  1.00  0.00     0.164 HD
BRANCH  32  34
ATOM     34  C   UNL     1       4.624  -1.028 -14.836  1.00  0.00     0.175 C 
BRANCH  34  35
ATOM     35  C   UNL     1       5.765  -0.223 -14.196  1.00  0.00     0.070 C 
BRANCH  35  36
ATOM     36  C   UNL     1       6.427   0.727 -15.169  1.00  0.00    -0.045 A 
ATOM     37  C   UNL     1       7.626   0.362 -15.800  1.00  0.00     0.007 A 
ATOM     38  C   UNL     1       5.872   1.985 -15.435  1.00  0.00     0.007 A 
ATOM     39  C   UNL     1       8.251   1.238 -16.688  1.00  0.00     0.046 A 
ATOM     40  C   UNL     1       6.498   2.863 -16.323  1.00  0.00     0.046 A 
ATOM     41  C   UNL     1       7.683   2.480 -16.943  1.00  0.00     0.115 A 
BRANCH  41  42
ATOM     42  O   UNL     1       8.327   3.307 -17.815  1.00  0.00    -0.508 OA
ATOM     43  H   UNL     1       9.247   3.005 -17.898  1.00  0.00     0.293 HD
ENDBRANCH  41  42
ENDBRANCH  35  36
ENDBRANCH  34  35
BRANCH  34  44
ATOM     44  C   UNL     1       5.085  -2.437 -15.272  1.00  0.00     0.243 C 
ATOM     45  O   UNL     1       4.394  -3.227 -15.910  1.00  0.00    -0.273 OA
ATOM     46  N   UNL     1       6.316  -2.793 -14.764  1.00  0.00    -0.341 N 
ATOM     47  H   UNL     1       6.800  -2.149 -14.143  1.00  0.00     0.164 HD
BRANCH  46  48
ATOM     48  C   UNL     1       6.931  -4.105 -14.984  1.00  0.00     0.196 C 
BRANCH  48  49
ATOM     49  C   UNL     1       8.460  -3.995 -15.099  1.00  0.00     0.072 C 
BRANCH  49  50
ATOM     50  C   UNL     1       8.897  -3.173 -16.291  1.00  0.00    -0.045 A 
ATOM     51  C   UNL     1      10.117  -2.482 -16.254  1.00  0.00     0.007 A 
ATOM     52  C   UNL     1       8.090  -3.073 -17.431  1.00  0.00     0.007 A 
ATOM     53  C   UNL     1      10.524  -1.711 -17.343  1.00  0.00     0.046 A 
ATOM     54  C   UNL     1       8.497  -2.300 -18.521  1.00  0.00     0.046 A 
ATOM     55  C   UNL     1       9.712  -1.626 -18.468  1.00  0.00     0.115 A 
BRANCH  55  56
ATOM     56  O   UNL     1      10.146  -0.860 -19.509  1.00  0.00    -0.508 OA
ATOM     57  H   UNL     1      11.089  -1.039 -19.649  1.00  0.00     0.293 HD
ENDBRANCH  55  56
ENDBRANCH  49  50
ENDBRANCH  48  49
BRANCH  48  58
ATOM     58  C   UNL     1       6.567  -5.029 -13.814  1.00  0.00     0.326 C 
ATOM     59  O   UNL     1       7.322  -5.486 -12.972  1.00  0.00    -0.250 OA
BRANCH  58  60
ATOM     60  O   UNL     1       5.245  -5.327 -13.750  1.00  0.00    -0.480 OA
ATOM     61  H   UNL     1       4.813  -4.445 -13.768  1.00  0.00     0.296 HD
ENDBRANCH  58  60
ENDBRANCH  48  58
ENDBRANCH  46  48
ENDBRANCH  34  44
ENDBRANCH  32  34
ENDBRANCH  25  30
ENDBRANCH  23  25
ENDBRANCH   2  23
TORSDOF 28
ENDMDL
MODEL 39
REMARK VINA RESULT:    -4.720      2.163      5.254
REMARK INTER + INTRA:         -19.683
REMARK INTER:                 -14.115
REMARK INTRA:                  -5.568
REMARK UNBOUND:                -7.927
REMARK SMILES CCCCCCC[C@H](N)[C@H](O)C(=O)N[C@H](C)C(=O)N(C)[C@H](CC(C)C)C(=O)N[C@@H](Cc1ccc(O)cc1)C(=O)N[C@@H](Cc1ccc(O)cc1)C(=O)O
REMARK SMILES IDX 18 1 17 2 15 3 16 4 14 5 12 6 13 7 10 9 11 10 8 12 9 13 7 16
REMARK SMILES IDX 6 17 5 18 4 19 3 20 2 21 1 22 19 23 20 24 21 25 22 26 23 27
REMARK SMILES IDX 24 28 25 29 26 30 27 31 28 32 29 34 30 35 31 36 32 37 37 38
REMARK SMILES IDX 33 39 36 40 34 41 35 42 38 44 39 45 40 46 41 48 42 49 43 50
REMARK SMILES IDX 44 51 49 52 45 53 48 54 46 55 47 56 50 58 51 59 52 60
REMARK H PARENT 14 8 11 11 9 14 9 15 28 33 35 43 40 47 47 57 52 61
ROOT
ATOM      1  O   UNL     1       5.471  -2.686 -17.341  1.00  0.00    -0.272 OA
ATOM      2  C   UNL     1       6.575  -2.171 -17.111  1.00  0.00     0.245 C 
ENDROOT
BRANCH   2   3
ATOM      3  C   UNL     1       6.623  -0.687 -16.670  1.00  0.00     0.168 C 
ATOM      4  C   UNL     1       5.540  -0.393 -15.638  1.00  0.00     0.041 C 
BRANCH   3   5
ATOM      5  N   UNL     1       7.930  -0.221 -16.233  1.00  0.00    -0.342 N 
ATOM      6  C   UNL     1       8.266   1.116 -16.240  1.00  0.00     0.251 C 
ATOM      7  O   UNL     1       7.518   1.999 -16.648  1.00  0.00    -0.272 OA
ATOM      8  H   UNL     1       8.646  -0.864 -15.906  1.00  0.00     0.164 HD
BRANCH   6   9
ATOM      9  C   UNL     1       9.638   1.388 -15.604  1.00  0.00     0.219 C 
BRANCH   9  10
ATOM     10  O   UNL     1      10.101   2.724 -15.837  1.00  0.00    -0.382 OA
ATOM     11  H   UNL     1      11.076   2.651 -15.737  1.00  0.00     0.211 HD
ENDBRANCH   9  10
BRANCH   9  12
ATOM     12  C   UNL     1       9.688   1.044 -14.093  1.00  0.00     0.089 C 
BRANCH  12  13
ATOM     13  N   UNL     1       8.312   1.119 -13.551  1.00  0.00    -0.325 NA
ATOM     14  H   UNL     1       7.647   0.879 -14.288  1.00  0.00     0.119 HD
ATOM     15  H   UNL     1       8.104   2.090 -13.310  1.00  0.00     0.119 HD
ENDBRANCH  12  13
BRANCH  12  16
ATOM     16  C   UNL     1      10.330  -0.317 -13.728  1.00  0.00     0.022 C 
BRANCH  16  17
ATOM     17  C   UNL     1      10.844  -0.541 -12.299  1.00  0.00     0.002 C 
BRANCH  17  18
ATOM     18  C   UNL     1      11.206   0.733 -11.538  1.00  0.00     0.000 C 
BRANCH  18  19
ATOM     19  C   UNL     1      10.367   0.963 -10.273  1.00  0.00    -0.000 C 
BRANCH  19  20
ATOM     20  C   UNL     1      10.096  -0.290  -9.436  1.00  0.00    -0.000 C 
BRANCH  20  21
ATOM     21  C   UNL     1      11.371  -0.921  -8.870  1.00  0.00    -0.003 C 
ATOM     22  C   UNL     1      11.492  -2.382  -9.273  1.00  0.00     0.004 C 
ENDBRANCH  20  21
ENDBRANCH  19  20
ENDBRANCH  18  19
ENDBRANCH  17  18
ENDBRANCH  16  17
ENDBRANCH  12  16
ENDBRANCH   9  12
ENDBRANCH   6   9
ENDBRANCH   3   5
ENDBRANCH   2   3
BRANCH   2  23
ATOM     23  N   UNL     1       7.725  -2.953 -17.131  1.00  0.00    -0.332 N 
ATOM     24  C   UNL     1       8.073  -3.882 -18.196  1.00  0.00     0.147 C 
BRANCH  23  25
ATOM     25  C   UNL     1       8.768  -2.782 -16.083  1.00  0.00     0.174 C 
BRANCH  25  26
ATOM     26  C   UNL     1      10.206  -2.903 -16.639  1.00  0.00     0.038 C 
BRANCH  26  27
ATOM     27  C   UNL     1      10.934  -1.586 -16.992  1.00  0.00    -0.015 C 
ATOM     28  C   UNL     1      12.430  -1.645 -16.685  1.00  0.00     0.007 C 
ATOM     29  C   UNL     1      10.697  -1.127 -18.428  1.00  0.00     0.007 C 
ENDBRANCH  26  27
ENDBRANCH  25  26
BRANCH  25  30
ATOM     30  C   UNL     1       8.482  -3.722 -14.890  1.00  0.00     0.243 C 
ATOM     31  O   UNL     1       8.455  -4.945 -15.018  1.00  0.00    -0.273 OA
ATOM     32  N   UNL     1       8.256  -3.103 -13.687  1.00  0.00    -0.342 N 
ATOM     33  H   UNL     1       8.435  -2.097 -13.632  1.00  0.00     0.164 HD
BRANCH  32  34
ATOM     34  C   UNL     1       7.943  -3.833 -12.456  1.00  0.00     0.175 C 
BRANCH  34  35
ATOM     35  C   UNL     1       8.383  -3.045 -11.212  1.00  0.00     0.070 C 
BRANCH  35  36
ATOM     36  C   UNL     1       7.310  -2.111 -10.701  1.00  0.00    -0.045 A 
ATOM     37  C   UNL     1       6.948  -0.982 -11.451  1.00  0.00     0.007 A 
ATOM     38  C   UNL     1       6.681  -2.343  -9.471  1.00  0.00     0.007 A 
ATOM     39  C   UNL     1       5.968  -0.106 -10.982  1.00  0.00     0.046 A 
ATOM     40  C   UNL     1       5.701  -1.466  -9.000  1.00  0.00     0.046 A 
ATOM     41  C   UNL     1       5.352  -0.355  -9.761  1.00  0.00     0.115 A 
BRANCH  41  42
ATOM     42  O   UNL     1       4.402   0.526  -9.337  1.00  0.00    -0.508 OA
ATOM     43  H   UNL     1       3.998   0.938 -10.118  1.00  0.00     0.293 HD
ENDBRANCH  41  42
ENDBRANCH  35  36
ENDBRANCH  34  35
BRANCH  34  44
ATOM     44  C   UNL     1       6.426  -4.127 -12.446  1.00  0.00     0.243 C 
ATOM     45  O   UNL     1       5.869  -4.872 -11.645  1.00  0.00    -0.273 OA
ATOM     46  N   UNL     1       5.753  -3.572 -13.514  1.00  0.00    -0.341 N 
ATOM     47  H   UNL     1       6.279  -3.058 -14.217  1.00  0.00     0.164 HD
BRANCH  46  48
ATOM     48  C   UNL     1       4.322  -3.770 -13.755  1.00  0.00     0.196 C 
BRANCH  48  49
ATOM     49  C   UNL     1       3.583  -2.426 -13.871  1.00  0.00     0.072 C 
BRANCH  49  50
ATOM     50  C   UNL     1       2.663  -2.165 -12.700  1.00  0.00    -0.045 A 
ATOM     51  C   UNL     1       3.051  -2.546 -11.407  1.00  0.00     0.007 A 
ATOM     52  C   UNL     1       1.411  -1.564 -12.887  1.00  0.00     0.007 A 
ATOM     53  C   UNL     1       2.205  -2.322 -10.321  1.00  0.00     0.046 A 
ATOM     54  C   UNL     1       0.564  -1.340 -11.799  1.00  0.00     0.046 A 
ATOM     55  C   UNL     1       0.969  -1.721 -10.525  1.00  0.00     0.115 A 
BRANCH  55  56
ATOM     56  O   UNL     1       0.171  -1.521  -9.437  1.00  0.00    -0.508 OA
ATOM     57  H   UNL     1      -0.743  -1.734  -9.685  1.00  0.00     0.293 HD
ENDBRANCH  55  56
ENDBRANCH  49  50
ENDBRANCH  48  49
BRANCH  48  58
ATOM     58  C   UNL     1       4.140  -4.571 -15.051  1.00  0.00     0.326 C 
ATOM     59  O   UNL     1       3.090  -4.847 -15.608  1.00  0.00    -0.250 OA
BRANCH  58  60
ATOM     60  O   UNL     1       5.309  -4.983 -15.602  1.00  0.00    -0.480 OA
ATOM     61  H   UNL     1       5.809  -5.337 -14.834  1.00  0.00     0.296 HD
ENDBRANCH  58  60
ENDBRANCH  48  58
ENDBRANCH  46  48
ENDBRANCH  34  44
ENDBRANCH  32  34
ENDBRANCH  25  30
ENDBRANCH  23  25
ENDBRANCH   2  23
TORSDOF 28
ENDMDL
MODEL 40
REMARK VINA RESULT:    -4.716      2.434      4.820
REMARK INTER + INTRA:         -19.673
REMARK INTER:                 -13.690
REMARK INTRA:                  -5.983
REMARK UNBOUND:                -7.927
REMARK SMILES CCCCCCC[C@H](N)[C@H](O)C(=O)N[C@H](C)C(=O)N(C)[C@H](CC(C)C)C(=O)N[C@@H](Cc1ccc(O)cc1)C(=O)N[C@@H](Cc1ccc(O)cc1)C(=O)O
REMARK SMILES IDX 18 1 17 2 15 3 16 4 14 5 12 6 13 7 10 9 11 10 8 12 9 13 7 16
REMARK SMILES IDX 6 17 5 18 4 19 3 20 2 21 1 22 19 23 20 24 21 25 22 26 23 27
REMARK SMILES IDX 24 28 25 29 26 30 27 31 28 32 29 34 30 35 31 36 32 37 37 38
REMARK SMILES IDX 33 39 36 40 34 41 35 42 38 44 39 45 40 46 41 48 42 49 43 50
REMARK SMILES IDX 44 51 49 52 45 53 48 54 46 55 47 56 50 58 51 59 52 60
REMARK H PARENT 14 8 11 11 9 14 9 15 28 33 35 43 40 47 47 57 52 61
ROOT
ATOM      1  O   UNL     1       7.772  -1.333 -15.190  1.00  0.00    -0.272 OA
ATOM      2  C   UNL     1       8.754  -1.300 -15.946  1.00  0.00     0.245 C 
ENDROOT
BRANCH   2   3
ATOM      3  C   UNL     1       9.623  -0.018 -15.976  1.00  0.00     0.168 C 
ATOM      4  C   UNL     1      10.974  -0.295 -16.627  1.00  0.00     0.041 C 
BRANCH   3   5
ATOM      5  N   UNL     1       8.973   1.148 -16.552  1.00  0.00    -0.342 N 
ATOM      6  C   UNL     1       8.435   2.145 -15.765  1.00  0.00     0.251 C 
ATOM      7  O   UNL     1       8.425   2.107 -14.539  1.00  0.00    -0.272 OA
ATOM      8  H   UNL     1       8.889   1.273 -17.558  1.00  0.00     0.164 HD
BRANCH   6   9
ATOM      9  C   UNL     1       7.929   3.342 -16.585  1.00  0.00     0.219 C 
BRANCH   9  10
ATOM     10  O   UNL     1       8.310   3.267 -17.965  1.00  0.00    -0.382 OA
ATOM     11  H   UNL     1       8.212   4.192 -18.282  1.00  0.00     0.211 HD
ENDBRANCH   9  10
BRANCH   9  12
ATOM     12  C   UNL     1       6.402   3.574 -16.447  1.00  0.00     0.089 C 
BRANCH  12  13
ATOM     13  N   UNL     1       5.956   4.434 -17.567  1.00  0.00    -0.325 NA
ATOM     14  H   UNL     1       6.194   5.406 -17.359  1.00  0.00     0.119 HD
ATOM     15  H   UNL     1       4.935   4.414 -17.614  1.00  0.00     0.119 HD
ENDBRANCH  12  13
BRANCH  12  16
ATOM     16  C   UNL     1       5.527   2.299 -16.376  1.00  0.00     0.022 C 
BRANCH  16  17
ATOM     17  C   UNL     1       4.453   2.191 -15.284  1.00  0.00     0.002 C 
BRANCH  17  18
ATOM     18  C   UNL     1       4.988   1.922 -13.879  1.00  0.00     0.000 C 
BRANCH  18  19
ATOM     19  C   UNL     1       4.024   1.132 -12.984  1.00  0.00    -0.000 C 
BRANCH  19  20
ATOM     20  C   UNL     1       2.637   1.758 -12.810  1.00  0.00    -0.000 C 
BRANCH  20  21
ATOM     21  C   UNL     1       1.502   0.736 -12.903  1.00  0.00    -0.003 C 
ATOM     22  C   UNL     1       1.203   0.370 -14.349  1.00  0.00     0.004 C 
ENDBRANCH  20  21
ENDBRANCH  19  20
ENDBRANCH  18  19
ENDBRANCH  17  18
ENDBRANCH  16  17
ENDBRANCH  12  16
ENDBRANCH   9  12
ENDBRANCH   6   9
ENDBRANCH   3   5
ENDBRANCH   2   3
BRANCH   2  23
ATOM     23  N   UNL     1       9.126  -2.438 -16.654  1.00  0.00    -0.332 N 
ATOM     24  C   UNL     1       9.026  -2.582 -18.099  1.00  0.00     0.147 C 
BRANCH  23  25
ATOM     25  C   UNL     1       9.791  -3.572 -15.956  1.00  0.00     0.174 C 
BRANCH  25  26
ATOM     26  C   UNL     1      10.699  -4.406 -16.891  1.00  0.00     0.038 C 
BRANCH  26  27
ATOM     27  C   UNL     1      11.181  -5.774 -16.360  1.00  0.00    -0.015 C 
ATOM     28  C   UNL     1      11.039  -6.887 -17.399  1.00  0.00     0.007 C 
ATOM     29  C   UNL     1      12.600  -5.742 -15.799  1.00  0.00     0.007 C 
ENDBRANCH  26  27
ENDBRANCH  25  26
BRANCH  25  30
ATOM     30  C   UNL     1       8.744  -4.415 -15.192  1.00  0.00     0.243 C 
ATOM     31  O   UNL     1       8.165  -5.365 -15.718  1.00  0.00    -0.273 OA
ATOM     32  N   UNL     1       8.502  -4.031 -13.898  1.00  0.00    -0.342 N 
ATOM     33  H   UNL     1       9.122  -3.326 -13.490  1.00  0.00     0.164 HD
BRANCH  32  34
ATOM     34  C   UNL     1       7.524  -4.696 -13.034  1.00  0.00     0.175 C 
BRANCH  34  35
ATOM     35  C   UNL     1       7.498  -4.068 -11.632  1.00  0.00     0.070 C 
BRANCH  35  36
ATOM     36  C   UNL     1       7.902  -2.610 -11.637  1.00  0.00    -0.045 A 
ATOM     37  C   UNL     1       9.243  -2.253 -11.432  1.00  0.00     0.007 A 
ATOM     38  C   UNL     1       6.948  -1.601 -11.821  1.00  0.00     0.007 A 
ATOM     39  C   UNL     1       9.623  -0.910 -11.422  1.00  0.00     0.046 A 
ATOM     40  C   UNL     1       7.327  -0.256 -11.808  1.00  0.00     0.046 A 
ATOM     41  C   UNL     1       8.663   0.076 -11.610  1.00  0.00     0.115 A 
BRANCH  41  42
ATOM     42  O   UNL     1       9.075   1.376 -11.589  1.00  0.00    -0.508 OA
ATOM     43  H   UNL     1       9.602   1.516 -10.785  1.00  0.00     0.293 HD
ENDBRANCH  41  42
ENDBRANCH  35  36
ENDBRANCH  34  35
BRANCH  34  44
ATOM     44  C   UNL     1       6.144  -4.621 -13.726  1.00  0.00     0.243 C 
ATOM     45  O   UNL     1       5.279  -5.488 -13.645  1.00  0.00    -0.273 OA
ATOM     46  N   UNL     1       6.010  -3.535 -14.565  1.00  0.00    -0.341 N 
ATOM     47  H   UNL     1       6.799  -2.906 -14.689  1.00  0.00     0.164 HD
BRANCH  46  48
ATOM     48  C   UNL     1       4.818  -3.289 -15.379  1.00  0.00     0.196 C 
BRANCH  48  49
ATOM     49  C   UNL     1       3.944  -2.179 -14.772  1.00  0.00     0.072 C 
BRANCH  49  50
ATOM     50  C   UNL     1       3.178  -2.643 -13.553  1.00  0.00    -0.045 A 
ATOM     51  C   UNL     1       3.626  -2.293 -12.271  1.00  0.00     0.007 A 
ATOM     52  C   UNL     1       2.033  -3.439 -13.681  1.00  0.00     0.007 A 
ATOM     53  C   UNL     1       2.936  -2.726 -11.139  1.00  0.00     0.046 A 
ATOM     54  C   UNL     1       1.342  -3.874 -12.548  1.00  0.00     0.046 A 
ATOM     55  C   UNL     1       1.800  -3.513 -11.285  1.00  0.00     0.115 A 
BRANCH  55  56
ATOM     56  O   UNL     1       1.155  -3.917 -10.154  1.00  0.00    -0.508 OA
ATOM     57  H   UNL     1       1.126  -3.171  -9.535  1.00  0.00     0.293 HD
ENDBRANCH  55  56
ENDBRANCH  49  50
ENDBRANCH  48  49
BRANCH  48  58
ATOM     58  C   UNL     1       5.255  -2.883 -16.794  1.00  0.00     0.326 C 
ATOM     59  O   UNL     1       4.966  -1.859 -17.391  1.00  0.00    -0.250 OA
BRANCH  58  60
ATOM     60  O   UNL     1       6.061  -3.795 -17.394  1.00  0.00    -0.480 OA
ATOM     61  H   UNL     1       5.580  -4.012 -18.221  1.00  0.00     0.296 HD
ENDBRANCH  58  60
ENDBRANCH  48  58
ENDBRANCH  46  48
ENDBRANCH  34  44
ENDBRANCH  32  34
ENDBRANCH  25  30
ENDBRANCH  23  25
ENDBRANCH   2  23
TORSDOF 28
ENDMDL
MODEL 41
REMARK VINA RESULT:    -4.696      2.218      7.623
REMARK INTER + INTRA:         -19.623
REMARK INTER:                 -12.505
REMARK INTRA:                  -7.118
REMARK UNBOUND:                -7.927
REMARK SMILES CCCCCCC[C@H](N)[C@H](O)C(=O)N[C@H](C)C(=O)N(C)[C@H](CC(C)C)C(=O)N[C@@H](Cc1ccc(O)cc1)C(=O)N[C@@H](Cc1ccc(O)cc1)C(=O)O
REMARK SMILES IDX 18 1 17 2 15 3 16 4 14 5 12 6 13 7 10 9 11 10 8 12 9 13 7 16
REMARK SMILES IDX 6 17 5 18 4 19 3 20 2 21 1 22 19 23 20 24 21 25 22 26 23 27
REMARK SMILES IDX 24 28 25 29 26 30 27 31 28 32 29 34 30 35 31 36 32 37 37 38
REMARK SMILES IDX 33 39 36 40 34 41 35 42 38 44 39 45 40 46 41 48 42 49 43 50
REMARK SMILES IDX 44 51 49 52 45 53 48 54 46 55 47 56 50 58 51 59 52 60
REMARK H PARENT 14 8 11 11 9 14 9 15 28 33 35 43 40 47 47 57 52 61
ROOT
ATOM      1  O   UNL     1       8.505  -3.639 -11.574  1.00  0.00    -0.272 OA
ATOM      2  C   UNL     1       8.598  -2.652 -10.829  1.00  0.00     0.245 C 
ENDROOT
BRANCH   2   3
ATOM      3  C   UNL     1       9.941  -1.882 -10.783  1.00  0.00     0.168 C 
ATOM      4  C   UNL     1      10.812  -2.378  -9.634  1.00  0.00     0.041 C 
BRANCH   3   5
ATOM      5  N   UNL     1      10.671  -1.852 -12.041  1.00  0.00    -0.342 N 
ATOM      6  C   UNL     1      11.437  -0.767 -12.413  1.00  0.00     0.251 C 
ATOM      7  O   UNL     1      11.529   0.257 -11.743  1.00  0.00    -0.272 OA
ATOM      8  H   UNL     1      10.643  -2.630 -12.696  1.00  0.00     0.164 HD
BRANCH   6   9
ATOM      9  C   UNL     1      12.228  -1.013 -13.707  1.00  0.00     0.219 C 
BRANCH   9  10
ATOM     10  O   UNL     1      12.220  -2.389 -14.107  1.00  0.00    -0.382 OA
ATOM     11  H   UNL     1      11.829  -2.852 -13.333  1.00  0.00     0.211 HD
ENDBRANCH   9  10
BRANCH   9  12
ATOM     12  C   UNL     1      11.782  -0.098 -14.877  1.00  0.00     0.089 C 
BRANCH  12  13
ATOM     13  N   UNL     1      10.308   0.035 -14.831  1.00  0.00    -0.325 NA
ATOM     14  H   UNL     1       9.935  -0.025 -15.780  1.00  0.00     0.119 HD
ATOM     15  H   UNL     1      10.070   0.976 -14.510  1.00  0.00     0.119 HD
ENDBRANCH  12  13
BRANCH  12  16
ATOM     16  C   UNL     1      12.440   1.302 -14.932  1.00  0.00     0.022 C 
BRANCH  16  17
ATOM     17  C   UNL     1      11.547   2.549 -14.894  1.00  0.00     0.002 C 
BRANCH  17  18
ATOM     18  C   UNL     1      11.498   3.266 -13.546  1.00  0.00     0.000 C 
BRANCH  18  19
ATOM     19  C   UNL     1      10.129   3.206 -12.856  1.00  0.00    -0.000 C 
BRANCH  19  20
ATOM     20  C   UNL     1       8.924   3.191 -13.801  1.00  0.00    -0.000 C 
BRANCH  20  21
ATOM     21  C   UNL     1       7.788   2.291 -13.310  1.00  0.00    -0.003 C 
ATOM     22  C   UNL     1       8.241   1.400 -12.164  1.00  0.00     0.004 C 
ENDBRANCH  20  21
ENDBRANCH  19  20
ENDBRANCH  18  19
ENDBRANCH  17  18
ENDBRANCH  16  17
ENDBRANCH  12  16
ENDBRANCH   9  12
ENDBRANCH   6   9
ENDBRANCH   3   5
ENDBRANCH   2   3
BRANCH   2  23
ATOM     23  N   UNL     1       7.478  -2.185 -10.150  1.00  0.00    -0.332 N 
ATOM     24  C   UNL     1       7.445  -1.869  -8.729  1.00  0.00     0.147 C 
BRANCH  23  25
ATOM     25  C   UNL     1       6.233  -1.850 -10.895  1.00  0.00     0.174 C 
BRANCH  25  26
ATOM     26  C   UNL     1       5.181  -1.132 -10.018  1.00  0.00     0.038 C 
BRANCH  26  27
ATOM     27  C   UNL     1       3.898  -0.641 -10.724  1.00  0.00    -0.015 C 
ATOM     28  C   UNL     1       2.796  -0.260  -9.736  1.00  0.00     0.007 C 
ATOM     29  C   UNL     1       4.146   0.492 -11.716  1.00  0.00     0.007 C 
ENDBRANCH  26  27
ENDBRANCH  25  26
BRANCH  25  30
ATOM     30  C   UNL     1       5.690  -3.106 -11.614  1.00  0.00     0.243 C 
ATOM     31  O   UNL     1       5.344  -4.111 -10.995  1.00  0.00    -0.273 OA
ATOM     32  N   UNL     1       5.626  -3.025 -12.982  1.00  0.00    -0.342 N 
ATOM     33  H   UNL     1       5.795  -2.112 -13.411  1.00  0.00     0.164 HD
BRANCH  32  34
ATOM     34  C   UNL     1       5.162  -4.127 -13.829  1.00  0.00     0.175 C 
BRANCH  34  35
ATOM     35  C   UNL     1       3.926  -3.722 -14.646  1.00  0.00     0.070 C 
BRANCH  35  36
ATOM     36  C   UNL     1       2.819  -3.152 -13.788  1.00  0.00    -0.045 A 
ATOM     37  C   UNL     1       2.232  -3.939 -12.786  1.00  0.00     0.007 A 
ATOM     38  C   UNL     1       2.350  -1.847 -13.993  1.00  0.00     0.007 A 
ATOM     39  C   UNL     1       1.200  -3.426 -11.999  1.00  0.00     0.046 A 
ATOM     40  C   UNL     1       1.317  -1.334 -13.206  1.00  0.00     0.046 A 
ATOM     41  C   UNL     1       0.752  -2.128 -12.214  1.00  0.00     0.115 A 
BRANCH  41  42
ATOM     42  O   UNL     1      -0.260  -1.666 -11.425  1.00  0.00    -0.508 OA
ATOM     43  H   UNL     1      -1.097  -2.024 -11.763  1.00  0.00     0.293 HD
ENDBRANCH  41  42
ENDBRANCH  35  36
ENDBRANCH  34  35
BRANCH  34  44
ATOM     44  C   UNL     1       6.337  -4.560 -14.735  1.00  0.00     0.243 C 
ATOM     45  O   UNL     1       6.834  -5.683 -14.738  1.00  0.00    -0.273 OA
ATOM     46  N   UNL     1       6.878  -3.523 -15.465  1.00  0.00    -0.341 N 
ATOM     47  H   UNL     1       6.506  -2.585 -15.341  1.00  0.00     0.164 HD
BRANCH  46  48
ATOM     48  C   UNL     1       8.041  -3.677 -16.342  1.00  0.00     0.196 C 
BRANCH  48  49
ATOM     49  C   UNL     1       7.987  -2.690 -17.521  1.00  0.00     0.072 C 
BRANCH  49  50
ATOM     50  C   UNL     1       7.088  -1.506 -17.248  1.00  0.00    -0.045 A 
ATOM     51  C   UNL     1       7.639  -0.301 -16.787  1.00  0.00     0.007 A 
ATOM     52  C   UNL     1       5.702  -1.597 -17.428  1.00  0.00     0.007 A 
ATOM     53  C   UNL     1       6.817   0.794 -16.519  1.00  0.00     0.046 A 
ATOM     54  C   UNL     1       4.879  -0.500 -17.158  1.00  0.00     0.046 A 
ATOM     55  C   UNL     1       5.445   0.687 -16.707  1.00  0.00     0.115 A 
BRANCH  55  56
ATOM     56  O   UNL     1       4.677   1.779 -16.431  1.00  0.00    -0.508 OA
ATOM     57  H   UNL     1       4.940   2.496 -17.030  1.00  0.00     0.293 HD
ENDBRANCH  55  56
ENDBRANCH  49  50
ENDBRANCH  48  49
BRANCH  48  58
ATOM     58  C   UNL     1       9.318  -3.434 -15.526  1.00  0.00     0.326 C 
ATOM     59  O   UNL     1      10.448  -3.807 -15.793  1.00  0.00    -0.250 OA
BRANCH  58  60
ATOM     60  O   UNL     1       9.110  -2.707 -14.399  1.00  0.00    -0.480 OA
ATOM     61  H   UNL     1       8.193  -2.947 -14.142  1.00  0.00     0.296 HD
ENDBRANCH  58  60
ENDBRANCH  48  58
ENDBRANCH  46  48
ENDBRANCH  34  44
ENDBRANCH  32  34
ENDBRANCH  25  30
ENDBRANCH  23  25
ENDBRANCH   2  23
TORSDOF 28
ENDMDL
MODEL 42
REMARK VINA RESULT:    -4.682      2.410      6.072
REMARK INTER + INTRA:         -19.587
REMARK INTER:                 -11.755
REMARK INTRA:                  -7.832
REMARK UNBOUND:                -7.927
REMARK SMILES CCCCCCC[C@H](N)[C@H](O)C(=O)N[C@H](C)C(=O)N(C)[C@H](CC(C)C)C(=O)N[C@@H](Cc1ccc(O)cc1)C(=O)N[C@@H](Cc1ccc(O)cc1)C(=O)O
REMARK SMILES IDX 18 1 17 2 15 3 16 4 14 5 12 6 13 7 10 9 11 10 8 12 9 13 7 16
REMARK SMILES IDX 6 17 5 18 4 19 3 20 2 21 1 22 19 23 20 24 21 25 22 26 23 27
REMARK SMILES IDX 24 28 25 29 26 30 27 31 28 32 29 34 30 35 31 36 32 37 37 38
REMARK SMILES IDX 33 39 36 40 34 41 35 42 38 44 39 45 40 46 41 48 42 49 43 50
REMARK SMILES IDX 44 51 49 52 45 53 48 54 46 55 47 56 50 58 51 59 52 60
REMARK H PARENT 14 8 11 11 9 14 9 15 28 33 35 43 40 47 47 57 52 61
ROOT
ATOM      1  O   UNL     1      10.443   0.922 -16.249  1.00  0.00    -0.272 OA
ATOM      2  C   UNL     1      10.526  -0.309 -16.124  1.00  0.00     0.245 C 
ENDROOT
BRANCH   2   3
ATOM      3  C   UNL     1      10.169  -1.202 -17.338  1.00  0.00     0.168 C 
ATOM      4  C   UNL     1      11.418  -1.554 -18.138  1.00  0.00     0.041 C 
BRANCH   3   5
ATOM      5  N   UNL     1       9.381  -2.382 -17.017  1.00  0.00    -0.342 N 
ATOM      6  C   UNL     1       8.231  -2.700 -17.708  1.00  0.00     0.251 C 
ATOM      7  O   UNL     1       7.766  -2.003 -18.604  1.00  0.00    -0.272 OA
ATOM      8  H   UNL     1       9.648  -3.018 -16.269  1.00  0.00     0.164 HD
BRANCH   6   9
ATOM      9  C   UNL     1       7.644  -4.059 -17.295  1.00  0.00     0.219 C 
BRANCH   9  10
ATOM     10  O   UNL     1       8.642  -4.968 -16.815  1.00  0.00    -0.382 OA
ATOM     11  H   UNL     1       9.480  -4.464 -16.913  1.00  0.00     0.211 HD
ENDBRANCH   9  10
BRANCH   9  12
ATOM     12  C   UNL     1       6.478  -3.936 -16.280  1.00  0.00     0.089 C 
BRANCH  12  13
ATOM     13  N   UNL     1       5.299  -3.388 -16.988  1.00  0.00    -0.325 NA
ATOM     14  H   UNL     1       4.476  -3.947 -16.754  1.00  0.00     0.119 HD
ATOM     15  H   UNL     1       5.429  -3.513 -17.995  1.00  0.00     0.119 HD
ENDBRANCH  12  13
BRANCH  12  16
ATOM     16  C   UNL     1       6.092  -5.233 -15.530  1.00  0.00     0.022 C 
BRANCH  16  17
ATOM     17  C   UNL     1       5.591  -5.138 -14.082  1.00  0.00     0.002 C 
BRANCH  17  18
ATOM     18  C   UNL     1       6.690  -5.053 -13.025  1.00  0.00     0.000 C 
BRANCH  18  19
ATOM     19  C   UNL     1       6.416  -4.023 -11.921  1.00  0.00    -0.000 C 
BRANCH  19  20
ATOM     20  C   UNL     1       7.658  -3.517 -11.182  1.00  0.00    -0.000 C 
BRANCH  20  21
ATOM     21  C   UNL     1       7.459  -2.136 -10.551  1.00  0.00    -0.003 C 
ATOM     22  C   UNL     1       6.614  -2.220  -9.289  1.00  0.00     0.004 C 
ENDBRANCH  20  21
ENDBRANCH  19  20
ENDBRANCH  18  19
ENDBRANCH  17  18
ENDBRANCH  16  17
ENDBRANCH  12  16
ENDBRANCH   9  12
ENDBRANCH   6   9
ENDBRANCH   3   5
ENDBRANCH   2   3
BRANCH   2  23
ATOM     23  N   UNL     1      11.049  -0.856 -14.957  1.00  0.00    -0.332 N 
ATOM     24  C   UNL     1      12.407  -1.361 -14.818  1.00  0.00     0.147 C 
BRANCH  23  25
ATOM     25  C   UNL     1      10.254  -0.839 -13.698  1.00  0.00     0.174 C 
BRANCH  25  26
ATOM     26  C   UNL     1      10.970  -1.547 -12.524  1.00  0.00     0.038 C 
BRANCH  26  27
ATOM     27  C   UNL     1      11.138  -0.740 -11.218  1.00  0.00    -0.015 C 
ATOM     28  C   UNL     1      10.147   0.418 -11.115  1.00  0.00     0.007 C 
ATOM     29  C   UNL     1      11.088  -1.604  -9.960  1.00  0.00     0.007 C 
ENDBRANCH  26  27
ENDBRANCH  25  26
BRANCH  25  30
ATOM     30  C   UNL     1       8.826  -1.367 -13.964  1.00  0.00     0.243 C 
ATOM     31  O   UNL     1       8.605  -2.554 -14.200  1.00  0.00    -0.273 OA
ATOM     32  N   UNL     1       7.829  -0.426 -13.924  1.00  0.00    -0.342 N 
ATOM     33  H   UNL     1       8.072   0.507 -13.583  1.00  0.00     0.164 HD
BRANCH  32  34
ATOM     34  C   UNL     1       6.420  -0.740 -14.178  1.00  0.00     0.175 C 
BRANCH  34  35
ATOM     35  C   UNL     1       5.542  -0.389 -12.967  1.00  0.00     0.070 C 
BRANCH  35  36
ATOM     36  C   UNL     1       4.346  -1.303 -12.828  1.00  0.00    -0.045 A 
ATOM     37  C   UNL     1       3.752  -1.496 -11.571  1.00  0.00     0.007 A 
ATOM     38  C   UNL     1       3.828  -1.984 -13.937  1.00  0.00     0.007 A 
ATOM     39  C   UNL     1       2.656  -2.348 -11.430  1.00  0.00     0.046 A 
ATOM     40  C   UNL     1       2.732  -2.838 -13.797  1.00  0.00     0.046 A 
ATOM     41  C   UNL     1       2.155  -3.011 -12.544  1.00  0.00     0.115 A 
BRANCH  41  42
ATOM     42  O   UNL     1       1.085  -3.837 -12.363  1.00  0.00    -0.508 OA
ATOM     43  H   UNL     1       0.552  -3.489 -11.629  1.00  0.00     0.293 HD
ENDBRANCH  41  42
ENDBRANCH  35  36
ENDBRANCH  34  35
BRANCH  34  44
ATOM     44  C   UNL     1       5.981   0.023 -15.449  1.00  0.00     0.243 C 
ATOM     45  O   UNL     1       5.677  -0.514 -16.510  1.00  0.00    -0.273 OA
ATOM     46  N   UNL     1       6.086   1.393 -15.330  1.00  0.00    -0.341 N 
ATOM     47  H   UNL     1       6.455   1.787 -14.468  1.00  0.00     0.164 HD
BRANCH  46  48
ATOM     48  C   UNL     1       5.792   2.321 -16.424  1.00  0.00     0.196 C 
BRANCH  48  49
ATOM     49  C   UNL     1       4.555   3.181 -16.111  1.00  0.00     0.072 C 
BRANCH  49  50
ATOM     50  C   UNL     1       3.523   2.439 -15.293  1.00  0.00    -0.045 A 
ATOM     51  C   UNL     1       3.444   2.650 -13.909  1.00  0.00     0.007 A 
ATOM     52  C   UNL     1       2.650   1.523 -15.893  1.00  0.00     0.007 A 
ATOM     53  C   UNL     1       2.504   1.962 -13.142  1.00  0.00     0.046 A 
ATOM     54  C   UNL     1       1.710   0.833 -15.125  1.00  0.00     0.046 A 
ATOM     55  C   UNL     1       1.644   1.059 -13.755  1.00  0.00     0.115 A 
BRANCH  55  56
ATOM     56  O   UNL     1       0.742   0.405 -12.970  1.00  0.00    -0.508 OA
ATOM     57  H   UNL     1      -0.051   0.959 -12.889  1.00  0.00     0.293 HD
ENDBRANCH  55  56
ENDBRANCH  49  50
ENDBRANCH  48  49
BRANCH  48  58
ATOM     58  C   UNL     1       7.008   3.231 -16.648  1.00  0.00     0.326 C 
ATOM     59  O   UNL     1       7.131   4.397 -16.310  1.00  0.00    -0.250 OA
BRANCH  58  60
ATOM     60  O   UNL     1       8.035   2.614 -17.285  1.00  0.00    -0.480 OA
ATOM     61  H   UNL     1       8.057   1.725 -16.868  1.00  0.00     0.296 HD
ENDBRANCH  58  60
ENDBRANCH  48  58
ENDBRANCH  46  48
ENDBRANCH  34  44
ENDBRANCH  32  34
ENDBRANCH  25  30
ENDBRANCH  23  25
ENDBRANCH   2  23
TORSDOF 28
ENDMDL
MODEL 43
REMARK VINA RESULT:    -4.652      2.511      6.155
REMARK INTER + INTRA:         -19.514
REMARK INTER:                 -12.637
REMARK INTRA:                  -6.877
REMARK UNBOUND:                -7.927
REMARK SMILES CCCCCCC[C@H](N)[C@H](O)C(=O)N[C@H](C)C(=O)N(C)[C@H](CC(C)C)C(=O)N[C@@H](Cc1ccc(O)cc1)C(=O)N[C@@H](Cc1ccc(O)cc1)C(=O)O
REMARK SMILES IDX 18 1 17 2 15 3 16 4 14 5 12 6 13 7 10 9 11 10 8 12 9 13 7 16
REMARK SMILES IDX 6 17 5 18 4 19 3 20 2 21 1 22 19 23 20 24 21 25 22 26 23 27
REMARK SMILES IDX 24 28 25 29 26 30 27 31 28 32 29 34 30 35 31 36 32 37 37 38
REMARK SMILES IDX 33 39 36 40 34 41 35 42 38 44 39 45 40 46 41 48 42 49 43 50
REMARK SMILES IDX 44 51 49 52 45 53 48 54 46 55 47 56 50 58 51 59 52 60
REMARK H PARENT 14 8 11 11 9 14 9 15 28 33 35 43 40 47 47 57 52 61
ROOT
ATOM      1  O   UNL     1      11.437   0.654 -15.948  1.00  0.00    -0.272 OA
ATOM      2  C   UNL     1      10.880  -0.378 -15.547  1.00  0.00     0.245 C 
ENDROOT
BRANCH   2   3
ATOM      3  C   UNL     1      11.225  -1.722 -16.237  1.00  0.00     0.168 C 
ATOM      4  C   UNL     1      12.653  -2.147 -15.912  1.00  0.00     0.041 C 
BRANCH   3   5
ATOM      5  N   UNL     1      10.272  -2.794 -15.997  1.00  0.00    -0.342 N 
ATOM      6  C   UNL     1       9.836  -3.621 -17.011  1.00  0.00     0.251 C 
ATOM      7  O   UNL     1      10.178  -3.494 -18.182  1.00  0.00    -0.272 OA
ATOM      8  H   UNL     1       9.891  -2.975 -15.071  1.00  0.00     0.164 HD
BRANCH   6   9
ATOM      9  C   UNL     1       8.947  -4.767 -16.502  1.00  0.00     0.219 C 
BRANCH   9  10
ATOM     10  O   UNL     1       9.220  -5.115 -15.139  1.00  0.00    -0.382 OA
ATOM     11  H   UNL     1       8.343  -5.388 -14.790  1.00  0.00     0.211 HD
ENDBRANCH   9  10
BRANCH   9  12
ATOM     12  C   UNL     1       7.433  -4.502 -16.710  1.00  0.00     0.089 C 
BRANCH  12  13
ATOM     13  N   UNL     1       7.115  -4.706 -18.142  1.00  0.00    -0.325 NA
ATOM     14  H   UNL     1       7.980  -4.677 -18.685  1.00  0.00     0.119 HD
ATOM     15  H   UNL     1       6.564  -3.912 -18.475  1.00  0.00     0.119 HD
ENDBRANCH  12  13
BRANCH  12  16
ATOM     16  C   UNL     1       6.472  -5.335 -15.828  1.00  0.00     0.022 C 
BRANCH  16  17
ATOM     17  C   UNL     1       5.821  -4.675 -14.604  1.00  0.00     0.002 C 
BRANCH  17  18
ATOM     18  C   UNL     1       6.240  -5.261 -13.258  1.00  0.00     0.000 C 
BRANCH  18  19
ATOM     19  C   UNL     1       6.403  -4.216 -12.145  1.00  0.00    -0.000 C 
BRANCH  19  20
ATOM     20  C   UNL     1       7.697  -3.400 -12.205  1.00  0.00    -0.000 C 
BRANCH  20  21
ATOM     21  C   UNL     1       8.164  -2.915 -10.830  1.00  0.00    -0.003 C 
ATOM     22  C   UNL     1       7.753  -1.472 -10.582  1.00  0.00     0.004 C 
ENDBRANCH  20  21
ENDBRANCH  19  20
ENDBRANCH  18  19
ENDBRANCH  17  18
ENDBRANCH  16  17
ENDBRANCH  12  16
ENDBRANCH   9  12
ENDBRANCH   6   9
ENDBRANCH   3   5
ENDBRANCH   2   3
BRANCH   2  23
ATOM     23  N   UNL     1      10.062  -0.336 -14.423  1.00  0.00    -0.332 N 
ATOM     24  C   UNL     1      10.410  -0.898 -13.127  1.00  0.00     0.147 C 
BRANCH  23  25
ATOM     25  C   UNL     1       8.785   0.429 -14.452  1.00  0.00     0.174 C 
BRANCH  25  26
ATOM     26  C   UNL     1       8.695   1.494 -13.334  1.00  0.00     0.038 C 
BRANCH  26  27
ATOM     27  C   UNL     1       8.434   2.951 -13.776  1.00  0.00    -0.015 C 
ATOM     28  C   UNL     1       8.713   3.171 -15.262  1.00  0.00     0.007 C 
ATOM     29  C   UNL     1       7.040   3.456 -13.411  1.00  0.00     0.007 C 
ENDBRANCH  26  27
ENDBRANCH  25  26
BRANCH  25  30
ATOM     30  C   UNL     1       7.583  -0.543 -14.482  1.00  0.00     0.243 C 
ATOM     31  O   UNL     1       7.607  -1.586 -15.134  1.00  0.00    -0.273 OA
ATOM     32  N   UNL     1       6.494  -0.163 -13.742  1.00  0.00    -0.342 N 
ATOM     33  H   UNL     1       6.602   0.641 -13.118  1.00  0.00     0.164 HD
BRANCH  32  34
ATOM     34  C   UNL     1       5.257  -0.945 -13.674  1.00  0.00     0.175 C 
BRANCH  34  35
ATOM     35  C   UNL     1       4.524  -0.719 -12.343  1.00  0.00     0.070 C 
BRANCH  35  36
ATOM     36  C   UNL     1       3.565  -1.839 -12.005  1.00  0.00    -0.045 A 
ATOM     37  C   UNL     1       3.206  -2.077 -10.670  1.00  0.00     0.007 A 
ATOM     38  C   UNL     1       3.042  -2.665 -13.009  1.00  0.00     0.007 A 
ATOM     39  C   UNL     1       2.334  -3.116 -10.347  1.00  0.00     0.046 A 
ATOM     40  C   UNL     1       2.169  -3.706 -12.687  1.00  0.00     0.046 A 
ATOM     41  C   UNL     1       1.822  -3.922 -11.357  1.00  0.00     0.115 A 
BRANCH  41  42
ATOM     42  O   UNL     1       0.974  -4.928 -10.999  1.00  0.00    -0.508 OA
ATOM     43  H   UNL     1       0.585  -4.707 -10.137  1.00  0.00     0.293 HD
ENDBRANCH  41  42
ENDBRANCH  35  36
ENDBRANCH  34  35
BRANCH  34  44
ATOM     44  C   UNL     1       4.380  -0.562 -14.888  1.00  0.00     0.243 C 
ATOM     45  O   UNL     1       4.394  -1.148 -15.967  1.00  0.00    -0.273 OA
ATOM     46  N   UNL     1       3.659   0.598 -14.699  1.00  0.00    -0.341 N 
ATOM     47  H   UNL     1       3.771   1.113 -13.829  1.00  0.00     0.164 HD
BRANCH  46  48
ATOM     48  C   UNL     1       2.810   1.196 -15.732  1.00  0.00     0.196 C 
BRANCH  48  49
ATOM     49  C   UNL     1       1.531   1.798 -15.127  1.00  0.00     0.072 C 
BRANCH  49  50
ATOM     50  C   UNL     1       0.966   0.955 -14.006  1.00  0.00    -0.045 A 
ATOM     51  C   UNL     1       1.108   1.374 -12.676  1.00  0.00     0.007 A 
ATOM     52  C   UNL     1       0.316  -0.257 -14.273  1.00  0.00     0.007 A 
ATOM     53  C   UNL     1       0.602   0.598 -11.633  1.00  0.00     0.046 A 
ATOM     54  C   UNL     1      -0.189  -1.035 -13.229  1.00  0.00     0.046 A 
ATOM     55  C   UNL     1      -0.043  -0.599 -11.917  1.00  0.00     0.115 A 
BRANCH  55  56
ATOM     56  O   UNL     1      -0.521  -1.329 -10.869  1.00  0.00    -0.508 OA
ATOM     57  H   UNL     1      -0.739  -2.219 -11.190  1.00  0.00     0.293 HD
ENDBRANCH  55  56
ENDBRANCH  49  50
ENDBRANCH  48  49
BRANCH  48  58
ATOM     58  C   UNL     1       3.603   2.294 -16.456  1.00  0.00     0.326 C 
ATOM     59  O   UNL     1       3.449   3.501 -16.361  1.00  0.00    -0.250 OA
BRANCH  58  60
ATOM     60  O   UNL     1       4.578   1.812 -17.267  1.00  0.00    -0.480 OA
ATOM     61  H   UNL     1       5.327   2.428 -17.111  1.00  0.00     0.296 HD
ENDBRANCH  58  60
ENDBRANCH  48  58
ENDBRANCH  46  48
ENDBRANCH  34  44
ENDBRANCH  32  34
ENDBRANCH  25  30
ENDBRANCH  23  25
ENDBRANCH   2  23
TORSDOF 28
ENDMDL
MODEL 44
REMARK VINA RESULT:    -4.624      2.485      7.107
REMARK INTER + INTRA:         -19.443
REMARK INTER:                 -13.653
REMARK INTRA:                  -5.790
REMARK UNBOUND:                -7.927
REMARK SMILES CCCCCCC[C@H](N)[C@H](O)C(=O)N[C@H](C)C(=O)N(C)[C@H](CC(C)C)C(=O)N[C@@H](Cc1ccc(O)cc1)C(=O)N[C@@H](Cc1ccc(O)cc1)C(=O)O
REMARK SMILES IDX 18 1 17 2 15 3 16 4 14 5 12 6 13 7 10 9 11 10 8 12 9 13 7 16
REMARK SMILES IDX 6 17 5 18 4 19 3 20 2 21 1 22 19 23 20 24 21 25 22 26 23 27
REMARK SMILES IDX 24 28 25 29 26 30 27 31 28 32 29 34 30 35 31 36 32 37 37 38
REMARK SMILES IDX 33 39 36 40 34 41 35 42 38 44 39 45 40 46 41 48 42 49 43 50
REMARK SMILES IDX 44 51 49 52 45 53 48 54 46 55 47 56 50 58 51 59 52 60
REMARK H PARENT 14 8 11 11 9 14 9 15 28 33 35 43 40 47 47 57 52 61
ROOT
ATOM      1  O   UNL     1       5.261  -3.913 -11.817  1.00  0.00    -0.272 OA
ATOM      2  C   UNL     1       4.576  -3.769 -12.841  1.00  0.00     0.245 C 
ENDROOT
BRANCH   2   3
ATOM      3  C   UNL     1       4.935  -4.603 -14.096  1.00  0.00     0.168 C 
ATOM      4  C   UNL     1       3.915  -4.377 -15.207  1.00  0.00     0.041 C 
BRANCH   3   5
ATOM      5  N   UNL     1       6.300  -4.435 -14.571  1.00  0.00    -0.342 N 
ATOM      6  C   UNL     1       6.777  -5.117 -15.671  1.00  0.00     0.251 C 
ATOM      7  O   UNL     1       6.114  -5.935 -16.299  1.00  0.00    -0.272 OA
ATOM      8  H   UNL     1       6.955  -3.809 -14.109  1.00  0.00     0.164 HD
BRANCH   6   9
ATOM      9  C   UNL     1       8.194  -4.678 -16.073  1.00  0.00     0.219 C 
BRANCH   9  10
ATOM     10  O   UNL     1       9.103  -5.780 -16.186  1.00  0.00    -0.382 OA
ATOM     11  H   UNL     1       9.986  -5.350 -16.200  1.00  0.00     0.211 HD
ENDBRANCH   9  10
BRANCH   9  12
ATOM     12  C   UNL     1       8.220  -3.808 -17.358  1.00  0.00     0.089 C 
BRANCH  12  13
ATOM     13  N   UNL     1       6.823  -3.530 -17.762  1.00  0.00    -0.325 NA
ATOM     14  H   UNL     1       6.520  -2.650 -17.340  1.00  0.00     0.119 HD
ATOM     15  H   UNL     1       6.213  -4.244 -17.358  1.00  0.00     0.119 HD
ENDBRANCH  12  13
BRANCH  12  16
ATOM     16  C   UNL     1       9.020  -2.487 -17.265  1.00  0.00     0.022 C 
BRANCH  16  17
ATOM     17  C   UNL     1       9.230  -1.651 -18.535  1.00  0.00     0.002 C 
BRANCH  17  18
ATOM     18  C   UNL     1      10.624  -1.753 -19.151  1.00  0.00     0.000 C 
BRANCH  18  19
ATOM     19  C   UNL     1      11.693  -2.292 -18.191  1.00  0.00    -0.000 C 
BRANCH  19  20
ATOM     20  C   UNL     1      12.303  -3.639 -18.588  1.00  0.00    -0.000 C 
BRANCH  20  21
ATOM     21  C   UNL     1      12.215  -4.688 -17.477  1.00  0.00    -0.003 C 
ATOM     22  C   UNL     1      12.158  -4.037 -16.103  1.00  0.00     0.004 C 
ENDBRANCH  20  21
ENDBRANCH  19  20
ENDBRANCH  18  19
ENDBRANCH  17  18
ENDBRANCH  16  17
ENDBRANCH  12  16
ENDBRANCH   9  12
ENDBRANCH   6   9
ENDBRANCH   3   5
ENDBRANCH   2   3
BRANCH   2  23
ATOM     23  N   UNL     1       3.440  -2.967 -12.811  1.00  0.00    -0.332 N 
ATOM     24  C   UNL     1       2.121  -3.419 -12.392  1.00  0.00     0.147 C 
BRANCH  23  25
ATOM     25  C   UNL     1       3.541  -1.510 -13.097  1.00  0.00     0.174 C 
BRANCH  25  26
ATOM     26  C   UNL     1       2.307  -0.956 -13.847  1.00  0.00     0.038 C 
BRANCH  26  27
ATOM     27  C   UNL     1       1.538   0.200 -13.170  1.00  0.00    -0.015 C 
ATOM     28  C   UNL     1       0.202  -0.252 -12.582  1.00  0.00     0.007 C 
ATOM     29  C   UNL     1       2.361   0.947 -12.124  1.00  0.00     0.007 C 
ENDBRANCH  26  27
ENDBRANCH  25  26
BRANCH  25  30
ATOM     30  C   UNL     1       4.885  -1.197 -13.796  1.00  0.00     0.243 C 
ATOM     31  O   UNL     1       4.956  -0.994 -15.007  1.00  0.00    -0.273 OA
ATOM     32  N   UNL     1       5.986  -1.169 -12.979  1.00  0.00    -0.342 N 
ATOM     33  H   UNL     1       5.827  -1.207 -11.969  1.00  0.00     0.164 HD
BRANCH  32  34
ATOM     34  C   UNL     1       7.343  -0.916 -13.471  1.00  0.00     0.175 C 
BRANCH  34  35
ATOM     35  C   UNL     1       7.760   0.544 -13.234  1.00  0.00     0.070 C 
BRANCH  35  36
ATOM     36  C   UNL     1       7.912   1.324 -14.520  1.00  0.00    -0.045 A 
ATOM     37  C   UNL     1       8.008   2.724 -14.485  1.00  0.00     0.007 A 
ATOM     38  C   UNL     1       7.937   0.670 -15.759  1.00  0.00     0.007 A 
ATOM     39  C   UNL     1       8.135   3.453 -15.667  1.00  0.00     0.046 A 
ATOM     40  C   UNL     1       8.063   1.400 -16.944  1.00  0.00     0.046 A 
ATOM     41  C   UNL     1       8.162   2.787 -16.886  1.00  0.00     0.115 A 
BRANCH  41  42
ATOM     42  O   UNL     1       8.285   3.537 -18.018  1.00  0.00    -0.508 OA
ATOM     43  H   UNL     1       7.481   4.074 -18.116  1.00  0.00     0.293 HD
ENDBRANCH  41  42
ENDBRANCH  35  36
ENDBRANCH  34  35
BRANCH  34  44
ATOM     44  C   UNL     1       8.298  -1.910 -12.773  1.00  0.00     0.243 C 
ATOM     45  O   UNL     1       8.335  -3.115 -13.003  1.00  0.00    -0.273 OA
ATOM     46  N   UNL     1       9.033  -1.341 -11.754  1.00  0.00    -0.341 N 
ATOM     47  H   UNL     1       8.882  -0.362 -11.523  1.00  0.00     0.164 HD
BRANCH  46  48
ATOM     48  C   UNL     1       9.955  -2.099 -10.905  1.00  0.00     0.196 C 
BRANCH  48  49
ATOM     49  C   UNL     1      11.421  -1.770 -11.238  1.00  0.00     0.072 C 
BRANCH  49  50
ATOM     50  C   UNL     1      11.552  -0.777 -12.371  1.00  0.00    -0.045 A 
ATOM     51  C   UNL     1      11.404   0.594 -12.119  1.00  0.00     0.007 A 
ATOM     52  C   UNL     1      11.799  -1.207 -13.681  1.00  0.00     0.007 A 
ATOM     53  C   UNL     1      11.510   1.519 -13.158  1.00  0.00     0.046 A 
ATOM     54  C   UNL     1      11.904  -0.282 -14.722  1.00  0.00     0.046 A 
ATOM     55  C   UNL     1      11.759   1.074 -14.451  1.00  0.00     0.115 A 
BRANCH  55  56
ATOM     56  O   UNL     1      11.854   2.009 -15.439  1.00  0.00    -0.508 OA
ATOM     57  H   UNL     1      11.720   1.567 -16.292  1.00  0.00     0.293 HD
ENDBRANCH  55  56
ENDBRANCH  49  50
ENDBRANCH  48  49
BRANCH  48  58
ATOM     58  C   UNL     1       9.673  -1.760  -9.435  1.00  0.00     0.326 C 
ATOM     59  O   UNL     1       8.916  -2.343  -8.675  1.00  0.00    -0.250 OA
BRANCH  58  60
ATOM     60  O   UNL     1      10.380  -0.696  -8.979  1.00  0.00    -0.480 OA
ATOM     61  H   UNL     1      11.294  -1.046  -8.905  1.00  0.00     0.296 HD
ENDBRANCH  58  60
ENDBRANCH  48  58
ENDBRANCH  46  48
ENDBRANCH  34  44
ENDBRANCH  32  34
ENDBRANCH  25  30
ENDBRANCH  23  25
ENDBRANCH   2  23
TORSDOF 28
ENDMDL
MODEL 45
REMARK VINA RESULT:    -4.553      2.053      3.005
REMARK INTER + INTRA:         -19.267
REMARK INTER:                 -14.453
REMARK INTRA:                  -4.814
REMARK UNBOUND:                -7.927
REMARK SMILES CCCCCCC[C@H](N)[C@H](O)C(=O)N[C@H](C)C(=O)N(C)[C@H](CC(C)C)C(=O)N[C@@H](Cc1ccc(O)cc1)C(=O)N[C@@H](Cc1ccc(O)cc1)C(=O)O
REMARK SMILES IDX 18 1 17 2 15 3 16 4 14 5 12 6 13 7 10 9 11 10 8 12 9 13 7 16
REMARK SMILES IDX 6 17 5 18 4 19 3 20 2 21 1 22 19 23 20 24 21 25 22 26 23 27
REMARK SMILES IDX 24 28 25 29 26 30 27 31 28 32 29 34 30 35 31 36 32 37 37 38
REMARK SMILES IDX 33 39 36 40 34 41 35 42 38 44 39 45 40 46 41 48 42 49 43 50
REMARK SMILES IDX 44 51 49 52 45 53 48 54 46 55 47 56 50 58 51 59 52 60
REMARK H PARENT 14 8 11 11 9 14 9 15 28 33 35 43 40 47 47 57 52 61
ROOT
ATOM      1  O   UNL     1       9.816  -2.673 -15.840  1.00  0.00    -0.272 OA
ATOM      2  C   UNL     1      10.146  -1.485 -15.969  1.00  0.00     0.245 C 
ENDROOT
BRANCH   2   3
ATOM      3  C   UNL     1       9.194  -0.530 -16.732  1.00  0.00     0.168 C 
ATOM      4  C   UNL     1       9.605  -0.411 -18.195  1.00  0.00     0.041 C 
BRANCH   3   5
ATOM      5  N   UNL     1       7.779  -0.837 -16.590  1.00  0.00    -0.342 N 
ATOM      6  C   UNL     1       7.117  -1.655 -17.481  1.00  0.00     0.251 C 
ATOM      7  O   UNL     1       7.650  -2.147 -18.471  1.00  0.00    -0.272 OA
ATOM      8  H   UNL     1       7.222  -0.458 -15.827  1.00  0.00     0.164 HD
BRANCH   6   9
ATOM      9  C   UNL     1       5.671  -1.952 -17.055  1.00  0.00     0.219 C 
BRANCH   9  10
ATOM     10  O   UNL     1       4.745  -1.869 -18.146  1.00  0.00    -0.382 OA
ATOM     11  H   UNL     1       5.248  -1.387 -18.839  1.00  0.00     0.211 HD
ENDBRANCH   9  10
BRANCH   9  12
ATOM     12  C   UNL     1       5.521  -3.302 -16.307  1.00  0.00     0.089 C 
BRANCH  12  13
ATOM     13  N   UNL     1       6.863  -3.915 -16.176  1.00  0.00    -0.325 NA
ATOM     14  H   UNL     1       7.498  -3.243 -15.740  1.00  0.00     0.119 HD
ATOM     15  H   UNL     1       7.246  -4.077 -17.110  1.00  0.00     0.119 HD
ENDBRANCH  12  13
BRANCH  12  16
ATOM     16  C   UNL     1       4.829  -3.239 -14.925  1.00  0.00     0.022 C 
BRANCH  16  17
ATOM     17  C   UNL     1       4.580  -1.870 -14.276  1.00  0.00     0.002 C 
BRANCH  17  18
ATOM     18  C   UNL     1       3.126  -1.587 -13.906  1.00  0.00     0.000 C 
BRANCH  18  19
ATOM     19  C   UNL     1       2.738  -2.054 -12.497  1.00  0.00    -0.000 C 
BRANCH  19  20
ATOM     20  C   UNL     1       1.925  -3.350 -12.442  1.00  0.00    -0.000 C 
BRANCH  20  21
ATOM     21  C   UNL     1       1.017  -3.541 -13.660  1.00  0.00    -0.003 C 
ATOM     22  C   UNL     1       1.514  -4.668 -14.551  1.00  0.00     0.004 C 
ENDBRANCH  20  21
ENDBRANCH  19  20
ENDBRANCH  18  19
ENDBRANCH  17  18
ENDBRANCH  16  17
ENDBRANCH  12  16
ENDBRANCH   9  12
ENDBRANCH   6   9
ENDBRANCH   3   5
ENDBRANCH   2   3
BRANCH   2  23
ATOM     23  N   UNL     1      11.286  -1.007 -15.333  1.00  0.00    -0.332 N 
ATOM     24  C   UNL     1      12.622  -1.020 -15.911  1.00  0.00     0.147 C 
BRANCH  23  25
ATOM     25  C   UNL     1      11.178  -0.311 -14.021  1.00  0.00     0.174 C 
BRANCH  25  26
ATOM     26  C   UNL     1      12.038   0.973 -13.947  1.00  0.00     0.038 C 
BRANCH  26  27
ATOM     27  C   UNL     1      11.310   2.317 -14.174  1.00  0.00    -0.015 C 
ATOM     28  C   UNL     1       9.830   2.250 -13.800  1.00  0.00     0.007 C 
ATOM     29  C   UNL     1      11.986   3.498 -13.482  1.00  0.00     0.007 C 
ENDBRANCH  26  27
ENDBRANCH  25  26
BRANCH  25  30
ATOM     30  C   UNL     1      11.446  -1.305 -12.868  1.00  0.00     0.243 C 
ATOM     31  O   UNL     1      12.213  -2.259 -12.996  1.00  0.00    -0.273 OA
ATOM     32  N   UNL     1      10.769  -1.057 -11.701  1.00  0.00    -0.342 N 
ATOM     33  H   UNL     1      10.263  -0.171 -11.627  1.00  0.00     0.164 HD
BRANCH  32  34
ATOM     34  C   UNL     1      10.879  -1.909 -10.514  1.00  0.00     0.175 C 
BRANCH  34  35
ATOM     35  C   UNL     1      11.410  -1.120  -9.308  1.00  0.00     0.070 C 
BRANCH  35  36
ATOM     36  C   UNL     1      10.859   0.286  -9.239  1.00  0.00    -0.045 A 
ATOM     37  C   UNL     1      11.335   1.270 -10.118  1.00  0.00     0.007 A 
ATOM     38  C   UNL     1       9.888   0.632  -8.290  1.00  0.00     0.007 A 
ATOM     39  C   UNL     1      10.842   2.574 -10.054  1.00  0.00     0.046 A 
ATOM     40  C   UNL     1       9.395   1.937  -8.224  1.00  0.00     0.046 A 
ATOM     41  C   UNL     1       9.876   2.897  -9.108  1.00  0.00     0.115 A 
BRANCH  41  42
ATOM     42  O   UNL     1       9.424   4.183  -9.076  1.00  0.00    -0.508 OA
ATOM     43  H   UNL     1       9.010   4.338  -8.211  1.00  0.00     0.293 HD
ENDBRANCH  41  42
ENDBRANCH  35  36
ENDBRANCH  34  35
BRANCH  34  44
ATOM     44  C   UNL     1       9.488  -2.523 -10.235  1.00  0.00     0.243 C 
ATOM     45  O   UNL     1       9.012  -2.682  -9.115  1.00  0.00    -0.273 OA
ATOM     46  N   UNL     1       8.865  -3.007 -11.366  1.00  0.00    -0.341 N 
ATOM     47  H   UNL     1       9.352  -2.957 -12.258  1.00  0.00     0.164 HD
BRANCH  46  48
ATOM     48  C   UNL     1       7.571  -3.692 -11.342  1.00  0.00     0.196 C 
BRANCH  48  49
ATOM     49  C   UNL     1       6.406  -2.688 -11.311  1.00  0.00     0.072 C 
BRANCH  49  50
ATOM     50  C   UNL     1       5.581  -2.793 -10.049  1.00  0.00    -0.045 A 
ATOM     51  C   UNL     1       5.655  -1.783  -9.079  1.00  0.00     0.007 A 
ATOM     52  C   UNL     1       4.753  -3.900  -9.819  1.00  0.00     0.007 A 
ATOM     53  C   UNL     1       4.909  -1.876  -7.904  1.00  0.00     0.046 A 
ATOM     54  C   UNL     1       4.007  -3.993  -8.642  1.00  0.00     0.046 A 
ATOM     55  C   UNL     1       4.090  -2.979  -7.694  1.00  0.00     0.115 A 
BRANCH  55  56
ATOM     56  O   UNL     1       3.379  -3.032  -6.533  1.00  0.00    -0.508 OA
ATOM     57  H   UNL     1       3.996  -2.931  -5.791  1.00  0.00     0.293 HD
ENDBRANCH  55  56
ENDBRANCH  49  50
ENDBRANCH  48  49
BRANCH  48  58
ATOM     58  C   UNL     1       7.453  -4.579 -12.589  1.00  0.00     0.326 C 
ATOM     59  O   UNL     1       8.148  -4.541 -13.592  1.00  0.00    -0.250 OA
BRANCH  58  60
ATOM     60  O   UNL     1       6.457  -5.497 -12.508  1.00  0.00    -0.480 OA
ATOM     61  H   UNL     1       6.790  -6.241 -13.055  1.00  0.00     0.296 HD
ENDBRANCH  58  60
ENDBRANCH  48  58
ENDBRANCH  46  48
ENDBRANCH  34  44
ENDBRANCH  32  34
ENDBRANCH  25  30
ENDBRANCH  23  25
ENDBRANCH   2  23
TORSDOF 28
ENDMDL
MODEL 46
REMARK VINA RESULT:    -4.514      2.306      6.215
REMARK INTER + INTRA:         -19.169
REMARK INTER:                 -14.088
REMARK INTRA:                  -5.080
REMARK UNBOUND:                -7.927
REMARK SMILES CCCCCCC[C@H](N)[C@H](O)C(=O)N[C@H](C)C(=O)N(C)[C@H](CC(C)C)C(=O)N[C@@H](Cc1ccc(O)cc1)C(=O)N[C@@H](Cc1ccc(O)cc1)C(=O)O
REMARK SMILES IDX 18 1 17 2 15 3 16 4 14 5 12 6 13 7 10 9 11 10 8 12 9 13 7 16
REMARK SMILES IDX 6 17 5 18 4 19 3 20 2 21 1 22 19 23 20 24 21 25 22 26 23 27
REMARK SMILES IDX 24 28 25 29 26 30 27 31 28 32 29 34 30 35 31 36 32 37 37 38
REMARK SMILES IDX 33 39 36 40 34 41 35 42 38 44 39 45 40 46 41 48 42 49 43 50
REMARK SMILES IDX 44 51 49 52 45 53 48 54 46 55 47 56 50 58 51 59 52 60
REMARK H PARENT 14 8 11 11 9 14 9 15 28 33 35 43 40 47 47 57 52 61
ROOT
ATOM      1  O   UNL     1      10.695  -5.100 -15.510  1.00  0.00    -0.272 OA
ATOM      2  C   UNL     1      10.815  -4.199 -16.354  1.00  0.00     0.245 C 
ENDROOT
BRANCH   2   3
ATOM      3  C   UNL     1      11.837  -3.066 -16.088  1.00  0.00     0.168 C 
ATOM      4  C   UNL     1      11.881  -2.090 -17.259  1.00  0.00     0.041 C 
BRANCH   3   5
ATOM      5  N   UNL     1      11.670  -2.379 -14.817  1.00  0.00    -0.342 N 
ATOM      6  C   UNL     1      10.438  -1.935 -14.385  1.00  0.00     0.251 C 
ATOM      7  O   UNL     1       9.410  -2.045 -15.045  1.00  0.00    -0.272 OA
ATOM      8  H   UNL     1      12.457  -2.198 -14.198  1.00  0.00     0.164 HD
BRANCH   6   9
ATOM      9  C   UNL     1      10.478  -1.369 -12.956  1.00  0.00     0.219 C 
BRANCH   9  10
ATOM     10  O   UNL     1      11.520  -1.947 -12.161  1.00  0.00    -0.382 OA
ATOM     11  H   UNL     1      11.383  -1.548 -11.274  1.00  0.00     0.211 HD
ENDBRANCH   9  10
BRANCH   9  12
ATOM     12  C   UNL     1      10.550   0.180 -12.917  1.00  0.00     0.089 C 
BRANCH  12  13
ATOM     13  N   UNL     1      10.312   0.693 -14.285  1.00  0.00    -0.325 NA
ATOM     14  H   UNL     1      11.160   1.154 -14.623  1.00  0.00     0.119 HD
ATOM     15  H   UNL     1       9.606   1.432 -14.244  1.00  0.00     0.119 HD
ENDBRANCH  12  13
BRANCH  12  16
ATOM     16  C   UNL     1       9.599   0.878 -11.915  1.00  0.00     0.022 C 
BRANCH  16  17
ATOM     17  C   UNL     1       8.083   0.783 -12.134  1.00  0.00     0.002 C 
BRANCH  17  18
ATOM     18  C   UNL     1       7.385  -0.321 -11.343  1.00  0.00     0.000 C 
BRANCH  18  19
ATOM     19  C   UNL     1       6.933  -1.512 -12.198  1.00  0.00    -0.000 C 
BRANCH  19  20
ATOM     20  C   UNL     1       6.974  -2.871 -11.493  1.00  0.00    -0.000 C 
BRANCH  20  21
ATOM     21  C   UNL     1       5.717  -3.156 -10.667  1.00  0.00    -0.003 C 
ATOM     22  C   UNL     1       5.820  -2.553  -9.274  1.00  0.00     0.004 C 
ENDBRANCH  20  21
ENDBRANCH  19  20
ENDBRANCH  18  19
ENDBRANCH  17  18
ENDBRANCH  16  17
ENDBRANCH  12  16
ENDBRANCH   9  12
ENDBRANCH   6   9
ENDBRANCH   3   5
ENDBRANCH   2   3
BRANCH   2  23
ATOM     23  N   UNL     1      10.132  -4.283 -17.563  1.00  0.00    -0.332 N 
ATOM     24  C   UNL     1      10.239  -3.312 -18.641  1.00  0.00     0.147 C 
BRANCH  23  25
ATOM     25  C   UNL     1       9.317  -5.487 -17.883  1.00  0.00     0.174 C 
BRANCH  25  26
ATOM     26  C   UNL     1       9.700  -6.131 -19.236  1.00  0.00     0.038 C 
BRANCH  26  27
ATOM     27  C   UNL     1      10.929  -7.068 -19.243  1.00  0.00    -0.015 C 
ATOM     28  C   UNL     1      12.221  -6.335 -19.601  1.00  0.00     0.007 C 
ATOM     29  C   UNL     1      11.100  -7.855 -17.946  1.00  0.00     0.007 C 
ENDBRANCH  26  27
ENDBRANCH  25  26
BRANCH  25  30
ATOM     30  C   UNL     1       7.812  -5.161 -17.754  1.00  0.00     0.243 C 
ATOM     31  O   UNL     1       7.015  -5.398 -18.661  1.00  0.00    -0.273 OA
ATOM     32  N   UNL     1       7.429  -4.587 -16.569  1.00  0.00    -0.342 N 
ATOM     33  H   UNL     1       8.119  -4.553 -15.814  1.00  0.00     0.164 HD
BRANCH  32  34
ATOM     34  C   UNL     1       6.049  -4.186 -16.282  1.00  0.00     0.175 C 
BRANCH  34  35
ATOM     35  C   UNL     1       5.731  -4.311 -14.784  1.00  0.00     0.070 C 
BRANCH  35  36
ATOM     36  C   UNL     1       4.291  -3.981 -14.462  1.00  0.00    -0.045 A 
ATOM     37  C   UNL     1       3.270  -4.878 -14.812  1.00  0.00     0.007 A 
ATOM     38  C   UNL     1       3.953  -2.774 -13.837  1.00  0.00     0.007 A 
ATOM     39  C   UNL     1       1.937  -4.575 -14.531  1.00  0.00     0.046 A 
ATOM     40  C   UNL     1       2.618  -2.469 -13.557  1.00  0.00     0.046 A 
ATOM     41  C   UNL     1       1.622  -3.375 -13.906  1.00  0.00     0.115 A 
BRANCH  41  42
ATOM     42  O   UNL     1       0.307  -3.116 -13.653  1.00  0.00    -0.508 OA
ATOM     43  H   UNL     1      -0.052  -3.850 -13.126  1.00  0.00     0.293 HD
ENDBRANCH  41  42
ENDBRANCH  35  36
ENDBRANCH  34  35
BRANCH  34  44
ATOM     44  C   UNL     1       5.854  -2.741 -16.795  1.00  0.00     0.243 C 
ATOM     45  O   UNL     1       5.167  -2.437 -17.766  1.00  0.00    -0.273 OA
ATOM     46  N   UNL     1       6.634  -1.815 -16.136  1.00  0.00    -0.341 N 
ATOM     47  H   UNL     1       7.276  -2.134 -15.414  1.00  0.00     0.164 HD
BRANCH  46  48
ATOM     48  C   UNL     1       6.671  -0.395 -16.491  1.00  0.00     0.196 C 
BRANCH  48  49
ATOM     49  C   UNL     1       6.420   0.496 -15.262  1.00  0.00     0.072 C 
BRANCH  49  50
ATOM     50  C   UNL     1       4.948   0.701 -14.984  1.00  0.00    -0.045 A 
ATOM     51  C   UNL     1       4.523   1.053 -13.695  1.00  0.00     0.007 A 
ATOM     52  C   UNL     1       3.992   0.524 -15.992  1.00  0.00     0.007 A 
ATOM     53  C   UNL     1       3.166   1.232 -13.423  1.00  0.00     0.046 A 
ATOM     54  C   UNL     1       2.634   0.703 -15.720  1.00  0.00     0.046 A 
ATOM     55  C   UNL     1       2.233   1.056 -14.436  1.00  0.00     0.115 A 
BRANCH  55  56
ATOM     56  O   UNL     1       0.917   1.239 -14.129  1.00  0.00    -0.508 OA
ATOM     57  H   UNL     1       0.863   1.719 -13.288  1.00  0.00     0.293 HD
ENDBRANCH  55  56
ENDBRANCH  49  50
ENDBRANCH  48  49
BRANCH  48  58
ATOM     58  C   UNL     1       8.044  -0.066 -17.092  1.00  0.00     0.326 C 
ATOM     59  O   UNL     1       8.725   0.925 -16.882  1.00  0.00    -0.250 OA
BRANCH  58  60
ATOM     60  O   UNL     1       8.510  -1.023 -17.934  1.00  0.00    -0.480 OA
ATOM     61  H   UNL     1       9.056  -1.592 -17.349  1.00  0.00     0.296 HD
ENDBRANCH  58  60
ENDBRANCH  48  58
ENDBRANCH  46  48
ENDBRANCH  34  44
ENDBRANCH  32  34
ENDBRANCH  25  30
ENDBRANCH  23  25
ENDBRANCH   2  23
TORSDOF 28
ENDMDL
MODEL 47
REMARK VINA RESULT:    -4.509      2.810      5.856
REMARK INTER + INTRA:         -19.158
REMARK INTER:                 -13.915
REMARK INTRA:                  -5.243
REMARK UNBOUND:                -7.927
REMARK SMILES CCCCCCC[C@H](N)[C@H](O)C(=O)N[C@H](C)C(=O)N(C)[C@H](CC(C)C)C(=O)N[C@@H](Cc1ccc(O)cc1)C(=O)N[C@@H](Cc1ccc(O)cc1)C(=O)O
REMARK SMILES IDX 18 1 17 2 15 3 16 4 14 5 12 6 13 7 10 9 11 10 8 12 9 13 7 16
REMARK SMILES IDX 6 17 5 18 4 19 3 20 2 21 1 22 19 23 20 24 21 25 22 26 23 27
REMARK SMILES IDX 24 28 25 29 26 30 27 31 28 32 29 34 30 35 31 36 32 37 37 38
REMARK SMILES IDX 33 39 36 40 34 41 35 42 38 44 39 45 40 46 41 48 42 49 43 50
REMARK SMILES IDX 44 51 49 52 45 53 48 54 46 55 47 56 50 58 51 59 52 60
REMARK H PARENT 14 8 11 11 9 14 9 15 28 33 35 43 40 47 47 57 52 61
ROOT
ATOM      1  O   UNL     1       9.426   2.198 -14.954  1.00  0.00    -0.272 OA
ATOM      2  C   UNL     1       8.479   1.633 -15.522  1.00  0.00     0.245 C 
ENDROOT
BRANCH   2   3
ATOM      3  C   UNL     1       7.225   2.469 -15.879  1.00  0.00     0.168 C 
ATOM      4  C   UNL     1       7.537   3.468 -16.989  1.00  0.00     0.041 C 
BRANCH   3   5
ATOM      5  N   UNL     1       6.033   1.688 -16.173  1.00  0.00    -0.342 N 
ATOM      6  C   UNL     1       4.814   1.976 -15.597  1.00  0.00     0.251 C 
ATOM      7  O   UNL     1       4.649   2.870 -14.775  1.00  0.00    -0.272 OA
ATOM      8  H   UNL     1       6.054   0.899 -16.814  1.00  0.00     0.164 HD
BRANCH   6   9
ATOM      9  C   UNL     1       3.672   1.114 -16.161  1.00  0.00     0.219 C 
BRANCH   9  10
ATOM     10  O   UNL     1       4.007   0.504 -17.413  1.00  0.00    -0.382 OA
ATOM     11  H   UNL     1       3.293  -0.158 -17.545  1.00  0.00     0.211 HD
ENDBRANCH   9  10
BRANCH   9  12
ATOM     12  C   UNL     1       3.155   0.055 -15.153  1.00  0.00     0.089 C 
BRANCH  12  13
ATOM     13  N   UNL     1       4.302  -0.426 -14.350  1.00  0.00    -0.325 NA
ATOM     14  H   UNL     1       5.025   0.296 -14.330  1.00  0.00     0.119 HD
ATOM     15  H   UNL     1       4.732  -1.221 -14.830  1.00  0.00     0.119 HD
ENDBRANCH  12  13
BRANCH  12  16
ATOM     16  C   UNL     1       2.007   0.510 -14.220  1.00  0.00     0.022 C 
BRANCH  16  17
ATOM     17  C   UNL     1       0.592   0.661 -14.796  1.00  0.00     0.002 C 
BRANCH  17  18
ATOM     18  C   UNL     1      -0.036   2.041 -14.609  1.00  0.00     0.000 C 
BRANCH  18  19
ATOM     19  C   UNL     1       0.828   3.197 -15.130  1.00  0.00    -0.000 C 
BRANCH  19  20
ATOM     20  C   UNL     1       0.437   3.729 -16.511  1.00  0.00    -0.000 C 
BRANCH  20  21
ATOM     21  C   UNL     1      -1.042   3.512 -16.841  1.00  0.00    -0.003 C 
ATOM     22  C   UNL     1      -1.214   2.597 -18.043  1.00  0.00     0.004 C 
ENDBRANCH  20  21
ENDBRANCH  19  20
ENDBRANCH  18  19
ENDBRANCH  17  18
ENDBRANCH  16  17
ENDBRANCH  12  16
ENDBRANCH   9  12
ENDBRANCH   6   9
ENDBRANCH   3   5
ENDBRANCH   2   3
BRANCH   2  23
ATOM     23  N   UNL     1       8.603   0.311 -15.934  1.00  0.00    -0.332 N 
ATOM     24  C   UNL     1       9.183  -0.109 -17.201  1.00  0.00     0.147 C 
BRANCH  23  25
ATOM     25  C   UNL     1       8.251  -0.800 -15.008  1.00  0.00     0.174 C 
BRANCH  25  26
ATOM     26  C   UNL     1       9.487  -1.592 -14.519  1.00  0.00     0.038 C 
BRANCH  26  27
ATOM     27  C   UNL     1      10.602  -0.785 -13.818  1.00  0.00    -0.015 C 
ATOM     28  C   UNL     1      10.184  -0.291 -12.433  1.00  0.00     0.007 C 
ATOM     29  C   UNL     1      11.934  -1.527 -13.743  1.00  0.00     0.007 C 
ENDBRANCH  26  27
ENDBRANCH  25  26
BRANCH  25  30
ATOM     30  C   UNL     1       7.153  -1.689 -15.637  1.00  0.00     0.243 C 
ATOM     31  O   UNL     1       6.331  -1.240 -16.434  1.00  0.00    -0.273 OA
ATOM     32  N   UNL     1       7.155  -3.002 -15.243  1.00  0.00    -0.342 N 
ATOM     33  H   UNL     1       7.952  -3.330 -14.691  1.00  0.00     0.164 HD
BRANCH  32  34
ATOM     34  C   UNL     1       6.172  -3.982 -15.714  1.00  0.00     0.175 C 
BRANCH  34  35
ATOM     35  C   UNL     1       6.860  -5.228 -16.294  1.00  0.00     0.070 C 
BRANCH  35  36
ATOM     36  C   UNL     1       8.177  -4.910 -16.964  1.00  0.00    -0.045 A 
ATOM     37  C   UNL     1       9.385  -5.215 -16.319  1.00  0.00     0.007 A 
ATOM     38  C   UNL     1       8.214  -4.290 -18.220  1.00  0.00     0.007 A 
ATOM     39  C   UNL     1      10.605  -4.913 -16.923  1.00  0.00     0.046 A 
ATOM     40  C   UNL     1       9.435  -3.986 -18.826  1.00  0.00     0.046 A 
ATOM     41  C   UNL     1      10.621  -4.302 -18.171  1.00  0.00     0.115 A 
BRANCH  41  42
ATOM     42  O   UNL     1      11.835  -4.021 -18.726  1.00  0.00    -0.508 OA
ATOM     43  H   UNL     1      12.337  -3.475 -18.099  1.00  0.00     0.293 HD
ENDBRANCH  41  42
ENDBRANCH  35  36
ENDBRANCH  34  35
BRANCH  34  44
ATOM     44  C   UNL     1       5.242  -4.334 -14.531  1.00  0.00     0.243 C 
ATOM     45  O   UNL     1       5.515  -5.145 -13.651  1.00  0.00    -0.273 OA
ATOM     46  N   UNL     1       3.998  -3.745 -14.618  1.00  0.00    -0.341 N 
ATOM     47  H   UNL     1       3.778  -3.172 -15.429  1.00  0.00     0.164 HD
BRANCH  46  48
ATOM     48  C   UNL     1       2.925  -3.983 -13.650  1.00  0.00     0.196 C 
BRANCH  48  49
ATOM     49  C   UNL     1       2.772  -2.799 -12.681  1.00  0.00     0.072 C 
BRANCH  49  50
ATOM     50  C   UNL     1       3.251  -3.125 -11.284  1.00  0.00    -0.045 A 
ATOM     51  C   UNL     1       2.329  -3.516 -10.303  1.00  0.00     0.007 A 
ATOM     52  C   UNL     1       4.606  -3.022 -10.945  1.00  0.00     0.007 A 
ATOM     53  C   UNL     1       2.757  -3.806  -9.007  1.00  0.00     0.046 A 
ATOM     54  C   UNL     1       5.035  -3.311  -9.648  1.00  0.00     0.046 A 
ATOM     55  C   UNL     1       4.106  -3.702  -8.689  1.00  0.00     0.115 A 
BRANCH  55  56
ATOM     56  O   UNL     1       4.483  -3.992  -7.412  1.00  0.00    -0.508 OA
ATOM     57  H   UNL     1       4.791  -4.912  -7.385  1.00  0.00     0.293 HD
ENDBRANCH  55  56
ENDBRANCH  49  50
ENDBRANCH  48  49
BRANCH  48  58
ATOM     58  C   UNL     1       1.608  -4.201 -14.409  1.00  0.00     0.326 C 
ATOM     59  O   UNL     1       0.507  -3.763 -14.119  1.00  0.00    -0.250 OA
BRANCH  58  60
ATOM     60  O   UNL     1       1.745  -4.962 -15.524  1.00  0.00    -0.480 OA
ATOM     61  H   UNL     1       0.879  -4.861 -15.974  1.00  0.00     0.296 HD
ENDBRANCH  58  60
ENDBRANCH  48  58
ENDBRANCH  46  48
ENDBRANCH  34  44
ENDBRANCH  32  34
ENDBRANCH  25  30
ENDBRANCH  23  25
ENDBRANCH   2  23
TORSDOF 28
ENDMDL
MODEL 48
REMARK VINA RESULT:    -4.489      2.759      6.822
REMARK INTER + INTRA:         -19.109
REMARK INTER:                 -13.743
REMARK INTRA:                  -5.366
REMARK UNBOUND:                -7.927
REMARK SMILES CCCCCCC[C@H](N)[C@H](O)C(=O)N[C@H](C)C(=O)N(C)[C@H](CC(C)C)C(=O)N[C@@H](Cc1ccc(O)cc1)C(=O)N[C@@H](Cc1ccc(O)cc1)C(=O)O
REMARK SMILES IDX 18 1 17 2 15 3 16 4 14 5 12 6 13 7 10 9 11 10 8 12 9 13 7 16
REMARK SMILES IDX 6 17 5 18 4 19 3 20 2 21 1 22 19 23 20 24 21 25 22 26 23 27
REMARK SMILES IDX 24 28 25 29 26 30 27 31 28 32 29 34 30 35 31 36 32 37 37 38
REMARK SMILES IDX 33 39 36 40 34 41 35 42 38 44 39 45 40 46 41 48 42 49 43 50
REMARK SMILES IDX 44 51 49 52 45 53 48 54 46 55 47 56 50 58 51 59 52 60
REMARK H PARENT 14 8 11 11 9 14 9 15 28 33 35 43 40 47 47 57 52 61
ROOT
ATOM      1  O   UNL     1       7.805   0.749 -16.184  1.00  0.00    -0.272 OA
ATOM      2  C   UNL     1       7.414  -0.410 -16.388  1.00  0.00     0.245 C 
ENDROOT
BRANCH   2   3
ATOM      3  C   UNL     1       8.455  -1.480 -16.802  1.00  0.00     0.168 C 
ATOM      4  C   UNL     1       8.249  -1.903 -18.253  1.00  0.00     0.041 C 
BRANCH   3   5
ATOM      5  N   UNL     1       9.839  -1.124 -16.532  1.00  0.00    -0.342 N 
ATOM      6  C   UNL     1      10.637  -1.882 -15.701  1.00  0.00     0.251 C 
ATOM      7  O   UNL     1      10.238  -2.875 -15.102  1.00  0.00    -0.272 OA
ATOM      8  H   UNL     1      10.271  -0.301 -16.945  1.00  0.00     0.164 HD
BRANCH   6   9
ATOM      9  C   UNL     1      12.096  -1.400 -15.676  1.00  0.00     0.219 C 
BRANCH   9  10
ATOM     10  O   UNL     1      12.652  -1.255 -16.988  1.00  0.00    -0.382 OA
ATOM     11  H   UNL     1      12.576  -0.291 -17.166  1.00  0.00     0.211 HD
ENDBRANCH   9  10
BRANCH   9  12
ATOM     12  C   UNL     1      12.295  -0.105 -14.846  1.00  0.00     0.089 C 
BRANCH  12  13
ATOM     13  N   UNL     1      11.597   1.004 -15.537  1.00  0.00    -0.325 NA
ATOM     14  H   UNL     1      11.648   1.845 -14.958  1.00  0.00     0.119 HD
ATOM     15  H   UNL     1      10.601   0.782 -15.597  1.00  0.00     0.119 HD
ENDBRANCH  12  13
BRANCH  12  16
ATOM     16  C   UNL     1      11.851  -0.173 -13.366  1.00  0.00     0.022 C 
BRANCH  16  17
ATOM     17  C   UNL     1      10.462   0.354 -12.978  1.00  0.00     0.002 C 
BRANCH  17  18
ATOM     18  C   UNL     1      10.450   1.346 -11.817  1.00  0.00     0.000 C 
BRANCH  18  19
ATOM     19  C   UNL     1      11.213   0.865 -10.576  1.00  0.00    -0.000 C 
BRANCH  19  20
ATOM     20  C   UNL     1      10.359   0.149  -9.525  1.00  0.00    -0.000 C 
BRANCH  20  21
ATOM     21  C   UNL     1      11.119  -0.956  -8.787  1.00  0.00    -0.003 C 
ATOM     22  C   UNL     1      11.305  -2.183  -9.665  1.00  0.00     0.004 C 
ENDBRANCH  20  21
ENDBRANCH  19  20
ENDBRANCH  18  19
ENDBRANCH  17  18
ENDBRANCH  16  17
ENDBRANCH  12  16
ENDBRANCH   9  12
ENDBRANCH   6   9
ENDBRANCH   3   5
ENDBRANCH   2   3
BRANCH   2  23
ATOM     23  N   UNL     1       6.092  -0.754 -16.127  1.00  0.00    -0.332 N 
ATOM     24  C   UNL     1       4.936  -0.088 -16.707  1.00  0.00     0.147 C 
BRANCH  23  25
ATOM     25  C   UNL     1       5.777  -1.954 -15.304  1.00  0.00     0.174 C 
BRANCH  25  26
ATOM     26  C   UNL     1       5.205  -3.124 -16.138  1.00  0.00     0.038 C 
BRANCH  26  27
ATOM     27  C   UNL     1       5.672  -4.547 -15.761  1.00  0.00    -0.015 C 
ATOM     28  C   UNL     1       7.167  -4.608 -15.449  1.00  0.00     0.007 C 
ATOM     29  C   UNL     1       4.861  -5.172 -14.629  1.00  0.00     0.007 C 
ENDBRANCH  26  27
ENDBRANCH  25  26
BRANCH  25  30
ATOM     30  C   UNL     1       4.891  -1.556 -14.101  1.00  0.00     0.243 C 
ATOM     31  O   UNL     1       5.320  -0.869 -13.176  1.00  0.00    -0.273 OA
ATOM     32  N   UNL     1       3.602  -2.024 -14.134  1.00  0.00    -0.342 N 
ATOM     33  H   UNL     1       3.281  -2.466 -14.999  1.00  0.00     0.164 HD
BRANCH  32  34
ATOM     34  C   UNL     1       2.630  -1.769 -13.068  1.00  0.00     0.175 C 
BRANCH  34  35
ATOM     35  C   UNL     1       1.228  -1.510 -13.641  1.00  0.00     0.070 C 
BRANCH  35  36
ATOM     36  C   UNL     1       0.428  -0.532 -12.810  1.00  0.00    -0.045 A 
ATOM     37  C   UNL     1      -0.267  -0.979 -11.676  1.00  0.00     0.007 A 
ATOM     38  C   UNL     1       0.350   0.821 -13.168  1.00  0.00     0.007 A 
ATOM     39  C   UNL     1      -1.019  -0.086 -10.911  1.00  0.00     0.046 A 
ATOM     40  C   UNL     1      -0.403   1.714 -12.403  1.00  0.00     0.046 A 
ATOM     41  C   UNL     1      -1.080   1.252 -11.279  1.00  0.00     0.115 A 
BRANCH  41  42
ATOM     42  O   UNL     1      -1.828   2.090 -10.507  1.00  0.00    -0.508 OA
ATOM     43  H   UNL     1      -1.236   2.534  -9.877  1.00  0.00     0.293 HD
ENDBRANCH  41  42
ENDBRANCH  35  36
ENDBRANCH  34  35
BRANCH  34  44
ATOM     44  C   UNL     1       2.645  -2.979 -12.106  1.00  0.00     0.243 C 
ATOM     45  O   UNL     1       2.179  -4.083 -12.373  1.00  0.00    -0.273 OA
ATOM     46  N   UNL     1       3.121  -2.674 -10.849  1.00  0.00    -0.341 N 
ATOM     47  H   UNL     1       3.388  -1.715 -10.640  1.00  0.00     0.164 HD
BRANCH  46  48
ATOM     48  C   UNL     1       3.168  -3.640  -9.749  1.00  0.00     0.196 C 
BRANCH  48  49
ATOM     49  C   UNL     1       4.508  -3.568  -8.997  1.00  0.00     0.072 C 
BRANCH  49  50
ATOM     50  C   UNL     1       5.680  -3.322  -9.919  1.00  0.00    -0.045 A 
ATOM     51  C   UNL     1       5.943  -4.215 -10.969  1.00  0.00     0.007 A 
ATOM     52  C   UNL     1       6.528  -2.223  -9.731  1.00  0.00     0.007 A 
ATOM     53  C   UNL     1       7.029  -4.005 -11.818  1.00  0.00     0.046 A 
ATOM     54  C   UNL     1       7.616  -2.014 -10.581  1.00  0.00     0.046 A 
ATOM     55  C   UNL     1       7.857  -2.907 -11.619  1.00  0.00     0.115 A 
BRANCH  55  56
ATOM     56  O   UNL     1       8.909  -2.740 -12.470  1.00  0.00    -0.508 OA
ATOM     57  H   UNL     1       9.693  -3.151 -12.072  1.00  0.00     0.293 HD
ENDBRANCH  55  56
ENDBRANCH  49  50
ENDBRANCH  48  49
BRANCH  48  58
ATOM     58  C   UNL     1       2.016  -3.347  -8.777  1.00  0.00     0.326 C 
ATOM     59  O   UNL     1       1.355  -2.324  -8.702  1.00  0.00    -0.250 OA
BRANCH  58  60
ATOM     60  O   UNL     1       1.737  -4.379  -7.942  1.00  0.00    -0.480 OA
ATOM     61  H   UNL     1       2.153  -5.149  -8.387  1.00  0.00     0.296 HD
ENDBRANCH  58  60
ENDBRANCH  48  58
ENDBRANCH  46  48
ENDBRANCH  34  44
ENDBRANCH  32  34
ENDBRANCH  25  30
ENDBRANCH  23  25
ENDBRANCH   2  23
TORSDOF 28
ENDMDL
MODEL 49
REMARK VINA RESULT:    -4.439      2.765      6.949
REMARK INTER + INTRA:         -18.982
REMARK INTER:                 -14.635
REMARK INTRA:                  -4.348
REMARK UNBOUND:                -7.927
REMARK SMILES CCCCCCC[C@H](N)[C@H](O)C(=O)N[C@H](C)C(=O)N(C)[C@H](CC(C)C)C(=O)N[C@@H](Cc1ccc(O)cc1)C(=O)N[C@@H](Cc1ccc(O)cc1)C(=O)O
REMARK SMILES IDX 18 1 17 2 15 3 16 4 14 5 12 6 13 7 10 9 11 10 8 12 9 13 7 16
REMARK SMILES IDX 6 17 5 18 4 19 3 20 2 21 1 22 19 23 20 24 21 25 22 26 23 27
REMARK SMILES IDX 24 28 25 29 26 30 27 31 28 32 29 34 30 35 31 36 32 37 37 38
REMARK SMILES IDX 33 39 36 40 34 41 35 42 38 44 39 45 40 46 41 48 42 49 43 50
REMARK SMILES IDX 44 51 49 52 45 53 48 54 46 55 47 56 50 58 51 59 52 60
REMARK H PARENT 14 8 11 11 9 14 9 15 28 33 35 43 40 47 47 57 52 61
ROOT
ATOM      1  O   UNL     1      11.496  -2.576 -16.829  1.00  0.00    -0.272 OA
ATOM      2  C   UNL     1      10.446  -2.211 -17.379  1.00  0.00     0.245 C 
ENDROOT
BRANCH   2   3
ATOM      3  C   UNL     1      10.084  -0.704 -17.359  1.00  0.00     0.168 C 
ATOM      4  C   UNL     1       8.584  -0.510 -17.168  1.00  0.00     0.041 C 
BRANCH   3   5
ATOM      5  N   UNL     1      10.857   0.097 -16.423  1.00  0.00    -0.342 N 
ATOM      6  C   UNL     1      10.729  -0.051 -15.058  1.00  0.00     0.251 C 
ATOM      7  O   UNL     1       9.937  -0.827 -14.534  1.00  0.00    -0.272 OA
ATOM      8  H   UNL     1      11.522   0.799 -16.740  1.00  0.00     0.164 HD
BRANCH   6   9
ATOM      9  C   UNL     1      11.743   0.794 -14.270  1.00  0.00     0.219 C 
BRANCH   9  10
ATOM     10  O   UNL     1      12.653   1.501 -15.122  1.00  0.00    -0.382 OA
ATOM     11  H   UNL     1      12.554   2.437 -14.840  1.00  0.00     0.211 HD
ENDBRANCH   9  10
BRANCH   9  12
ATOM     12  C   UNL     1      11.074   1.760 -13.257  1.00  0.00     0.089 C 
BRANCH  12  13
ATOM     13  N   UNL     1       9.648   1.911 -13.628  1.00  0.00    -0.325 NA
ATOM     14  H   UNL     1       9.405   2.904 -13.628  1.00  0.00     0.119 HD
ATOM     15  H   UNL     1       9.070   1.495 -12.894  1.00  0.00     0.119 HD
ENDBRANCH  12  13
BRANCH  12  16
ATOM     16  C   UNL     1      11.197   1.368 -11.765  1.00  0.00     0.022 C 
BRANCH  16  17
ATOM     17  C   UNL     1      11.166  -0.117 -11.378  1.00  0.00     0.002 C 
BRANCH  17  18
ATOM     18  C   UNL     1      10.744  -0.399  -9.937  1.00  0.00     0.000 C 
BRANCH  18  19
ATOM     19  C   UNL     1      10.962  -1.852  -9.495  1.00  0.00    -0.000 C 
BRANCH  19  20
ATOM     20  C   UNL     1       9.685  -2.678  -9.323  1.00  0.00    -0.000 C 
BRANCH  20  21
ATOM     21  C   UNL     1       8.508  -2.141 -10.142  1.00  0.00    -0.003 C 
ATOM     22  C   UNL     1       8.182  -3.057 -11.312  1.00  0.00     0.004 C 
ENDBRANCH  20  21
ENDBRANCH  19  20
ENDBRANCH  18  19
ENDBRANCH  17  18
ENDBRANCH  16  17
ENDBRANCH  12  16
ENDBRANCH   9  12
ENDBRANCH   6   9
ENDBRANCH   3   5
ENDBRANCH   2   3
BRANCH   2  23
ATOM     23  N   UNL     1       9.683  -3.124 -18.099  1.00  0.00    -0.332 N 
ATOM     24  C   UNL     1       9.355  -2.994 -19.511  1.00  0.00     0.147 C 
BRANCH  23  25
ATOM     25  C   UNL     1       9.249  -4.401 -17.470  1.00  0.00     0.174 C 
BRANCH  25  26
ATOM     26  C   UNL     1       9.793  -5.650 -18.204  1.00  0.00     0.038 C 
BRANCH  26  27
ATOM     27  C   UNL     1      11.141  -6.221 -17.710  1.00  0.00    -0.015 C 
ATOM     28  C   UNL     1      11.327  -6.057 -16.202  1.00  0.00     0.007 C 
ATOM     29  C   UNL     1      11.375  -7.671 -18.126  1.00  0.00     0.007 C 
ENDBRANCH  26  27
ENDBRANCH  25  26
BRANCH  25  30
ATOM     30  C   UNL     1       7.714  -4.409 -17.285  1.00  0.00     0.243 C 
ATOM     31  O   UNL     1       6.964  -4.945 -18.099  1.00  0.00    -0.273 OA
ATOM     32  N   UNL     1       7.249  -3.774 -16.162  1.00  0.00    -0.342 N 
ATOM     33  H   UNL     1       7.938  -3.479 -15.465  1.00  0.00     0.164 HD
BRANCH  32  34
ATOM     34  C   UNL     1       5.825  -3.659 -15.838  1.00  0.00     0.175 C 
BRANCH  34  35
ATOM     35  C   UNL     1       5.548  -4.061 -14.381  1.00  0.00     0.070 C 
BRANCH  35  36
ATOM     36  C   UNL     1       4.098  -3.885 -13.991  1.00  0.00    -0.045 A 
ATOM     37  C   UNL     1       3.092  -4.550 -14.709  1.00  0.00     0.007 A 
ATOM     38  C   UNL     1       3.736  -3.044 -12.930  1.00  0.00     0.007 A 
ATOM     39  C   UNL     1       1.751  -4.382 -14.365  1.00  0.00     0.046 A 
ATOM     40  C   UNL     1       2.393  -2.875 -12.586  1.00  0.00     0.046 A 
ATOM     41  C   UNL     1       1.411  -3.548 -13.307  1.00  0.00     0.115 A 
BRANCH  41  42
ATOM     42  O   UNL     1       0.089  -3.409 -13.006  1.00  0.00    -0.508 OA
ATOM     43  H   UNL     1      -0.421  -3.488 -13.829  1.00  0.00     0.293 HD
ENDBRANCH  41  42
ENDBRANCH  35  36
ENDBRANCH  34  35
BRANCH  34  44
ATOM     44  C   UNL     1       5.384  -2.207 -16.130  1.00  0.00     0.243 C 
ATOM     45  O   UNL     1       5.051  -1.792 -17.237  1.00  0.00    -0.273 OA
ATOM     46  N   UNL     1       5.520  -1.364 -15.047  1.00  0.00    -0.341 N 
ATOM     47  H   UNL     1       5.911  -1.730 -14.183  1.00  0.00     0.164 HD
BRANCH  46  48
ATOM     48  C   UNL     1       5.230   0.071 -15.102  1.00  0.00     0.196 C 
BRANCH  48  49
ATOM     49  C   UNL     1       4.057   0.440 -14.177  1.00  0.00     0.072 C 
BRANCH  49  50
ATOM     50  C   UNL     1       2.779   0.708 -14.938  1.00  0.00    -0.045 A 
ATOM     51  C   UNL     1       1.539   0.458 -14.332  1.00  0.00     0.007 A 
ATOM     52  C   UNL     1       2.810   1.186 -16.254  1.00  0.00     0.007 A 
ATOM     53  C   UNL     1       0.353   0.690 -15.029  1.00  0.00     0.046 A 
ATOM     54  C   UNL     1       1.622   1.417 -16.953  1.00  0.00     0.046 A 
ATOM     55  C   UNL     1       0.403   1.168 -16.332  1.00  0.00     0.115 A 
BRANCH  55  56
ATOM     56  O   UNL     1      -0.779   1.379 -16.979  1.00  0.00    -0.508 OA
ATOM     57  H   UNL     1      -0.742   2.249 -17.406  1.00  0.00     0.293 HD
ENDBRANCH  55  56
ENDBRANCH  49  50
ENDBRANCH  48  49
BRANCH  48  58
ATOM     58  C   UNL     1       6.483   0.850 -14.680  1.00  0.00     0.326 C 
ATOM     59  O   UNL     1       6.754   2.011 -14.942  1.00  0.00    -0.250 OA
BRANCH  58  60
ATOM     60  O   UNL     1       7.344   0.123 -13.924  1.00  0.00    -0.480 OA
ATOM     61  H   UNL     1       7.418   0.649 -13.098  1.00  0.00     0.296 HD
ENDBRANCH  58  60
ENDBRANCH  48  58
ENDBRANCH  46  48
ENDBRANCH  34  44
ENDBRANCH  32  34
ENDBRANCH  25  30
ENDBRANCH  23  25
ENDBRANCH   2  23
TORSDOF 28
ENDMDL
MODEL 50
REMARK VINA RESULT:    -4.429      2.611      6.429
REMARK INTER + INTRA:         -18.959
REMARK INTER:                 -14.243
REMARK INTRA:                  -4.716
REMARK UNBOUND:                -7.927
REMARK SMILES CCCCCCC[C@H](N)[C@H](O)C(=O)N[C@H](C)C(=O)N(C)[C@H](CC(C)C)C(=O)N[C@@H](Cc1ccc(O)cc1)C(=O)N[C@@H](Cc1ccc(O)cc1)C(=O)O
REMARK SMILES IDX 18 1 17 2 15 3 16 4 14 5 12 6 13 7 10 9 11 10 8 12 9 13 7 16
REMARK SMILES IDX 6 17 5 18 4 19 3 20 2 21 1 22 19 23 20 24 21 25 22 26 23 27
REMARK SMILES IDX 24 28 25 29 26 30 27 31 28 32 29 34 30 35 31 36 32 37 37 38
REMARK SMILES IDX 33 39 36 40 34 41 35 42 38 44 39 45 40 46 41 48 42 49 43 50
REMARK SMILES IDX 44 51 49 52 45 53 48 54 46 55 47 56 50 58 51 59 52 60
REMARK H PARENT 14 8 11 11 9 14 9 15 28 33 35 43 40 47 47 57 52 61
ROOT
ATOM      1  O   UNL     1       8.520  -4.562 -13.985  1.00  0.00    -0.272 OA
ATOM      2  C   UNL     1       7.947  -4.390 -15.071  1.00  0.00     0.245 C 
ENDROOT
BRANCH   2   3
ATOM      3  C   UNL     1       8.511  -5.099 -16.327  1.00  0.00     0.168 C 
ATOM      4  C   UNL     1       7.428  -5.266 -17.387  1.00  0.00     0.041 C 
BRANCH   3   5
ATOM      5  N   UNL     1       9.719  -4.501 -16.875  1.00  0.00    -0.342 N 
ATOM      6  C   UNL     1      10.976  -4.895 -16.468  1.00  0.00     0.251 C 
ATOM      7  O   UNL     1      11.172  -5.735 -15.596  1.00  0.00    -0.272 OA
ATOM      8  H   UNL     1       9.682  -3.769 -17.581  1.00  0.00     0.164 HD
BRANCH   6   9
ATOM      9  C   UNL     1      12.099  -4.233 -17.281  1.00  0.00     0.219 C 
BRANCH   9  10
ATOM     10  O   UNL     1      11.883  -4.320 -18.695  1.00  0.00    -0.382 OA
ATOM     11  H   UNL     1      11.887  -5.287 -18.870  1.00  0.00     0.211 HD
ENDBRANCH   9  10
BRANCH   9  12
ATOM     12  C   UNL     1      12.376  -2.767 -16.856  1.00  0.00     0.089 C 
BRANCH  12  13
ATOM     13  N   UNL     1      11.238  -1.929 -17.297  1.00  0.00    -0.325 NA
ATOM     14  H   UNL     1      11.579  -0.995 -17.532  1.00  0.00     0.119 HD
ATOM     15  H   UNL     1      10.603  -1.790 -16.507  1.00  0.00     0.119 HD
ENDBRANCH  12  13
BRANCH  12  16
ATOM     16  C   UNL     1      12.653  -2.538 -15.351  1.00  0.00     0.022 C 
BRANCH  16  17
ATOM     17  C   UNL     1      11.713  -1.628 -14.548  1.00  0.00     0.002 C 
BRANCH  17  18
ATOM     18  C   UNL     1      12.290  -0.261 -14.189  1.00  0.00     0.000 C 
BRANCH  18  19
ATOM     19  C   UNL     1      11.235   0.844 -14.044  1.00  0.00    -0.000 C 
BRANCH  19  20
ATOM     20  C   UNL     1       9.862   0.513 -14.635  1.00  0.00    -0.000 C 
BRANCH  20  21
ATOM     21  C   UNL     1       8.739   1.386 -14.067  1.00  0.00    -0.003 C 
ATOM     22  C   UNL     1       7.373   0.772 -14.331  1.00  0.00     0.004 C 
ENDBRANCH  20  21
ENDBRANCH  19  20
ENDBRANCH  18  19
ENDBRANCH  17  18
ENDBRANCH  16  17
ENDBRANCH  12  16
ENDBRANCH   9  12
ENDBRANCH   6   9
ENDBRANCH   3   5
ENDBRANCH   2   3
BRANCH   2  23
ATOM     23  N   UNL     1       6.755  -3.675 -15.123  1.00  0.00    -0.332 N 
ATOM     24  C   UNL     1       6.519  -2.524 -15.981  1.00  0.00     0.147 C 
BRANCH  23  25
ATOM     25  C   UNL     1       5.564  -4.144 -14.363  1.00  0.00     0.174 C 
BRANCH  25  26
ATOM     26  C   UNL     1       4.233  -3.601 -14.935  1.00  0.00     0.038 C 
BRANCH  26  27
ATOM     27  C   UNL     1       3.016  -3.589 -13.983  1.00  0.00    -0.015 C 
ATOM     28  C   UNL     1       2.433  -2.188 -13.798  1.00  0.00     0.007 C 
ATOM     29  C   UNL     1       1.923  -4.577 -14.381  1.00  0.00     0.007 C 
ENDBRANCH  26  27
ENDBRANCH  25  26
BRANCH  25  30
ATOM     30  C   UNL     1       5.752  -3.866 -12.854  1.00  0.00     0.243 C 
ATOM     31  O   UNL     1       5.770  -4.773 -12.023  1.00  0.00    -0.273 OA
ATOM     32  N   UNL     1       5.890  -2.547 -12.507  1.00  0.00    -0.342 N 
ATOM     33  H   UNL     1       6.007  -1.868 -13.263  1.00  0.00     0.164 HD
BRANCH  32  34
ATOM     34  C   UNL     1       6.050  -2.095 -11.122  1.00  0.00     0.175 C 
BRANCH  34  35
ATOM     35  C   UNL     1       7.055  -0.937 -11.024  1.00  0.00     0.070 C 
BRANCH  35  36
ATOM     36  C   UNL     1       8.433  -1.394 -10.601  1.00  0.00    -0.045 A 
ATOM     37  C   UNL     1       8.580  -2.257  -9.504  1.00  0.00     0.007 A 
ATOM     38  C   UNL     1       9.577  -0.948 -11.276  1.00  0.00     0.007 A 
ATOM     39  C   UNL     1       9.848  -2.673  -9.097  1.00  0.00     0.046 A 
ATOM     40  C   UNL     1      10.848  -1.363 -10.868  1.00  0.00     0.046 A 
ATOM     41  C   UNL     1      10.971  -2.223  -9.782  1.00  0.00     0.115 A 
BRANCH  41  42
ATOM     42  O   UNL     1      12.192  -2.651  -9.350  1.00  0.00    -0.508 OA
ATOM     43  H   UNL     1      12.804  -2.635 -10.105  1.00  0.00     0.293 HD
ENDBRANCH  41  42
ENDBRANCH  35  36
ENDBRANCH  34  35
BRANCH  34  44
ATOM     44  C   UNL     1       4.657  -1.696 -10.584  1.00  0.00     0.243 C 
ATOM     45  O   UNL     1       4.221  -0.549 -10.569  1.00  0.00    -0.273 OA
ATOM     46  N   UNL     1       3.978  -2.740  -9.992  1.00  0.00    -0.341 N 
ATOM     47  H   UNL     1       4.430  -3.649  -9.925  1.00  0.00     0.164 HD
BRANCH  46  48
ATOM     48  C   UNL     1       2.669  -2.590  -9.352  1.00  0.00     0.196 C 
BRANCH  48  49
ATOM     49  C   UNL     1       1.533  -2.610 -10.388  1.00  0.00     0.072 C 
BRANCH  49  50
ATOM     50  C   UNL     1       0.626  -1.406 -10.280  1.00  0.00    -0.045 A 
ATOM     51  C   UNL     1       0.006  -0.892 -11.428  1.00  0.00     0.007 A 
ATOM     52  C   UNL     1       0.407  -0.777  -9.047  1.00  0.00     0.007 A 
ATOM     53  C   UNL     1      -0.823   0.227 -11.342  1.00  0.00     0.046 A 
ATOM     54  C   UNL     1      -0.422   0.344  -8.962  1.00  0.00     0.046 A 
ATOM     55  C   UNL     1      -1.031   0.836 -10.111  1.00  0.00     0.115 A 
BRANCH  55  56
ATOM     56  O   UNL     1      -1.847   1.928 -10.070  1.00  0.00    -0.508 OA
ATOM     57  H   UNL     1      -1.646   2.488 -10.837  1.00  0.00     0.293 HD
ENDBRANCH  55  56
ENDBRANCH  49  50
ENDBRANCH  48  49
BRANCH  48  58
ATOM     58  C   UNL     1       2.471  -3.734  -8.348  1.00  0.00     0.326 C 
ATOM     59  O   UNL     1       3.029  -3.879  -7.273  1.00  0.00    -0.250 OA
BRANCH  58  60
ATOM     60  O   UNL     1       1.551  -4.650  -8.746  1.00  0.00    -0.480 OA
ATOM     61  H   UNL     1       2.065  -5.245  -9.334  1.00  0.00     0.296 HD
ENDBRANCH  58  60
ENDBRANCH  48  58
ENDBRANCH  46  48
ENDBRANCH  34  44
ENDBRANCH  32  34
ENDBRANCH  25  30
ENDBRANCH  23  25
ENDBRANCH   2  23
TORSDOF 28
ENDMDL
