MODEL 1
REMARK VINA RESULT:    -6.951      0.000      0.000
REMARK INTER + INTRA:         -18.302
REMARK INTER:                 -14.062
REMARK INTRA:                  -4.239
REMARK UNBOUND:                -4.239
REMARK SMILES CC[C@@H](C)[C@@H](NC(=O)[C@@H](O)Cc1ccc(O)c(Cl)c1)C(=O)N1[C@H](C(=O)NCCCCN=C(N)N)C[C@H]2CC[C@H](OS(=O)(=O)O)C[C@@H]21
REMARK SMILES IDX 22 1 36 2 46 3 35 4 23 5 45 6 37 7 39 8 38 9 20 10 21 11
REMARK SMILES IDX 5 12 6 13 7 14 8 15 9 17 11 18 12 19 17 20 19 21 15 22 14 23
REMARK SMILES IDX 13 24 18 25 16 26 10 28 3 30 4 31 2 32 1 33 24 34 25 35
REMARK SMILES IDX 26 36 27 38 28 39 29 40 30 41 31 42 32 43 33 44 34 45 40 50
REMARK SMILES IDX 41 51 42 52 43 53 44 54
REMARK H PARENT 6 16 16 27 10 29 26 37 33 46 33 47 34 48 34 49 44 55
ROOT
ATOM      1  N   UNL     1     -11.762   2.930  -7.641  1.00  0.00    -0.326 N 
ATOM      2  C   UNL     1      -9.438   3.251  -7.440  1.00  0.00     0.014 C 
ATOM      3  C   UNL     1     -10.523   2.170  -7.444  1.00  0.00     0.091 C 
ATOM      4  C   UNL     1     -10.138   4.426  -6.774  1.00  0.00     0.041 C 
ATOM      5  C   UNL     1     -11.495   4.382  -7.500  1.00  0.00     0.175 C 
ATOM      6  C   UNL     1     -10.149   1.113  -8.481  1.00  0.00     0.059 C 
ATOM      7  C   UNL     1      -8.148   2.721  -6.847  1.00  0.00     0.008 C 
ATOM      8  C   UNL     1      -8.626   0.922  -8.652  1.00  0.00     0.143 C 
ATOM      9  C   UNL     1      -7.848   1.302  -7.376  1.00  0.00     0.034 C 
ENDROOT
BRANCH   1  10
ATOM     10  C   UNL     1     -13.072   2.488  -7.710  1.00  0.00     0.246 C 
ATOM     11  O   UNL     1     -13.795   2.592  -6.714  1.00  0.00    -0.272 OA
BRANCH  10  12
ATOM     12  C   UNL     1     -13.618   1.912  -9.049  1.00  0.00     0.174 C 
BRANCH  12  13
ATOM     13  N   UNL     1     -14.838   2.619  -9.436  1.00  0.00    -0.342 N 
ATOM     14  C   UNL     1     -15.215   2.893 -10.732  1.00  0.00     0.249 C 
ATOM     15  O   UNL     1     -14.575   2.546 -11.716  1.00  0.00    -0.272 OA
ATOM     16  H   UNL     1     -15.385   3.103  -8.729  1.00  0.00     0.164 HD
BRANCH  14  17
ATOM     17  C   UNL     1     -16.546   3.670 -10.813  1.00  0.00     0.207 C 
BRANCH  17  18
ATOM     18  C   UNL     1     -17.731   2.700 -10.861  1.00  0.00     0.077 C 
BRANCH  18  19
ATOM     19  C   UNL     1     -18.313   2.454  -9.487  1.00  0.00    -0.043 A 
ATOM     20  C   UNL     1     -18.568   3.106  -7.165  1.00  0.00     0.083 A 
ATOM     21  C   UNL     1     -18.071   3.361  -8.443  1.00  0.00     0.028 A 
ATOM     22  C   UNL     1     -19.307   1.948  -6.921  1.00  0.00     0.134 A 
ATOM     23  C   UNL     1     -19.554   1.042  -7.946  1.00  0.00     0.048 A 
ATOM     24  C   UNL     1     -19.056   1.293  -9.226  1.00  0.00     0.008 A 
ATOM     25  Cl  UNL     1     -18.260   4.231  -5.895  1.00  0.00    -0.080 Cl
BRANCH  22  26
ATOM     26  O   UNL     1     -19.806   1.650  -5.682  1.00  0.00    -0.506 OA
ATOM     27  H   UNL     1     -20.164   0.744  -5.734  1.00  0.00     0.293 HD
ENDBRANCH  22  26
ENDBRANCH  18  19
ENDBRANCH  17  18
BRANCH  17  28
ATOM     28  O   UNL     1     -16.579   4.521 -11.970  1.00  0.00    -0.383 OA
ATOM     29  H   UNL     1     -15.668   4.881 -12.069  1.00  0.00     0.211 HD
ENDBRANCH  17  28
ENDBRANCH  14  17
ENDBRANCH  12  13
BRANCH  12  30
ATOM     30  C   UNL     1     -13.815   0.373  -9.004  1.00  0.00     0.018 C 
ATOM     31  C   UNL     1     -13.045  -0.310 -10.145  1.00  0.00     0.010 C 
BRANCH  30  32
ATOM     32  C   UNL     1     -15.299  -0.065  -9.026  1.00  0.00     0.002 C 
ATOM     33  C   UNL     1     -15.981  -0.128  -7.665  1.00  0.00     0.004 C 
ENDBRANCH  30  32
ENDBRANCH  12  30
ENDBRANCH  10  12
ENDBRANCH   1  10
BRANCH   5  34
ATOM     34  C   UNL     1     -11.420   5.065  -8.892  1.00  0.00     0.242 C 
ATOM     35  O   UNL     1     -11.633   4.452  -9.938  1.00  0.00    -0.273 OA
ATOM     36  N   UNL     1     -11.047   6.391  -8.875  1.00  0.00    -0.354 N 
ATOM     37  H   UNL     1     -10.767   6.811  -7.988  1.00  0.00     0.163 HD
BRANCH  36  38
ATOM     38  C   UNL     1     -11.135   7.234 -10.049  1.00  0.00     0.116 C 
BRANCH  38  39
ATOM     39  C   UNL     1     -12.160   8.341  -9.816  1.00  0.00     0.023 C 
BRANCH  39  40
ATOM     40  C   UNL     1     -13.036   8.591 -11.039  1.00  0.00     0.026 C 
BRANCH  40  41
ATOM     41  C   UNL     1     -12.398   7.993 -12.294  1.00  0.00     0.146 C 
BRANCH  41  42
ATOM     42  N   UNL     1     -13.436   7.471 -13.173  1.00  0.00    -0.254 NA
ATOM     43  C   UNL     1     -13.827   6.259 -13.040  1.00  0.00     0.185 C 
ATOM     44  N   UNL     1     -13.427   5.310 -12.175  1.00  0.00    -0.370 N 
ATOM     45  N   UNL     1     -14.782   5.795 -13.864  1.00  0.00    -0.370 N 
ATOM     46  H   UNL     1     -13.640   4.341 -12.341  1.00  0.00     0.159 HD
ATOM     47  H   UNL     1     -12.719   5.495 -11.471  1.00  0.00     0.159 HD
ATOM     48  H   UNL     1     -15.146   6.450 -14.542  1.00  0.00     0.159 HD
ATOM     49  H   UNL     1     -15.301   4.956 -13.676  1.00  0.00     0.159 HD
ENDBRANCH  41  42
ENDBRANCH  40  41
ENDBRANCH  39  40
ENDBRANCH  38  39
ENDBRANCH  36  38
ENDBRANCH   5  34
BRANCH   8  50
ATOM     50  O   UNL     1      -8.149   1.728  -9.730  1.00  0.00    -0.245 OA
BRANCH  50  51
ATOM     51  S   UNL     1      -6.873   1.225 -10.604  1.00  0.00     0.397 S 
ATOM     52  O   UNL     1      -7.001   1.770 -11.937  1.00  0.00    -0.169 OA
ATOM     53  O   UNL     1      -6.656  -0.189 -10.379  1.00  0.00    -0.169 OA
BRANCH  51  54
ATOM     54  O   UNL     1      -5.660   2.027  -9.918  1.00  0.00    -0.264 OA
ATOM     55  H   UNL     1      -5.371   2.723 -10.543  1.00  0.00     0.236 HD
ENDBRANCH  51  54
ENDBRANCH  50  51
ENDBRANCH   8  50
TORSDOF 19
ENDMDL
MODEL 2
REMARK VINA RESULT:    -6.908      3.349      8.102
REMARK INTER + INTRA:         -18.215
REMARK INTER:                 -14.025
REMARK INTRA:                  -4.190
REMARK UNBOUND:                -4.239
REMARK SMILES CC[C@@H](C)[C@@H](NC(=O)[C@@H](O)Cc1ccc(O)c(Cl)c1)C(=O)N1[C@H](C(=O)NCCCCN=C(N)N)C[C@H]2CC[C@H](OS(=O)(=O)O)C[C@@H]21
REMARK SMILES IDX 22 1 36 2 46 3 35 4 23 5 45 6 37 7 39 8 38 9 20 10 21 11
REMARK SMILES IDX 5 12 6 13 7 14 8 15 9 17 11 18 12 19 17 20 19 21 15 22 14 23
REMARK SMILES IDX 13 24 18 25 16 26 10 28 3 30 4 31 2 32 1 33 24 34 25 35
REMARK SMILES IDX 26 36 27 38 28 39 29 40 30 41 31 42 32 43 33 44 34 45 40 50
REMARK SMILES IDX 41 51 42 52 43 53 44 54
REMARK H PARENT 6 16 16 27 10 29 26 37 33 46 33 47 34 48 34 49 44 55
ROOT
ATOM      1  N   UNL     1     -16.039   5.460 -10.870  1.00  0.00    -0.326 N 
ATOM      2  C   UNL     1     -16.973   3.301 -10.804  1.00  0.00     0.014 C 
ATOM      3  C   UNL     1     -15.760   4.089 -11.306  1.00  0.00     0.091 C 
ATOM      4  C   UNL     1     -18.108   4.303 -10.951  1.00  0.00     0.041 C 
ATOM      5  C   UNL     1     -17.434   5.563 -10.377  1.00  0.00     0.175 C 
ATOM      6  C   UNL     1     -14.494   3.408 -10.789  1.00  0.00     0.059 C 
ATOM      7  C   UNL     1     -17.072   1.958 -11.501  1.00  0.00     0.008 C 
ATOM      8  C   UNL     1     -14.629   1.877 -10.639  1.00  0.00     0.143 C 
ATOM      9  C   UNL     1     -15.684   1.292 -11.599  1.00  0.00     0.034 C 
ENDROOT
BRANCH   1  10
ATOM     10  C   UNL     1     -15.302   6.618 -11.056  1.00  0.00     0.246 C 
ATOM     11  O   UNL     1     -15.748   7.689 -10.631  1.00  0.00    -0.272 OA
BRANCH  10  12
ATOM     12  C   UNL     1     -13.914   6.540 -11.756  1.00  0.00     0.174 C 
BRANCH  12  13
ATOM     13  N   UNL     1     -12.877   7.058 -10.866  1.00  0.00    -0.342 N 
ATOM     14  C   UNL     1     -11.621   6.515 -10.715  1.00  0.00     0.249 C 
ATOM     15  O   UNL     1     -11.220   5.541 -11.339  1.00  0.00    -0.272 OA
ATOM     16  H   UNL     1     -13.114   7.764 -10.173  1.00  0.00     0.164 HD
BRANCH  14  17
ATOM     17  C   UNL     1     -10.760   7.280  -9.687  1.00  0.00     0.207 C 
BRANCH  17  18
ATOM     18  C   UNL     1     -11.293   7.052  -8.268  1.00  0.00     0.077 C 
BRANCH  18  19
ATOM     19  C   UNL     1     -11.313   5.585  -7.904  1.00  0.00    -0.043 A 
ATOM     20  C   UNL     1     -10.144   3.571  -7.223  1.00  0.00     0.083 A 
ATOM     21  C   UNL     1     -10.132   4.936  -7.511  1.00  0.00     0.028 A 
ATOM     22  C   UNL     1     -11.332   2.846  -7.328  1.00  0.00     0.134 A 
ATOM     23  C   UNL     1     -12.509   3.476  -7.717  1.00  0.00     0.048 A 
ATOM     24  C   UNL     1     -12.499   4.842  -8.007  1.00  0.00     0.008 A 
ATOM     25  Cl  UNL     1      -8.683   2.792  -6.742  1.00  0.00    -0.080 Cl
BRANCH  22  26
ATOM     26  O   UNL     1     -11.391   1.504  -7.067  1.00  0.00    -0.506 OA
ATOM     27  H   UNL     1     -12.292   1.213  -7.300  1.00  0.00     0.293 HD
ENDBRANCH  22  26
ENDBRANCH  18  19
ENDBRANCH  17  18
BRANCH  17  28
ATOM     28  O   UNL     1     -10.746   8.688  -9.970  1.00  0.00    -0.383 OA
ATOM     29  H   UNL     1     -11.306   8.811 -10.770  1.00  0.00     0.211 HD
ENDBRANCH  17  28
ENDBRANCH  14  17
ENDBRANCH  12  13
BRANCH  12  30
ATOM     30  C   UNL     1     -13.903   7.233 -13.145  1.00  0.00     0.018 C 
ATOM     31  C   UNL     1     -13.476   8.704 -13.019  1.00  0.00     0.010 C 
BRANCH  30  32
ATOM     32  C   UNL     1     -15.251   7.133 -13.900  1.00  0.00     0.002 C 
ATOM     33  C   UNL     1     -15.884   8.466 -14.281  1.00  0.00     0.004 C 
ENDBRANCH  30  32
ENDBRANCH  12  30
ENDBRANCH  10  12
ENDBRANCH   1  10
BRANCH   5  34
ATOM     34  C   UNL     1     -17.470   5.574  -8.825  1.00  0.00     0.242 C 
ATOM     35  O   UNL     1     -16.464   5.774  -8.145  1.00  0.00    -0.273 OA
ATOM     36  N   UNL     1     -18.696   5.290  -8.266  1.00  0.00    -0.354 N 
ATOM     37  H   UNL     1     -19.464   5.014  -8.879  1.00  0.00     0.163 HD
BRANCH  36  38
ATOM     38  C   UNL     1     -18.961   5.467  -6.853  1.00  0.00     0.116 C 
BRANCH  38  39
ATOM     39  C   UNL     1     -18.755   4.145  -6.117  1.00  0.00     0.023 C 
BRANCH  39  40
ATOM     40  C   UNL     1     -19.056   2.936  -6.996  1.00  0.00     0.026 C 
BRANCH  40  41
ATOM     41  C   UNL     1     -19.143   1.663  -6.155  1.00  0.00     0.146 C 
BRANCH  41  42
ATOM     42  N   UNL     1     -18.026   0.783  -6.475  1.00  0.00    -0.254 NA
ATOM     43  C   UNL     1     -17.729  -0.177  -5.682  1.00  0.00     0.185 C 
ATOM     44  N   UNL     1     -18.302  -0.551  -4.523  1.00  0.00    -0.370 N 
ATOM     45  N   UNL     1     -16.693  -0.973  -5.992  1.00  0.00    -0.370 N 
ATOM     46  H   UNL     1     -17.820  -1.163  -3.887  1.00  0.00     0.159 HD
ATOM     47  H   UNL     1     -19.109  -0.064  -4.146  1.00  0.00     0.159 HD
ATOM     48  H   UNL     1     -16.211  -0.765  -6.856  1.00  0.00     0.159 HD
ATOM     49  H   UNL     1     -16.547  -1.869  -5.561  1.00  0.00     0.159 HD
ENDBRANCH  41  42
ENDBRANCH  40  41
ENDBRANCH  39  40
ENDBRANCH  38  39
ENDBRANCH  36  38
ENDBRANCH   5  34
BRANCH   8  50
ATOM     50  O   UNL     1     -15.001   1.546  -9.301  1.00  0.00    -0.245 OA
BRANCH  50  51
ATOM     51  S   UNL     1     -14.412   0.194  -8.615  1.00  0.00     0.397 S 
ATOM     52  O   UNL     1     -13.055   0.012  -9.079  1.00  0.00    -0.169 OA
ATOM     53  O   UNL     1     -15.395  -0.865  -8.707  1.00  0.00    -0.169 OA
BRANCH  51  54
ATOM     54  O   UNL     1     -14.293   0.626  -7.070  1.00  0.00    -0.264 OA
ATOM     55  H   UNL     1     -14.684   1.519  -6.979  1.00  0.00     0.236 HD
ENDBRANCH  51  54
ENDBRANCH  50  51
ENDBRANCH   8  50
TORSDOF 19
ENDMDL
MODEL 3
REMARK VINA RESULT:    -6.732      3.436      6.680
REMARK INTER + INTRA:         -17.858
REMARK INTER:                 -14.912
REMARK INTRA:                  -2.946
REMARK UNBOUND:                -4.239
REMARK SMILES CC[C@@H](C)[C@@H](NC(=O)[C@@H](O)Cc1ccc(O)c(Cl)c1)C(=O)N1[C@H](C(=O)NCCCCN=C(N)N)C[C@H]2CC[C@H](OS(=O)(=O)O)C[C@@H]21
REMARK SMILES IDX 22 1 36 2 46 3 35 4 23 5 45 6 37 7 39 8 38 9 20 10 21 11
REMARK SMILES IDX 5 12 6 13 7 14 8 15 9 17 11 18 12 19 17 20 19 21 15 22 14 23
REMARK SMILES IDX 13 24 18 25 16 26 10 28 3 30 4 31 2 32 1 33 24 34 25 35
REMARK SMILES IDX 26 36 27 38 28 39 29 40 30 41 31 42 32 43 33 44 34 45 40 50
REMARK SMILES IDX 41 51 42 52 43 53 44 54
REMARK H PARENT 6 16 16 27 10 29 26 37 33 46 33 47 34 48 34 49 44 55
ROOT
ATOM      1  N   UNL     1     -15.633   2.413  -9.225  1.00  0.00    -0.326 N 
ATOM      2  C   UNL     1     -15.304   2.626 -11.546  1.00  0.00     0.014 C 
ATOM      3  C   UNL     1     -15.855   3.361 -10.321  1.00  0.00     0.091 C 
ATOM      4  C   UNL     1     -15.644   1.174 -11.248  1.00  0.00     0.041 C 
ATOM      5  C   UNL     1     -15.225   1.094  -9.769  1.00  0.00     0.175 C 
ATOM      6  C   UNL     1     -15.188   4.733 -10.239  1.00  0.00     0.059 C 
ATOM      7  C   UNL     1     -15.805   3.259 -12.829  1.00  0.00     0.008 C 
ATOM      8  C   UNL     1     -14.828   5.332 -11.616  1.00  0.00     0.143 C 
ATOM      9  C   UNL     1     -15.744   4.799 -12.737  1.00  0.00     0.034 C 
ENDROOT
BRANCH   1  10
ATOM     10  C   UNL     1     -15.947   2.521  -7.881  1.00  0.00     0.246 C 
ATOM     11  O   UNL     1     -15.043   2.736  -7.067  1.00  0.00    -0.272 OA
BRANCH  10  12
ATOM     12  C   UNL     1     -17.433   2.412  -7.430  1.00  0.00     0.174 C 
BRANCH  12  13
ATOM     13  N   UNL     1     -17.552   2.769  -6.017  1.00  0.00    -0.342 N 
ATOM     14  C   UNL     1     -18.556   3.543  -5.479  1.00  0.00     0.249 C 
ATOM     15  O   UNL     1     -19.487   4.001  -6.130  1.00  0.00    -0.272 OA
ATOM     16  H   UNL     1     -16.774   2.595  -5.386  1.00  0.00     0.164 HD
BRANCH  14  17
ATOM     17  C   UNL     1     -18.394   3.756  -3.959  1.00  0.00     0.207 C 
BRANCH  17  18
ATOM     18  C   UNL     1     -19.366   2.858  -3.186  1.00  0.00     0.077 C 
BRANCH  18  19
ATOM     19  C   UNL     1     -18.644   1.751  -2.452  1.00  0.00    -0.043 A 
ATOM     20  C   UNL     1     -17.169   1.023  -0.669  1.00  0.00     0.083 A 
ATOM     21  C   UNL     1     -17.874   2.039  -1.314  1.00  0.00     0.028 A 
ATOM     22  C   UNL     1     -17.228  -0.284  -1.154  1.00  0.00     0.134 A 
ATOM     23  C   UNL     1     -17.986  -0.584  -2.279  1.00  0.00     0.048 A 
ATOM     24  C   UNL     1     -18.691   0.432  -2.929  1.00  0.00     0.008 A 
ATOM     25  Cl  UNL     1     -16.228   1.397   0.727  1.00  0.00    -0.080 Cl
BRANCH  22  26
ATOM     26  O   UNL     1     -16.546  -1.312  -0.561  1.00  0.00    -0.506 OA
ATOM     27  H   UNL     1     -16.102  -1.804  -1.276  1.00  0.00     0.293 HD
ENDBRANCH  22  26
ENDBRANCH  18  19
ENDBRANCH  17  18
BRANCH  17  28
ATOM     28  O   UNL     1     -18.627   5.128  -3.601  1.00  0.00    -0.383 OA
ATOM     29  H   UNL     1     -17.750   5.574  -3.649  1.00  0.00     0.211 HD
ENDBRANCH  17  28
ENDBRANCH  14  17
ENDBRANCH  12  13
BRANCH  12  30
ATOM     30  C   UNL     1     -18.056   1.026  -7.745  1.00  0.00     0.018 C 
ATOM     31  C   UNL     1     -19.433   1.184  -8.409  1.00  0.00     0.010 C 
BRANCH  30  32
ATOM     32  C   UNL     1     -18.163   0.097  -6.511  1.00  0.00     0.002 C 
ATOM     33  C   UNL     1     -16.894  -0.668  -6.160  1.00  0.00     0.004 C 
ENDBRANCH  30  32
ENDBRANCH  12  30
ENDBRANCH  10  12
ENDBRANCH   1  10
BRANCH   5  34
ATOM     34  C   UNL     1     -13.694   0.887  -9.619  1.00  0.00     0.242 C 
ATOM     35  O   UNL     1     -12.942   0.813 -10.591  1.00  0.00    -0.273 OA
ATOM     36  N   UNL     1     -13.247   0.738  -8.325  1.00  0.00    -0.354 N 
ATOM     37  H   UNL     1     -13.933   0.688  -7.571  1.00  0.00     0.163 HD
BRANCH  36  38
ATOM     38  C   UNL     1     -11.839   0.752  -7.987  1.00  0.00     0.116 C 
BRANCH  38  39
ATOM     39  C   UNL     1     -11.349   2.193  -7.866  1.00  0.00     0.023 C 
BRANCH  39  40
ATOM     40  C   UNL     1      -9.847   2.320  -8.094  1.00  0.00     0.026 C 
BRANCH  40  41
ATOM     41  C   UNL     1      -9.252   3.405  -7.197  1.00  0.00     0.146 C 
BRANCH  41  42
ATOM     42  N   UNL     1      -9.678   4.718  -7.663  1.00  0.00    -0.254 NA
ATOM     43  C   UNL     1      -9.018   5.306  -8.590  1.00  0.00     0.185 C 
ATOM     44  N   UNL     1      -7.924   4.903  -9.261  1.00  0.00    -0.370 N 
ATOM     45  N   UNL     1      -9.424   6.517  -9.003  1.00  0.00    -0.370 N 
ATOM     46  H   UNL     1      -7.371   5.562  -9.784  1.00  0.00     0.159 HD
ATOM     47  H   UNL     1      -7.491   4.002  -9.084  1.00  0.00     0.159 HD
ATOM     48  H   UNL     1     -10.249   6.891  -8.553  1.00  0.00     0.159 HD
ATOM     49  H   UNL     1      -9.116   6.930  -9.865  1.00  0.00     0.159 HD
ENDBRANCH  41  42
ENDBRANCH  40  41
ENDBRANCH  39  40
ENDBRANCH  38  39
ENDBRANCH  36  38
ENDBRANCH   5  34
BRANCH   8  50
ATOM     50  O   UNL     1     -13.475   5.019 -11.948  1.00  0.00    -0.245 OA
BRANCH  50  51
ATOM     51  S   UNL     1     -12.303   6.105 -11.647  1.00  0.00     0.397 S 
ATOM     52  O   UNL     1     -11.118   5.382 -11.244  1.00  0.00    -0.169 OA
ATOM     53  O   UNL     1     -12.838   7.190 -10.851  1.00  0.00    -0.169 OA
BRANCH  51  54
ATOM     54  O   UNL     1     -11.989   6.676 -13.117  1.00  0.00    -0.264 OA
ATOM     55  H   UNL     1     -12.720   7.277 -13.366  1.00  0.00     0.236 HD
ENDBRANCH  51  54
ENDBRANCH  50  51
ENDBRANCH   8  50
TORSDOF 19
ENDMDL
MODEL 4
REMARK VINA RESULT:    -6.730      4.193      8.414
REMARK INTER + INTRA:         -17.855
REMARK INTER:                 -13.391
REMARK INTRA:                  -4.464
REMARK UNBOUND:                -4.239
REMARK SMILES CC[C@@H](C)[C@@H](NC(=O)[C@@H](O)Cc1ccc(O)c(Cl)c1)C(=O)N1[C@H](C(=O)NCCCCN=C(N)N)C[C@H]2CC[C@H](OS(=O)(=O)O)C[C@@H]21
REMARK SMILES IDX 22 1 36 2 46 3 35 4 23 5 45 6 37 7 39 8 38 9 20 10 21 11
REMARK SMILES IDX 5 12 6 13 7 14 8 15 9 17 11 18 12 19 17 20 19 21 15 22 14 23
REMARK SMILES IDX 13 24 18 25 16 26 10 28 3 30 4 31 2 32 1 33 24 34 25 35
REMARK SMILES IDX 26 36 27 38 28 39 29 40 30 41 31 42 32 43 33 44 34 45 40 50
REMARK SMILES IDX 41 51 42 52 43 53 44 54
REMARK H PARENT 6 16 16 27 10 29 26 37 33 46 33 47 34 48 34 49 44 55
ROOT
ATOM      1  N   UNL     1     -17.862   4.482 -10.344  1.00  0.00    -0.326 N 
ATOM      2  C   UNL     1     -16.583   2.659 -11.106  1.00  0.00     0.014 C 
ATOM      3  C   UNL     1     -16.467   4.068 -10.516  1.00  0.00     0.091 C 
ATOM      4  C   UNL     1     -17.826   2.762 -11.977  1.00  0.00     0.041 C 
ATOM      5  C   UNL     1     -18.766   3.520 -11.021  1.00  0.00     0.175 C 
ATOM      6  C   UNL     1     -15.573   4.001  -9.279  1.00  0.00     0.059 C 
ATOM      7  C   UNL     1     -15.272   2.223 -11.731  1.00  0.00     0.008 C 
ATOM      8  C   UNL     1     -14.473   2.920  -9.365  1.00  0.00     0.143 C 
ATOM      9  C   UNL     1     -14.083   2.604 -10.823  1.00  0.00     0.034 C 
ENDROOT
BRANCH   1  10
ATOM     10  C   UNL     1     -18.381   5.673  -9.866  1.00  0.00     0.246 C 
ATOM     11  O   UNL     1     -19.450   5.657  -9.245  1.00  0.00    -0.272 OA
BRANCH  10  12
ATOM     12  C   UNL     1     -17.590   6.996 -10.081  1.00  0.00     0.174 C 
BRANCH  12  13
ATOM     13  N   UNL     1     -16.947   6.985 -11.394  1.00  0.00    -0.342 N 
ATOM     14  C   UNL     1     -17.124   7.941 -12.369  1.00  0.00     0.249 C 
ATOM     15  O   UNL     1     -17.827   8.935 -12.230  1.00  0.00    -0.272 OA
ATOM     16  H   UNL     1     -16.463   6.149 -11.711  1.00  0.00     0.164 HD
BRANCH  14  17
ATOM     17  C   UNL     1     -16.322   7.639 -13.653  1.00  0.00     0.207 C 
BRANCH  17  18
ATOM     18  C   UNL     1     -14.997   8.407 -13.650  1.00  0.00     0.077 C 
BRANCH  18  19
ATOM     19  C   UNL     1     -13.916   7.660 -12.900  1.00  0.00    -0.043 A 
ATOM     20  C   UNL     1     -11.948   7.673 -11.482  1.00  0.00     0.083 A 
ATOM     21  C   UNL     1     -12.973   8.361 -12.132  1.00  0.00     0.028 A 
ATOM     22  C   UNL     1     -11.857   6.285 -11.595  1.00  0.00     0.134 A 
ATOM     23  C   UNL     1     -12.784   5.579 -12.352  1.00  0.00     0.048 A 
ATOM     24  C   UNL     1     -13.811   6.265 -13.006  1.00  0.00     0.008 A 
ATOM     25  Cl  UNL     1     -10.799   8.552 -10.543  1.00  0.00    -0.080 Cl
BRANCH  22  26
ATOM     26  O   UNL     1     -10.864   5.569 -10.984  1.00  0.00    -0.506 OA
ATOM     27  H   UNL     1     -10.794   4.723 -11.464  1.00  0.00     0.293 HD
ENDBRANCH  22  26
ENDBRANCH  18  19
ENDBRANCH  17  18
BRANCH  17  28
ATOM     28  O   UNL     1     -17.073   7.989 -14.826  1.00  0.00    -0.383 OA
ATOM     29  H   UNL     1     -17.514   8.845 -14.622  1.00  0.00     0.211 HD
ENDBRANCH  17  28
ENDBRANCH  14  17
ENDBRANCH  12  13
BRANCH  12  30
ATOM     30  C   UNL     1     -16.587   7.289  -8.933  1.00  0.00     0.018 C 
ATOM     31  C   UNL     1     -17.164   8.321  -7.952  1.00  0.00     0.010 C 
BRANCH  30  32
ATOM     32  C   UNL     1     -15.193   7.746  -9.427  1.00  0.00     0.002 C 
ATOM     33  C   UNL     1     -14.015   7.269  -8.588  1.00  0.00     0.004 C 
ENDBRANCH  30  32
ENDBRANCH  12  30
ENDBRANCH  10  12
ENDBRANCH   1  10
BRANCH   5  34
ATOM     34  C   UNL     1     -19.424   2.565  -9.990  1.00  0.00     0.242 C 
ATOM     35  O   UNL     1     -19.021   1.417  -9.805  1.00  0.00    -0.273 OA
ATOM     36  N   UNL     1     -20.524   3.076  -9.338  1.00  0.00    -0.354 N 
ATOM     37  H   UNL     1     -20.883   3.989  -9.620  1.00  0.00     0.163 HD
BRANCH  36  38
ATOM     38  C   UNL     1     -21.126   2.412  -8.200  1.00  0.00     0.116 C 
BRANCH  38  39
ATOM     39  C   UNL     1     -21.256   3.392  -7.037  1.00  0.00     0.023 C 
BRANCH  39  40
ATOM     40  C   UNL     1     -20.944   2.745  -5.692  1.00  0.00     0.026 C 
BRANCH  40  41
ATOM     41  C   UNL     1     -19.435   2.666  -5.464  1.00  0.00     0.146 C 
BRANCH  41  42
ATOM     42  N   UNL     1     -19.036   1.277  -5.279  1.00  0.00    -0.254 NA
ATOM     43  C   UNL     1     -18.252   0.725  -6.127  1.00  0.00     0.185 C 
ATOM     44  N   UNL     1     -17.685   1.230  -7.238  1.00  0.00    -0.370 N 
ATOM     45  N   UNL     1     -17.900  -0.558  -5.941  1.00  0.00    -0.370 N 
ATOM     46  H   UNL     1     -17.293   0.621  -7.936  1.00  0.00     0.159 HD
ATOM     47  H   UNL     1     -17.834   2.193  -7.522  1.00  0.00     0.159 HD
ATOM     48  H   UNL     1     -18.277  -1.011  -5.120  1.00  0.00     0.159 HD
ATOM     49  H   UNL     1     -17.120  -0.982  -6.411  1.00  0.00     0.159 HD
ENDBRANCH  41  42
ENDBRANCH  40  41
ENDBRANCH  39  40
ENDBRANCH  38  39
ENDBRANCH  36  38
ENDBRANCH   5  34
BRANCH   8  50
ATOM     50  O   UNL     1     -14.922   1.715  -8.744  1.00  0.00    -0.245 OA
BRANCH  50  51
ATOM     51  S   UNL     1     -14.100   1.109  -7.478  1.00  0.00     0.397 S 
ATOM     52  O   UNL     1     -14.913   0.080  -6.869  1.00  0.00    -0.169 OA
ATOM     53  O   UNL     1     -13.538   2.193  -6.700  1.00  0.00    -0.169 OA
BRANCH  51  54
ATOM     54  O   UNL     1     -12.889   0.339  -8.203  1.00  0.00    -0.264 OA
ATOM     55  H   UNL     1     -13.266  -0.189  -8.935  1.00  0.00     0.236 HD
ENDBRANCH  51  54
ENDBRANCH  50  51
ENDBRANCH   8  50
TORSDOF 19
ENDMDL
MODEL 5
REMARK VINA RESULT:    -6.707      3.243      8.060
REMARK INTER + INTRA:         -17.807
REMARK INTER:                 -12.222
REMARK INTRA:                  -5.585
REMARK UNBOUND:                -4.239
REMARK SMILES CC[C@@H](C)[C@@H](NC(=O)[C@@H](O)Cc1ccc(O)c(Cl)c1)C(=O)N1[C@H](C(=O)NCCCCN=C(N)N)C[C@H]2CC[C@H](OS(=O)(=O)O)C[C@@H]21
REMARK SMILES IDX 22 1 36 2 46 3 35 4 23 5 45 6 37 7 39 8 38 9 20 10 21 11
REMARK SMILES IDX 5 12 6 13 7 14 8 15 9 17 11 18 12 19 17 20 19 21 15 22 14 23
REMARK SMILES IDX 13 24 18 25 16 26 10 28 3 30 4 31 2 32 1 33 24 34 25 35
REMARK SMILES IDX 26 36 27 38 28 39 29 40 30 41 31 42 32 43 33 44 34 45 40 50
REMARK SMILES IDX 41 51 42 52 43 53 44 54
REMARK H PARENT 6 16 16 27 10 29 26 37 33 46 33 47 34 48 34 49 44 55
ROOT
ATOM      1  N   UNL     1     -16.567   4.690 -11.581  1.00  0.00    -0.326 N 
ATOM      2  C   UNL     1     -17.768   2.913 -10.611  1.00  0.00     0.014 C 
ATOM      3  C   UNL     1     -16.644   3.226 -11.602  1.00  0.00     0.091 C 
ATOM      4  C   UNL     1     -18.726   4.078 -10.812  1.00  0.00     0.041 C 
ATOM      5  C   UNL     1     -17.727   5.249 -10.844  1.00  0.00     0.175 C 
ATOM      6  C   UNL     1     -15.405   2.430 -11.195  1.00  0.00     0.059 C 
ATOM      7  C   UNL     1     -18.273   1.495 -10.795  1.00  0.00     0.008 C 
ATOM      8  C   UNL     1     -15.729   1.073 -10.533  1.00  0.00     0.143 C 
ATOM      9  C   UNL     1     -17.094   0.518 -10.986  1.00  0.00     0.034 C 
ENDROOT
BRANCH   1  10
ATOM     10  C   UNL     1     -15.743   5.546 -12.293  1.00  0.00     0.246 C 
ATOM     11  O   UNL     1     -16.038   5.833 -13.458  1.00  0.00    -0.272 OA
BRANCH  10  12
ATOM     12  C   UNL     1     -14.492   6.160 -11.601  1.00  0.00     0.174 C 
BRANCH  12  13
ATOM     13  N   UNL     1     -14.130   5.363 -10.429  1.00  0.00    -0.342 N 
ATOM     14  C   UNL     1     -12.875   4.857 -10.175  1.00  0.00     0.249 C 
ATOM     15  O   UNL     1     -11.905   5.044 -10.898  1.00  0.00    -0.272 OA
ATOM     16  H   UNL     1     -14.860   4.996  -9.824  1.00  0.00     0.164 HD
BRANCH  14  17
ATOM     17  C   UNL     1     -12.815   4.042  -8.865  1.00  0.00     0.207 C 
BRANCH  17  18
ATOM     18  C   UNL     1     -11.963   2.783  -9.055  1.00  0.00     0.077 C 
BRANCH  18  19
ATOM     19  C   UNL     1     -10.702   2.827  -8.223  1.00  0.00    -0.043 A 
ATOM     20  C   UNL     1      -8.766   4.036  -7.402  1.00  0.00     0.083 A 
ATOM     21  C   UNL     1      -9.956   4.013  -8.130  1.00  0.00     0.028 A 
ATOM     22  C   UNL     1      -8.314   2.880  -6.765  1.00  0.00     0.134 A 
ATOM     23  C   UNL     1      -9.043   1.700  -6.849  1.00  0.00     0.048 A 
ATOM     24  C   UNL     1     -10.233   1.672  -7.579  1.00  0.00     0.008 A 
ATOM     25  Cl  UNL     1      -7.863   5.502  -7.299  1.00  0.00    -0.080 Cl
BRANCH  22  26
ATOM     26  O   UNL     1      -7.148   2.852  -6.048  1.00  0.00    -0.506 OA
ATOM     27  H   UNL     1      -7.185   3.600  -5.423  1.00  0.00     0.293 HD
ENDBRANCH  22  26
ENDBRANCH  18  19
ENDBRANCH  17  18
BRANCH  17  28
ATOM     28  O   UNL     1     -14.132   3.666  -8.430  1.00  0.00    -0.383 OA
ATOM     29  H   UNL     1     -14.025   3.308  -7.519  1.00  0.00     0.211 HD
ENDBRANCH  17  28
ENDBRANCH  14  17
ENDBRANCH  12  13
BRANCH  12  30
ATOM     30  C   UNL     1     -14.672   7.664 -11.262  1.00  0.00     0.018 C 
ATOM     31  C   UNL     1     -13.711   8.529 -12.092  1.00  0.00     0.010 C 
BRANCH  30  32
ATOM     32  C   UNL     1     -14.511   7.985  -9.756  1.00  0.00     0.002 C 
ATOM     33  C   UNL     1     -13.413   8.985  -9.417  1.00  0.00     0.004 C 
ENDBRANCH  30  32
ENDBRANCH  12  30
ENDBRANCH  10  12
ENDBRANCH   1  10
BRANCH   5  34
ATOM     34  C   UNL     1     -17.311   5.686  -9.414  1.00  0.00     0.242 C 
ATOM     35  O   UNL     1     -16.394   5.140  -8.800  1.00  0.00    -0.273 OA
ATOM     36  N   UNL     1     -18.076   6.689  -8.863  1.00  0.00    -0.354 N 
ATOM     37  H   UNL     1     -18.896   7.018  -9.373  1.00  0.00     0.163 HD
BRANCH  36  38
ATOM     38  C   UNL     1     -17.701   7.363  -7.637  1.00  0.00     0.116 C 
BRANCH  38  39
ATOM     39  C   UNL     1     -18.839   7.267  -6.624  1.00  0.00     0.023 C 
BRANCH  39  40
ATOM     40  C   UNL     1     -19.491   5.889  -6.607  1.00  0.00     0.026 C 
BRANCH  40  41
ATOM     41  C   UNL     1     -18.615   4.884  -5.858  1.00  0.00     0.146 C 
BRANCH  41  42
ATOM     42  N   UNL     1     -18.882   3.538  -6.347  1.00  0.00    -0.254 NA
ATOM     43  C   UNL     1     -17.909   2.797  -6.725  1.00  0.00     0.185 C 
ATOM     44  N   UNL     1     -16.588   3.051  -6.754  1.00  0.00    -0.370 N 
ATOM     45  N   UNL     1     -18.177   1.560  -7.176  1.00  0.00    -0.370 N 
ATOM     46  H   UNL     1     -15.967   2.477  -7.298  1.00  0.00     0.159 HD
ATOM     47  H   UNL     1     -16.209   3.937  -6.433  1.00  0.00     0.159 HD
ATOM     48  H   UNL     1     -19.149   1.285  -7.179  1.00  0.00     0.159 HD
ATOM     49  H   UNL     1     -17.473   0.849  -7.262  1.00  0.00     0.159 HD
ENDBRANCH  41  42
ENDBRANCH  40  41
ENDBRANCH  39  40
ENDBRANCH  38  39
ENDBRANCH  36  38
ENDBRANCH   5  34
BRANCH   8  50
ATOM     50  O   UNL     1     -15.746   1.213  -9.112  1.00  0.00    -0.245 OA
BRANCH  50  51
ATOM     51  S   UNL     1     -14.868   0.197  -8.194  1.00  0.00     0.397 S 
ATOM     52  O   UNL     1     -15.667  -0.981  -7.942  1.00  0.00    -0.169 OA
ATOM     53  O   UNL     1     -14.240   0.935  -7.117  1.00  0.00    -0.169 OA
BRANCH  51  54
ATOM     54  O   UNL     1     -13.715  -0.266  -9.215  1.00  0.00    -0.264 OA
ATOM     55  H   UNL     1     -13.257   0.539  -9.533  1.00  0.00     0.236 HD
ENDBRANCH  51  54
ENDBRANCH  50  51
ENDBRANCH   8  50
TORSDOF 19
ENDMDL
MODEL 6
REMARK VINA RESULT:    -6.683      3.726      6.824
REMARK INTER + INTRA:         -17.760
REMARK INTER:                 -13.031
REMARK INTRA:                  -4.729
REMARK UNBOUND:                -4.239
REMARK SMILES CC[C@@H](C)[C@@H](NC(=O)[C@@H](O)Cc1ccc(O)c(Cl)c1)C(=O)N1[C@H](C(=O)NCCCCN=C(N)N)C[C@H]2CC[C@H](OS(=O)(=O)O)C[C@@H]21
REMARK SMILES IDX 22 1 36 2 46 3 35 4 23 5 45 6 37 7 39 8 38 9 20 10 21 11
REMARK SMILES IDX 5 12 6 13 7 14 8 15 9 17 11 18 12 19 17 20 19 21 15 22 14 23
REMARK SMILES IDX 13 24 18 25 16 26 10 28 3 30 4 31 2 32 1 33 24 34 25 35
REMARK SMILES IDX 26 36 27 38 28 39 29 40 30 41 31 42 32 43 33 44 34 45 40 50
REMARK SMILES IDX 41 51 42 52 43 53 44 54
REMARK H PARENT 6 16 16 27 10 29 26 37 33 46 33 47 34 48 34 49 44 55
ROOT
ATOM      1  N   UNL     1     -15.587   1.580  -9.377  1.00  0.00    -0.326 N 
ATOM      2  C   UNL     1     -13.887   2.247  -7.893  1.00  0.00     0.014 C 
ATOM      3  C   UNL     1     -14.131   1.740  -9.317  1.00  0.00     0.091 C 
ATOM      4  C   UNL     1     -14.958   1.524  -7.091  1.00  0.00     0.041 C 
ATOM      5  C   UNL     1     -16.170   1.717  -8.020  1.00  0.00     0.175 C 
ATOM      6  C   UNL     1     -13.468   2.708 -10.295  1.00  0.00     0.059 C 
ATOM      7  C   UNL     1     -12.430   2.086  -7.503  1.00  0.00     0.008 C 
ATOM      8  C   UNL     1     -12.193   3.378  -9.737  1.00  0.00     0.143 C 
ATOM      9  C   UNL     1     -11.506   2.512  -8.663  1.00  0.00     0.034 C 
ENDROOT
BRANCH   1  10
ATOM     10  C   UNL     1     -16.388   1.131 -10.414  1.00  0.00     0.246 C 
ATOM     11  O   UNL     1     -16.471  -0.083 -10.627  1.00  0.00    -0.272 OA
BRANCH  10  12
ATOM     12  C   UNL     1     -17.198   2.158 -11.257  1.00  0.00     0.174 C 
BRANCH  12  13
ATOM     13  N   UNL     1     -16.578   3.479 -11.164  1.00  0.00    -0.342 N 
ATOM     14  C   UNL     1     -16.111   4.210 -12.233  1.00  0.00     0.249 C 
ATOM     15  O   UNL     1     -16.189   3.841 -13.398  1.00  0.00    -0.272 OA
ATOM     16  H   UNL     1     -16.304   3.844 -10.255  1.00  0.00     0.164 HD
BRANCH  14  17
ATOM     17  C   UNL     1     -15.494   5.560 -11.808  1.00  0.00     0.207 C 
BRANCH  17  18
ATOM     18  C   UNL     1     -14.336   5.936 -12.738  1.00  0.00     0.077 C 
BRANCH  18  19
ATOM     19  C   UNL     1     -14.598   7.237 -13.463  1.00  0.00    -0.043 A 
ATOM     20  C   UNL     1     -13.839   9.416 -14.212  1.00  0.00     0.083 A 
ATOM     21  C   UNL     1     -13.580   8.196 -13.586  1.00  0.00     0.028 A 
ATOM     22  C   UNL     1     -15.112   9.686 -14.716  1.00  0.00     0.134 A 
ATOM     23  C   UNL     1     -16.129   8.745 -14.601  1.00  0.00     0.048 A 
ATOM     24  C   UNL     1     -15.873   7.524 -13.973  1.00  0.00     0.008 A 
ATOM     25  Cl  UNL     1     -12.577  10.582 -14.353  1.00  0.00    -0.080 Cl
BRANCH  22  26
ATOM     26  O   UNL     1     -15.416  10.872 -15.328  1.00  0.00    -0.506 OA
ATOM     27  H   UNL     1     -14.927  11.567 -14.851  1.00  0.00     0.293 HD
ENDBRANCH  22  26
ENDBRANCH  18  19
ENDBRANCH  17  18
BRANCH  17  28
ATOM     28  O   UNL     1     -15.019   5.507 -10.453  1.00  0.00    -0.383 OA
ATOM     29  H   UNL     1     -15.569   4.830  -9.998  1.00  0.00     0.211 HD
ENDBRANCH  17  28
ENDBRANCH  14  17
ENDBRANCH  12  13
BRANCH  12  30
ATOM     30  C   UNL     1     -18.705   2.183 -10.886  1.00  0.00     0.018 C 
ATOM     31  C   UNL     1     -19.164   3.614 -10.560  1.00  0.00     0.010 C 
BRANCH  30  32
ATOM     32  C   UNL     1     -19.075   1.229  -9.725  1.00  0.00     0.002 C 
ATOM     33  C   UNL     1     -20.238   1.684  -8.852  1.00  0.00     0.004 C 
ENDBRANCH  30  32
ENDBRANCH  12  30
ENDBRANCH  10  12
ENDBRANCH   1  10
BRANCH   5  34
ATOM     34  C   UNL     1     -16.814   3.118  -7.837  1.00  0.00     0.242 C 
ATOM     35  O   UNL     1     -16.423   4.107  -8.456  1.00  0.00    -0.273 OA
ATOM     36  N   UNL     1     -17.816   3.183  -6.895  1.00  0.00    -0.354 N 
ATOM     37  H   UNL     1     -18.013   2.357  -6.329  1.00  0.00     0.163 HD
BRANCH  36  38
ATOM     38  C   UNL     1     -18.665   4.347  -6.749  1.00  0.00     0.116 C 
BRANCH  38  39
ATOM     39  C   UNL     1     -18.688   4.792  -5.288  1.00  0.00     0.023 C 
BRANCH  39  40
ATOM     40  C   UNL     1     -18.276   6.250  -5.117  1.00  0.00     0.026 C 
BRANCH  40  41
ATOM     41  C   UNL     1     -18.340   6.992  -6.452  1.00  0.00     0.146 C 
BRANCH  41  42
ATOM     42  N   UNL     1     -17.009   7.454  -6.824  1.00  0.00    -0.254 NA
ATOM     43  C   UNL     1     -16.630   7.376  -8.044  1.00  0.00     0.185 C 
ATOM     44  N   UNL     1     -17.284   6.914  -9.125  1.00  0.00    -0.370 N 
ATOM     45  N   UNL     1     -15.398   7.803  -8.365  1.00  0.00    -0.370 N 
ATOM     46  H   UNL     1     -16.784   6.686  -9.968  1.00  0.00     0.159 HD
ATOM     47  H   UNL     1     -18.235   6.564  -9.064  1.00  0.00     0.159 HD
ATOM     48  H   UNL     1     -14.841   8.176  -7.608  1.00  0.00     0.159 HD
ATOM     49  H   UNL     1     -15.118   7.996  -9.310  1.00  0.00     0.159 HD
ENDBRANCH  41  42
ENDBRANCH  40  41
ENDBRANCH  39  40
ENDBRANCH  38  39
ENDBRANCH  36  38
ENDBRANCH   5  34
BRANCH   8  50
ATOM     50  O   UNL     1     -12.517   4.644  -9.161  1.00  0.00    -0.245 OA
BRANCH  50  51
ATOM     51  S   UNL     1     -11.675   5.965  -9.598  1.00  0.00     0.397 S 
ATOM     52  O   UNL     1     -10.575   6.120  -8.672  1.00  0.00    -0.169 OA
ATOM     53  O   UNL     1     -12.588   7.052  -9.882  1.00  0.00    -0.169 OA
BRANCH  51  54
ATOM     54  O   UNL     1     -11.014   5.496 -10.987  1.00  0.00    -0.264 OA
ATOM     55  H   UNL     1     -11.003   6.269 -11.588  1.00  0.00     0.236 HD
ENDBRANCH  51  54
ENDBRANCH  50  51
ENDBRANCH   8  50
TORSDOF 19
ENDMDL
MODEL 7
REMARK VINA RESULT:    -6.664     13.257     17.868
REMARK INTER + INTRA:         -17.721
REMARK INTER:                 -13.087
REMARK INTRA:                  -4.634
REMARK UNBOUND:                -4.239
REMARK SMILES CC[C@@H](C)[C@@H](NC(=O)[C@@H](O)Cc1ccc(O)c(Cl)c1)C(=O)N1[C@H](C(=O)NCCCCN=C(N)N)C[C@H]2CC[C@H](OS(=O)(=O)O)C[C@@H]21
REMARK SMILES IDX 22 1 36 2 46 3 35 4 23 5 45 6 37 7 39 8 38 9 20 10 21 11
REMARK SMILES IDX 5 12 6 13 7 14 8 15 9 17 11 18 12 19 17 20 19 21 15 22 14 23
REMARK SMILES IDX 13 24 18 25 16 26 10 28 3 30 4 31 2 32 1 33 24 34 25 35
REMARK SMILES IDX 26 36 27 38 28 39 29 40 30 41 31 42 32 43 33 44 34 45 40 50
REMARK SMILES IDX 41 51 42 52 43 53 44 54
REMARK H PARENT 6 16 16 27 10 29 26 37 33 46 33 47 34 48 34 49 44 55
ROOT
ATOM      1  N   UNL     1      -5.026   3.780   4.097  1.00  0.00    -0.326 N 
ATOM      2  C   UNL     1      -6.613   2.575   5.350  1.00  0.00     0.014 C 
ATOM      3  C   UNL     1      -5.388   3.485   5.486  1.00  0.00     0.091 C 
ATOM      4  C   UNL     1      -6.302   1.780   4.091  1.00  0.00     0.041 C 
ATOM      5  C   UNL     1      -5.795   2.909   3.175  1.00  0.00     0.175 C 
ATOM      6  C   UNL     1      -5.752   4.651   6.403  1.00  0.00     0.059 C 
ATOM      7  C   UNL     1      -6.887   1.837   6.646  1.00  0.00     0.008 C 
ATOM      8  C   UNL     1      -6.782   4.285   7.494  1.00  0.00     0.143 C 
ATOM      9  C   UNL     1      -6.738   2.786   7.854  1.00  0.00     0.034 C 
ENDROOT
BRANCH   1  10
ATOM     10  C   UNL     1      -3.984   4.542   3.594  1.00  0.00     0.246 C 
ATOM     11  O   UNL     1      -4.233   5.641   3.088  1.00  0.00    -0.272 OA
BRANCH  10  12
ATOM     12  C   UNL     1      -2.523   4.019   3.716  1.00  0.00     0.174 C 
BRANCH  12  13
ATOM     13  N   UNL     1      -2.473   2.597   3.377  1.00  0.00    -0.342 N 
ATOM     14  C   UNL     1      -2.243   2.093   2.116  1.00  0.00     0.249 C 
ATOM     15  O   UNL     1      -2.026   2.790   1.132  1.00  0.00    -0.272 OA
ATOM     16  H   UNL     1      -2.787   1.906   4.053  1.00  0.00     0.164 HD
BRANCH  14  17
ATOM     17  C   UNL     1      -2.268   0.550   2.078  1.00  0.00     0.207 C 
BRANCH  17  18
ATOM     18  C   UNL     1      -0.850  -0.004   1.905  1.00  0.00     0.077 C 
BRANCH  18  19
ATOM     19  C   UNL     1       0.135   0.674   2.831  1.00  0.00    -0.043 A 
ATOM     20  C   UNL     1       0.912   1.171   5.074  1.00  0.00     0.083 A 
ATOM     21  C   UNL     1       0.032   0.505   4.220  1.00  0.00     0.028 A 
ATOM     22  C   UNL     1       1.896   2.008   4.548  1.00  0.00     0.134 A 
ATOM     23  C   UNL     1       2.010   2.183   3.174  1.00  0.00     0.048 A 
ATOM     24  C   UNL     1       1.130   1.520   2.316  1.00  0.00     0.008 A 
ATOM     25  Cl  UNL     1       0.769   0.952   6.779  1.00  0.00    -0.080 Cl
BRANCH  22  26
ATOM     26  O   UNL     1       2.775   2.690   5.346  1.00  0.00    -0.506 OA
ATOM     27  H   UNL     1       2.955   2.119   6.116  1.00  0.00     0.293 HD
ENDBRANCH  22  26
ENDBRANCH  18  19
ENDBRANCH  17  18
BRANCH  17  28
ATOM     28  O   UNL     1      -3.100   0.073   1.009  1.00  0.00    -0.383 OA
ATOM     29  H   UNL     1      -3.946  -0.207   1.427  1.00  0.00     0.211 HD
ENDBRANCH  17  28
ENDBRANCH  14  17
ENDBRANCH  12  13
BRANCH  12  30
ATOM     30  C   UNL     1      -1.892   4.320   5.102  1.00  0.00     0.018 C 
ATOM     31  C   UNL     1      -0.431   4.770   4.951  1.00  0.00     0.010 C 
BRANCH  30  32
ATOM     32  C   UNL     1      -1.984   3.137   6.097  1.00  0.00     0.002 C 
ATOM     33  C   UNL     1      -1.937   3.521   7.570  1.00  0.00     0.004 C 
ENDBRANCH  30  32
ENDBRANCH  12  30
ENDBRANCH  10  12
ENDBRANCH   1  10
BRANCH   5  34
ATOM     34  C   UNL     1      -6.970   3.693   2.530  1.00  0.00     0.242 C 
ATOM     35  O   UNL     1      -7.828   3.142   1.840  1.00  0.00    -0.273 OA
ATOM     36  N   UNL     1      -6.951   5.053   2.740  1.00  0.00    -0.354 N 
ATOM     37  H   UNL     1      -6.149   5.466   3.218  1.00  0.00     0.163 HD
BRANCH  36  38
ATOM     38  C   UNL     1      -8.073   5.904   2.399  1.00  0.00     0.116 C 
BRANCH  38  39
ATOM     39  C   UNL     1      -7.573   7.163   1.694  1.00  0.00     0.023 C 
BRANCH  39  40
ATOM     40  C   UNL     1      -7.490   6.990   0.182  1.00  0.00     0.026 C 
BRANCH  40  41
ATOM     41  C   UNL     1      -6.051   6.708  -0.253  1.00  0.00     0.146 C 
BRANCH  41  42
ATOM     42  N   UNL     1      -5.847   5.270  -0.376  1.00  0.00    -0.254 NA
ATOM     43  C   UNL     1      -4.679   4.779  -0.197  1.00  0.00     0.185 C 
ATOM     44  N   UNL     1      -3.520   5.392   0.107  1.00  0.00    -0.370 N 
ATOM     45  N   UNL     1      -4.510   3.452  -0.318  1.00  0.00    -0.370 N 
ATOM     46  H   UNL     1      -2.641   4.920  -0.023  1.00  0.00     0.159 HD
ATOM     47  H   UNL     1      -3.469   6.396   0.249  1.00  0.00     0.159 HD
ATOM     48  H   UNL     1      -5.338   2.914  -0.538  1.00  0.00     0.159 HD
ATOM     49  H   UNL     1      -3.701   2.972   0.032  1.00  0.00     0.159 HD
ENDBRANCH  41  42
ENDBRANCH  40  41
ENDBRANCH  39  40
ENDBRANCH  38  39
ENDBRANCH  36  38
ENDBRANCH   5  34
BRANCH   8  50
ATOM     50  O   UNL     1      -8.101   4.606   7.050  1.00  0.00    -0.245 OA
BRANCH  50  51
ATOM     51  S   UNL     1      -9.176   5.221   8.104  1.00  0.00     0.397 S 
ATOM     52  O   UNL     1      -8.490   6.196   8.923  1.00  0.00    -0.169 OA
ATOM     53  O   UNL     1      -9.952   4.148   8.690  1.00  0.00    -0.169 OA
BRANCH  51  54
ATOM     54  O   UNL     1     -10.146   6.066   7.139  1.00  0.00    -0.264 OA
ATOM     55  H   UNL     1     -10.221   6.970   7.508  1.00  0.00     0.236 HD
ENDBRANCH  51  54
ENDBRANCH  50  51
ENDBRANCH   8  50
TORSDOF 19
ENDMDL
MODEL 8
REMARK VINA RESULT:    -6.664      3.483      8.329
REMARK INTER + INTRA:         -17.721
REMARK INTER:                 -13.408
REMARK INTRA:                  -4.313
REMARK UNBOUND:                -4.239
REMARK SMILES CC[C@@H](C)[C@@H](NC(=O)[C@@H](O)Cc1ccc(O)c(Cl)c1)C(=O)N1[C@H](C(=O)NCCCCN=C(N)N)C[C@H]2CC[C@H](OS(=O)(=O)O)C[C@@H]21
REMARK SMILES IDX 22 1 36 2 46 3 35 4 23 5 45 6 37 7 39 8 38 9 20 10 21 11
REMARK SMILES IDX 5 12 6 13 7 14 8 15 9 17 11 18 12 19 17 20 19 21 15 22 14 23
REMARK SMILES IDX 13 24 18 25 16 26 10 28 3 30 4 31 2 32 1 33 24 34 25 35
REMARK SMILES IDX 26 36 27 38 28 39 29 40 30 41 31 42 32 43 33 44 34 45 40 50
REMARK SMILES IDX 41 51 42 52 43 53 44 54
REMARK H PARENT 6 16 16 27 10 29 26 37 33 46 33 47 34 48 34 49 44 55
ROOT
ATOM      1  N   UNL     1     -17.617   4.833 -10.631  1.00  0.00    -0.326 N 
ATOM      2  C   UNL     1     -18.030   2.516 -10.641  1.00  0.00     0.014 C 
ATOM      3  C   UNL     1     -17.009   3.574 -11.069  1.00  0.00     0.091 C 
ATOM      4  C   UNL     1     -19.357   3.233 -10.833  1.00  0.00     0.041 C 
ATOM      5  C   UNL     1     -19.021   4.600 -10.209  1.00  0.00     0.175 C 
ATOM      6  C   UNL     1     -15.646   3.190 -10.495  1.00  0.00     0.059 C 
ATOM      7  C   UNL     1     -17.783   1.203 -11.358  1.00  0.00     0.008 C 
ATOM      8  C   UNL     1     -15.431   1.666 -10.372  1.00  0.00     0.143 C 
ATOM      9  C   UNL     1     -16.275   0.877 -11.393  1.00  0.00     0.034 C 
ENDROOT
BRANCH   1  10
ATOM     10  C   UNL     1     -17.160   6.133 -10.764  1.00  0.00     0.246 C 
ATOM     11  O   UNL     1     -17.322   6.926  -9.830  1.00  0.00    -0.272 OA
BRANCH  10  12
ATOM     12  C   UNL     1     -16.417   6.556 -12.064  1.00  0.00     0.174 C 
BRANCH  12  13
ATOM     13  N   UNL     1     -14.971   6.460 -11.866  1.00  0.00    -0.342 N 
ATOM     14  C   UNL     1     -14.130   5.629 -12.572  1.00  0.00     0.249 C 
ATOM     15  O   UNL     1     -14.501   4.890 -13.475  1.00  0.00    -0.272 OA
ATOM     16  H   UNL     1     -14.544   6.894 -11.051  1.00  0.00     0.164 HD
BRANCH  14  17
ATOM     17  C   UNL     1     -12.659   5.745 -12.117  1.00  0.00     0.207 C 
BRANCH  17  18
ATOM     18  C   UNL     1     -12.581   6.318 -10.699  1.00  0.00     0.077 C 
BRANCH  18  19
ATOM     19  C   UNL     1     -12.319   5.241  -9.671  1.00  0.00    -0.043 A 
ATOM     20  C   UNL     1     -11.587   4.583  -7.454  1.00  0.00     0.083 A 
ATOM     21  C   UNL     1     -11.875   5.582  -8.384  1.00  0.00     0.028 A 
ATOM     22  C   UNL     1     -11.738   3.240  -7.802  1.00  0.00     0.134 A 
ATOM     23  C   UNL     1     -12.177   2.888  -9.073  1.00  0.00     0.048 A 
ATOM     24  C   UNL     1     -12.464   3.886 -10.007  1.00  0.00     0.008 A 
ATOM     25  Cl  UNL     1     -11.043   5.023  -5.877  1.00  0.00    -0.080 Cl
BRANCH  22  26
ATOM     26  O   UNL     1     -11.458   2.225  -6.927  1.00  0.00    -0.506 OA
ATOM     27  H   UNL     1     -11.566   2.591  -6.030  1.00  0.00     0.293 HD
ENDBRANCH  22  26
ENDBRANCH  18  19
ENDBRANCH  17  18
BRANCH  17  28
ATOM     28  O   UNL     1     -11.905   6.580 -13.011  1.00  0.00    -0.383 OA
ATOM     29  H   UNL     1     -10.959   6.435 -12.785  1.00  0.00     0.211 HD
ENDBRANCH  17  28
ENDBRANCH  14  17
ENDBRANCH  12  13
BRANCH  12  30
ATOM     30  C   UNL     1     -16.853   7.954 -12.577  1.00  0.00     0.018 C 
ATOM     31  C   UNL     1     -16.796   8.016 -14.112  1.00  0.00     0.010 C 
BRANCH  30  32
ATOM     32  C   UNL     1     -16.038   9.122 -11.968  1.00  0.00     0.002 C 
ATOM     33  C   UNL     1     -15.479  10.120 -12.973  1.00  0.00     0.004 C 
ENDBRANCH  30  32
ENDBRANCH  12  30
ENDBRANCH  10  12
ENDBRANCH   1  10
BRANCH   5  34
ATOM     34  C   UNL     1     -19.132   4.565  -8.662  1.00  0.00     0.242 C 
ATOM     35  O   UNL     1     -18.149   4.672  -7.929  1.00  0.00    -0.273 OA
ATOM     36  N   UNL     1     -20.400   4.352  -8.170  1.00  0.00    -0.354 N 
ATOM     37  H   UNL     1     -21.155   4.151  -8.828  1.00  0.00     0.163 HD
BRANCH  36  38
ATOM     38  C   UNL     1     -20.721   4.503  -6.766  1.00  0.00     0.116 C 
BRANCH  38  39
ATOM     39  C   UNL     1     -21.261   3.187  -6.213  1.00  0.00     0.023 C 
BRANCH  39  40
ATOM     40  C   UNL     1     -20.560   2.765  -4.926  1.00  0.00     0.026 C 
BRANCH  40  41
ATOM     41  C   UNL     1     -19.051   2.651  -5.142  1.00  0.00     0.146 C 
BRANCH  41  42
ATOM     42  N   UNL     1     -18.635   1.263  -4.990  1.00  0.00    -0.254 NA
ATOM     43  C   UNL     1     -18.311   0.582  -6.024  1.00  0.00     0.185 C 
ATOM     44  N   UNL     1     -18.280   0.939  -7.321  1.00  0.00    -0.370 N 
ATOM     45  N   UNL     1     -17.934  -0.697  -5.863  1.00  0.00    -0.370 N 
ATOM     46  H   UNL     1     -18.244   0.242  -8.044  1.00  0.00     0.159 HD
ATOM     47  H   UNL     1     -18.523   1.879  -7.621  1.00  0.00     0.159 HD
ATOM     48  H   UNL     1     -17.921  -1.044  -4.913  1.00  0.00     0.159 HD
ATOM     49  H   UNL     1     -17.447  -1.215  -6.573  1.00  0.00     0.159 HD
ENDBRANCH  41  42
ENDBRANCH  40  41
ENDBRANCH  39  40
ENDBRANCH  38  39
ENDBRANCH  36  38
ENDBRANCH   5  34
BRANCH   8  50
ATOM     50  O   UNL     1     -15.780   1.226  -9.059  1.00  0.00    -0.245 OA
BRANCH  50  51
ATOM     51  S   UNL     1     -14.877   0.088  -8.327  1.00  0.00     0.397 S 
ATOM     52  O   UNL     1     -13.741  -0.194  -9.175  1.00  0.00    -0.169 OA
ATOM     53  O   UNL     1     -15.735  -0.968  -7.831  1.00  0.00    -0.169 OA
BRANCH  51  54
ATOM     54  O   UNL     1     -14.292   0.887  -7.061  1.00  0.00    -0.264 OA
ATOM     55  H   UNL     1     -14.289   1.840  -7.284  1.00  0.00     0.236 HD
ENDBRANCH  51  54
ENDBRANCH  50  51
ENDBRANCH   8  50
TORSDOF 19
ENDMDL
MODEL 9
REMARK VINA RESULT:    -6.598      3.678      8.324
REMARK INTER + INTRA:         -17.588
REMARK INTER:                 -12.658
REMARK INTRA:                  -4.929
REMARK UNBOUND:                -4.239
REMARK SMILES CC[C@@H](C)[C@@H](NC(=O)[C@@H](O)Cc1ccc(O)c(Cl)c1)C(=O)N1[C@H](C(=O)NCCCCN=C(N)N)C[C@H]2CC[C@H](OS(=O)(=O)O)C[C@@H]21
REMARK SMILES IDX 22 1 36 2 46 3 35 4 23 5 45 6 37 7 39 8 38 9 20 10 21 11
REMARK SMILES IDX 5 12 6 13 7 14 8 15 9 17 11 18 12 19 17 20 19 21 15 22 14 23
REMARK SMILES IDX 13 24 18 25 16 26 10 28 3 30 4 31 2 32 1 33 24 34 25 35
REMARK SMILES IDX 26 36 27 38 28 39 29 40 30 41 31 42 32 43 33 44 34 45 40 50
REMARK SMILES IDX 41 51 42 52 43 53 44 54
REMARK H PARENT 6 16 16 27 10 29 26 37 33 46 33 47 34 48 34 49 44 55
ROOT
ATOM      1  N   UNL     1     -16.135   5.435 -11.534  1.00  0.00    -0.326 N 
ATOM      2  C   UNL     1     -13.943   5.190 -12.358  1.00  0.00     0.014 C 
ATOM      3  C   UNL     1     -14.786   5.979 -11.352  1.00  0.00     0.091 C 
ATOM      4  C   UNL     1     -14.909   4.982 -13.514  1.00  0.00     0.041 C 
ATOM      5  C   UNL     1     -16.175   4.572 -12.741  1.00  0.00     0.175 C 
ATOM      6  C   UNL     1     -14.135   5.856  -9.975  1.00  0.00     0.059 C 
ATOM      7  C   UNL     1     -12.616   5.879 -12.612  1.00  0.00     0.008 C 
ATOM      8  C   UNL     1     -12.597   5.729 -10.024  1.00  0.00     0.143 C 
ATOM      9  C   UNL     1     -12.002   6.381 -11.288  1.00  0.00     0.034 C 
ENDROOT
BRANCH   1  10
ATOM     10  C   UNL     1     -17.322   5.775 -10.908  1.00  0.00     0.246 C 
ATOM     11  O   UNL     1     -17.983   4.892 -10.351  1.00  0.00    -0.272 OA
BRANCH  10  12
ATOM     12  C   UNL     1     -17.775   7.264 -10.882  1.00  0.00     0.174 C 
BRANCH  12  13
ATOM     13  N   UNL     1     -17.385   7.926 -12.127  1.00  0.00    -0.342 N 
ATOM     14  C   UNL     1     -18.186   8.780 -12.852  1.00  0.00     0.249 C 
ATOM     15  O   UNL     1     -19.318   9.105 -12.515  1.00  0.00    -0.272 OA
ATOM     16  H   UNL     1     -16.540   7.633 -12.610  1.00  0.00     0.164 HD
BRANCH  14  17
ATOM     17  C   UNL     1     -17.495   9.303 -14.129  1.00  0.00     0.207 C 
BRANCH  17  18
ATOM     18  C   UNL     1     -16.321   8.397 -14.513  1.00  0.00     0.077 C 
BRANCH  18  19
ATOM     19  C   UNL     1     -15.011   9.151 -14.528  1.00  0.00    -0.043 A 
ATOM     20  C   UNL     1     -12.989   9.875 -13.400  1.00  0.00     0.083 A 
ATOM     21  C   UNL     1     -14.174   9.138 -13.401  1.00  0.00     0.028 A 
ATOM     22  C   UNL     1     -12.634  10.628 -14.520  1.00  0.00     0.134 A 
ATOM     23  C   UNL     1     -13.454  10.649 -15.643  1.00  0.00     0.048 A 
ATOM     24  C   UNL     1     -14.641   9.914 -15.646  1.00  0.00     0.008 A 
ATOM     25  Cl  UNL     1     -11.973   9.848 -12.007  1.00  0.00    -0.080 Cl
BRANCH  22  26
ATOM     26  O   UNL     1     -11.488  11.375 -14.562  1.00  0.00    -0.506 OA
ATOM     27  H   UNL     1     -10.958  11.119 -13.785  1.00  0.00     0.293 HD
ENDBRANCH  22  26
ENDBRANCH  18  19
ENDBRANCH  17  18
BRANCH  17  28
ATOM     28  O   UNL     1     -17.020  10.647 -13.947  1.00  0.00    -0.383 OA
ATOM     29  H   UNL     1     -16.473  10.851 -14.739  1.00  0.00     0.211 HD
ENDBRANCH  17  28
ENDBRANCH  14  17
ENDBRANCH  12  13
BRANCH  12  30
ATOM     30  C   UNL     1     -17.271   8.022  -9.625  1.00  0.00     0.018 C 
ATOM     31  C   UNL     1     -18.447   8.633  -8.847  1.00  0.00     0.010 C 
BRANCH  30  32
ATOM     32  C   UNL     1     -16.217   9.112  -9.938  1.00  0.00     0.002 C 
ATOM     33  C   UNL     1     -15.048   9.186  -8.964  1.00  0.00     0.004 C 
ENDBRANCH  30  32
ENDBRANCH  12  30
ENDBRANCH  10  12
ENDBRANCH   1  10
BRANCH   5  34
ATOM     34  C   UNL     1     -16.143   3.071 -12.346  1.00  0.00     0.242 C 
ATOM     35  O   UNL     1     -15.095   2.427 -12.293  1.00  0.00    -0.273 OA
ATOM     36  N   UNL     1     -17.374   2.501 -12.112  1.00  0.00    -0.354 N 
ATOM     37  H   UNL     1     -18.214   3.054 -12.288  1.00  0.00     0.163 HD
BRANCH  36  38
ATOM     38  C   UNL     1     -17.517   1.183 -11.529  1.00  0.00     0.116 C 
BRANCH  38  39
ATOM     39  C   UNL     1     -17.870   1.306 -10.049  1.00  0.00     0.023 C 
BRANCH  39  40
ATOM     40  C   UNL     1     -16.713   0.910  -9.138  1.00  0.00     0.026 C 
BRANCH  40  41
ATOM     41  C   UNL     1     -15.782  -0.077  -9.843  1.00  0.00     0.146 C 
BRANCH  41  42
ATOM     42  N   UNL     1     -14.572  -0.264  -9.053  1.00  0.00    -0.254 NA
ATOM     43  C   UNL     1     -13.506   0.371  -9.369  1.00  0.00     0.185 C 
ATOM     44  N   UNL     1     -13.282   1.244 -10.368  1.00  0.00    -0.370 N 
ATOM     45  N   UNL     1     -12.400   0.182  -8.630  1.00  0.00    -0.370 N 
ATOM     46  H   UNL     1     -12.344   1.476 -10.645  1.00  0.00     0.159 HD
ATOM     47  H   UNL     1     -14.017   1.512 -11.016  1.00  0.00     0.159 HD
ATOM     48  H   UNL     1     -12.486  -0.455  -7.850  1.00  0.00     0.159 HD
ATOM     49  H   UNL     1     -11.613   0.805  -8.661  1.00  0.00     0.159 HD
ENDBRANCH  41  42
ENDBRANCH  40  41
ENDBRANCH  39  40
ENDBRANCH  38  39
ENDBRANCH  36  38
ENDBRANCH   5  34
BRANCH   8  50
ATOM     50  O   UNL     1     -12.218   4.353 -10.002  1.00  0.00    -0.245 OA
BRANCH  50  51
ATOM     51  S   UNL     1     -11.532   3.730  -8.665  1.00  0.00     0.397 S 
ATOM     52  O   UNL     1     -10.993   4.824  -7.889  1.00  0.00    -0.169 OA
ATOM     53  O   UNL     1     -10.724   2.583  -9.022  1.00  0.00    -0.169 OA
BRANCH  51  54
ATOM     54  O   UNL     1     -12.811   3.201  -7.847  1.00  0.00    -0.264 OA
ATOM     55  H   UNL     1     -13.422   2.782  -8.487  1.00  0.00     0.236 HD
ENDBRANCH  51  54
ENDBRANCH  50  51
ENDBRANCH   8  50
TORSDOF 19
ENDMDL
MODEL 10
REMARK VINA RESULT:    -6.590     12.628     17.150
REMARK INTER + INTRA:         -17.571
REMARK INTER:                 -15.183
REMARK INTRA:                  -2.388
REMARK UNBOUND:                -4.239
REMARK SMILES CC[C@@H](C)[C@@H](NC(=O)[C@@H](O)Cc1ccc(O)c(Cl)c1)C(=O)N1[C@H](C(=O)NCCCCN=C(N)N)C[C@H]2CC[C@H](OS(=O)(=O)O)C[C@@H]21
REMARK SMILES IDX 22 1 36 2 46 3 35 4 23 5 45 6 37 7 39 8 38 9 20 10 21 11
REMARK SMILES IDX 5 12 6 13 7 14 8 15 9 17 11 18 12 19 17 20 19 21 15 22 14 23
REMARK SMILES IDX 13 24 18 25 16 26 10 28 3 30 4 31 2 32 1 33 24 34 25 35
REMARK SMILES IDX 26 36 27 38 28 39 29 40 30 41 31 42 32 43 33 44 34 45 40 50
REMARK SMILES IDX 41 51 42 52 43 53 44 54
REMARK H PARENT 6 16 16 27 10 29 26 37 33 46 33 47 34 48 34 49 44 55
ROOT
ATOM      1  N   UNL     1      -4.827   4.252   1.539  1.00  0.00    -0.326 N 
ATOM      2  C   UNL     1      -7.082   4.485   0.906  1.00  0.00     0.014 C 
ATOM      3  C   UNL     1      -6.144   4.534   2.116  1.00  0.00     0.091 C 
ATOM      4  C   UNL     1      -6.458   3.400   0.042  1.00  0.00     0.041 C 
ATOM      5  C   UNL     1      -4.974   3.800   0.133  1.00  0.00     0.175 C 
ATOM      6  C   UNL     1      -6.351   5.866   2.834  1.00  0.00     0.059 C 
ATOM      7  C   UNL     1      -8.527   4.346   1.346  1.00  0.00     0.008 C 
ATOM      8  C   UNL     1      -7.793   6.408   2.736  1.00  0.00     0.143 C 
ATOM      9  C   UNL     1      -8.824   5.278   2.539  1.00  0.00     0.034 C 
ENDROOT
BRANCH   1  10
ATOM     10  C   UNL     1      -3.592   4.147   2.155  1.00  0.00     0.246 C 
ATOM     11  O   UNL     1      -2.801   5.094   2.083  1.00  0.00    -0.272 OA
BRANCH  10  12
ATOM     12  C   UNL     1      -3.243   2.861   2.960  1.00  0.00     0.174 C 
BRANCH  12  13
ATOM     13  N   UNL     1      -2.818   3.220   4.313  1.00  0.00    -0.342 N 
ATOM     14  C   UNL     1      -3.523   2.942   5.462  1.00  0.00     0.249 C 
ATOM     15  O   UNL     1      -4.585   2.332   5.481  1.00  0.00    -0.272 OA
ATOM     16  H   UNL     1      -2.040   3.862   4.443  1.00  0.00     0.164 HD
BRANCH  14  17
ATOM     17  C   UNL     1      -2.820   3.466   6.733  1.00  0.00     0.207 C 
BRANCH  17  18
ATOM     18  C   UNL     1      -1.451   2.798   6.901  1.00  0.00     0.077 C 
BRANCH  18  19
ATOM     19  C   UNL     1      -0.324   3.714   6.479  1.00  0.00    -0.043 A 
ATOM     20  C   UNL     1       1.789   4.060   5.339  1.00  0.00     0.083 A 
ATOM     21  C   UNL     1       0.726   3.226   5.686  1.00  0.00     0.028 A 
ATOM     22  C   UNL     1       1.812   5.383   5.782  1.00  0.00     0.134 A 
ATOM     23  C   UNL     1       0.778   5.880   6.568  1.00  0.00     0.048 A 
ATOM     24  C   UNL     1      -0.286   5.046   6.918  1.00  0.00     0.008 A 
ATOM     25  Cl  UNL     1       3.071   3.442   4.364  1.00  0.00    -0.080 Cl
BRANCH  22  26
ATOM     26  O   UNL     1       2.838   6.236   5.477  1.00  0.00    -0.506 OA
ATOM     27  H   UNL     1       3.627   5.902   5.942  1.00  0.00     0.293 HD
ENDBRANCH  22  26
ENDBRANCH  18  19
ENDBRANCH  17  18
BRANCH  17  28
ATOM     28  O   UNL     1      -3.616   3.220   7.903  1.00  0.00    -0.383 OA
ATOM     29  H   UNL     1      -3.179   2.478   8.379  1.00  0.00     0.211 HD
ENDBRANCH  17  28
ENDBRANCH  14  17
ENDBRANCH  12  13
BRANCH  12  30
ATOM     30  C   UNL     1      -2.209   1.961   2.233  1.00  0.00     0.018 C 
ATOM     31  C   UNL     1      -2.259   0.524   2.776  1.00  0.00     0.010 C 
BRANCH  30  32
ATOM     32  C   UNL     1      -0.760   2.502   2.296  1.00  0.00     0.002 C 
ATOM     33  C   UNL     1       0.306   1.473   2.649  1.00  0.00     0.004 C 
ENDBRANCH  30  32
ENDBRANCH  12  30
ENDBRANCH  10  12
ENDBRANCH   1  10
BRANCH   5  34
ATOM     34  C   UNL     1      -4.629   4.947  -0.853  1.00  0.00     0.242 C 
ATOM     35  O   UNL     1      -4.119   4.737  -1.954  1.00  0.00    -0.273 OA
ATOM     36  N   UNL     1      -4.884   6.217  -0.387  1.00  0.00    -0.354 N 
ATOM     37  H   UNL     1      -5.195   6.333   0.579  1.00  0.00     0.163 HD
BRANCH  36  38
ATOM     38  C   UNL     1      -4.826   7.382  -1.245  1.00  0.00     0.116 C 
BRANCH  38  39
ATOM     39  C   UNL     1      -6.158   8.127  -1.198  1.00  0.00     0.023 C 
BRANCH  39  40
ATOM     40  C   UNL     1      -6.131   9.421  -2.005  1.00  0.00     0.026 C 
BRANCH  40  41
ATOM     41  C   UNL     1      -5.719  10.601  -1.124  1.00  0.00     0.146 C 
BRANCH  41  42
ATOM     42  N   UNL     1      -5.107  11.638  -1.944  1.00  0.00    -0.254 NA
ATOM     43  C   UNL     1      -4.161  12.352  -1.460  1.00  0.00     0.185 C 
ATOM     44  N   UNL     1      -3.586  12.317  -0.244  1.00  0.00    -0.370 N 
ATOM     45  N   UNL     1      -3.613  13.306  -2.231  1.00  0.00    -0.370 N 
ATOM     46  H   UNL     1      -3.030  13.089   0.082  1.00  0.00     0.159 HD
ATOM     47  H   UNL     1      -3.871  11.645   0.461  1.00  0.00     0.159 HD
ATOM     48  H   UNL     1      -3.983  13.393  -3.167  1.00  0.00     0.159 HD
ATOM     49  H   UNL     1      -2.731  13.736  -2.018  1.00  0.00     0.159 HD
ENDBRANCH  41  42
ENDBRANCH  40  41
ENDBRANCH  39  40
ENDBRANCH  38  39
ENDBRANCH  36  38
ENDBRANCH   5  34
BRANCH   8  50
ATOM     50  O   UNL     1      -7.902   7.317   1.639  1.00  0.00    -0.245 OA
BRANCH  50  51
ATOM     51  S   UNL     1      -8.721   8.709   1.829  1.00  0.00     0.397 S 
ATOM     52  O   UNL     1      -9.129   8.802   3.213  1.00  0.00    -0.169 OA
ATOM     53  O   UNL     1      -9.668   8.867   0.745  1.00  0.00    -0.169 OA
BRANCH  51  54
ATOM     54  O   UNL     1      -7.563   9.808   1.639  1.00  0.00    -0.264 OA
ATOM     55  H   UNL     1      -7.198  10.014   2.524  1.00  0.00     0.236 HD
ENDBRANCH  51  54
ENDBRANCH  50  51
ENDBRANCH   8  50
TORSDOF 19
ENDMDL
MODEL 11
REMARK VINA RESULT:    -6.567      4.392      8.787
REMARK INTER + INTRA:         -17.524
REMARK INTER:                 -13.405
REMARK INTRA:                  -4.119
REMARK UNBOUND:                -4.239
REMARK SMILES CC[C@@H](C)[C@@H](NC(=O)[C@@H](O)Cc1ccc(O)c(Cl)c1)C(=O)N1[C@H](C(=O)NCCCCN=C(N)N)C[C@H]2CC[C@H](OS(=O)(=O)O)C[C@@H]21
REMARK SMILES IDX 22 1 36 2 46 3 35 4 23 5 45 6 37 7 39 8 38 9 20 10 21 11
REMARK SMILES IDX 5 12 6 13 7 14 8 15 9 17 11 18 12 19 17 20 19 21 15 22 14 23
REMARK SMILES IDX 13 24 18 25 16 26 10 28 3 30 4 31 2 32 1 33 24 34 25 35
REMARK SMILES IDX 26 36 27 38 28 39 29 40 30 41 31 42 32 43 33 44 34 45 40 50
REMARK SMILES IDX 41 51 42 52 43 53 44 54
REMARK H PARENT 6 16 16 27 10 29 26 37 33 46 33 47 34 48 34 49 44 55
ROOT
ATOM      1  N   UNL     1     -17.627   3.027  -9.359  1.00  0.00    -0.326 N 
ATOM      2  C   UNL     1     -18.786   1.587  -7.901  1.00  0.00     0.014 C 
ATOM      3  C   UNL     1     -17.431   2.266  -8.121  1.00  0.00     0.091 C 
ATOM      4  C   UNL     1     -19.250   1.297  -9.320  1.00  0.00     0.041 C 
ATOM      5  C   UNL     1     -18.909   2.637  -9.997  1.00  0.00     0.175 C 
ATOM      6  C   UNL     1     -17.062   3.031  -6.852  1.00  0.00     0.059 C 
ATOM      7  C   UNL     1     -18.665   0.445  -6.910  1.00  0.00     0.008 C 
ATOM      8  C   UNL     1     -17.591   2.378  -5.557  1.00  0.00     0.143 C 
ATOM      9  C   UNL     1     -17.782   0.856  -5.712  1.00  0.00     0.034 C 
ENDROOT
BRANCH   1  10
ATOM     10  C   UNL     1     -16.739   3.825 -10.060  1.00  0.00     0.246 C 
ATOM     11  O   UNL     1     -17.021   5.012 -10.253  1.00  0.00    -0.272 OA
BRANCH  10  12
ATOM     12  C   UNL     1     -15.391   3.223 -10.553  1.00  0.00     0.174 C 
BRANCH  12  13
ATOM     13  N   UNL     1     -14.489   4.296 -10.970  1.00  0.00    -0.342 N 
ATOM     14  C   UNL     1     -13.126   4.302 -10.777  1.00  0.00     0.249 C 
ATOM     15  O   UNL     1     -12.507   3.385 -10.251  1.00  0.00    -0.272 OA
ATOM     16  H   UNL     1     -14.873   5.187 -11.276  1.00  0.00     0.164 HD
BRANCH  14  17
ATOM     17  C   UNL     1     -12.454   5.584 -11.313  1.00  0.00     0.207 C 
BRANCH  17  18
ATOM     18  C   UNL     1     -12.629   5.685 -12.832  1.00  0.00     0.077 C 
BRANCH  18  19
ATOM     19  C   UNL     1     -13.604   6.776 -13.214  1.00  0.00    -0.043 A 
ATOM     20  C   UNL     1     -14.134   9.130 -13.464  1.00  0.00     0.083 A 
ATOM     21  C   UNL     1     -13.217   8.124 -13.158  1.00  0.00     0.028 A 
ATOM     22  C   UNL     1     -15.440   8.798 -13.825  1.00  0.00     0.134 A 
ATOM     23  C   UNL     1     -15.837   7.467 -13.885  1.00  0.00     0.048 A 
ATOM     24  C   UNL     1     -14.922   6.458 -13.578  1.00  0.00     0.008 A 
ATOM     25  Cl  UNL     1     -13.640  10.780 -13.388  1.00  0.00    -0.080 Cl
BRANCH  22  26
ATOM     26  O   UNL     1     -16.378   9.749 -14.123  1.00  0.00    -0.506 OA
ATOM     27  H   UNL     1     -16.375  10.386 -13.385  1.00  0.00     0.293 HD
ENDBRANCH  22  26
ENDBRANCH  18  19
ENDBRANCH  17  18
BRANCH  17  28
ATOM     28  O   UNL     1     -11.054   5.608 -10.992  1.00  0.00    -0.383 OA
ATOM     29  H   UNL     1     -10.796   4.672 -10.832  1.00  0.00     0.211 HD
ENDBRANCH  17  28
ENDBRANCH  14  17
ENDBRANCH  12  13
BRANCH  12  30
ATOM     30  C   UNL     1     -15.582   2.147 -11.655  1.00  0.00     0.018 C 
ATOM     31  C   UNL     1     -16.598   2.616 -12.707  1.00  0.00     0.010 C 
BRANCH  30  32
ATOM     32  C   UNL     1     -15.989   0.758 -11.104  1.00  0.00     0.002 C 
ATOM     33  C   UNL     1     -15.183   0.270  -9.908  1.00  0.00     0.004 C 
ENDBRANCH  30  32
ENDBRANCH  12  30
ENDBRANCH  10  12
ENDBRANCH   1  10
BRANCH   5  34
ATOM     34  C   UNL     1     -20.002   3.706  -9.734  1.00  0.00     0.242 C 
ATOM     35  O   UNL     1     -20.711   3.688  -8.727  1.00  0.00    -0.273 OA
ATOM     36  N   UNL     1     -20.159   4.642 -10.731  1.00  0.00    -0.354 N 
ATOM     37  H   UNL     1     -19.625   4.534 -11.595  1.00  0.00     0.163 HD
BRANCH  36  38
ATOM     38  C   UNL     1     -20.974   5.826 -10.559  1.00  0.00     0.116 C 
BRANCH  38  39
ATOM     39  C   UNL     1     -20.129   7.076 -10.798  1.00  0.00     0.023 C 
BRANCH  39  40
ATOM     40  C   UNL     1     -20.133   8.020  -9.601  1.00  0.00     0.026 C 
BRANCH  40  41
ATOM     41  C   UNL     1     -20.510   7.272  -8.322  1.00  0.00     0.146 C 
BRANCH  41  42
ATOM     42  N   UNL     1     -19.343   7.153  -7.458  1.00  0.00    -0.254 NA
ATOM     43  C   UNL     1     -19.297   6.221  -6.582  1.00  0.00     0.185 C 
ATOM     44  N   UNL     1     -20.193   5.261  -6.291  1.00  0.00    -0.370 N 
ATOM     45  N   UNL     1     -18.214   6.131  -5.792  1.00  0.00    -0.370 N 
ATOM     46  H   UNL     1     -20.138   4.753  -5.425  1.00  0.00     0.159 HD
ATOM     47  H   UNL     1     -21.066   5.174  -6.803  1.00  0.00     0.159 HD
ATOM     48  H   UNL     1     -17.485   6.813  -5.952  1.00  0.00     0.159 HD
ATOM     49  H   UNL     1     -17.997   5.308  -5.258  1.00  0.00     0.159 HD
ENDBRANCH  41  42
ENDBRANCH  40  41
ENDBRANCH  39  40
ENDBRANCH  38  39
ENDBRANCH  36  38
ENDBRANCH   5  34
BRANCH   8  50
ATOM     50  O   UNL     1     -18.843   2.957  -5.191  1.00  0.00    -0.245 OA
BRANCH  50  51
ATOM     51  S   UNL     1     -19.239   3.087  -3.618  1.00  0.00     0.397 S 
ATOM     52  O   UNL     1     -18.252   2.364  -2.848  1.00  0.00    -0.169 OA
ATOM     53  O   UNL     1     -20.658   2.845  -3.453  1.00  0.00    -0.169 OA
BRANCH  51  54
ATOM     54  O   UNL     1     -18.965   4.645  -3.330  1.00  0.00    -0.264 OA
ATOM     55  H   UNL     1     -18.857   5.093  -4.194  1.00  0.00     0.236 HD
ENDBRANCH  51  54
ENDBRANCH  50  51
ENDBRANCH   8  50
TORSDOF 19
ENDMDL
MODEL 12
REMARK VINA RESULT:    -6.539      2.235      3.269
REMARK INTER + INTRA:         -17.467
REMARK INTER:                 -13.922
REMARK INTRA:                  -3.546
REMARK UNBOUND:                -4.239
REMARK SMILES CC[C@@H](C)[C@@H](NC(=O)[C@@H](O)Cc1ccc(O)c(Cl)c1)C(=O)N1[C@H](C(=O)NCCCCN=C(N)N)C[C@H]2CC[C@H](OS(=O)(=O)O)C[C@@H]21
REMARK SMILES IDX 22 1 36 2 46 3 35 4 23 5 45 6 37 7 39 8 38 9 20 10 21 11
REMARK SMILES IDX 5 12 6 13 7 14 8 15 9 17 11 18 12 19 17 20 19 21 15 22 14 23
REMARK SMILES IDX 13 24 18 25 16 26 10 28 3 30 4 31 2 32 1 33 24 34 25 35
REMARK SMILES IDX 26 36 27 38 28 39 29 40 30 41 31 42 32 43 33 44 34 45 40 50
REMARK SMILES IDX 41 51 42 52 43 53 44 54
REMARK H PARENT 6 16 16 27 10 29 26 37 33 46 33 47 34 48 34 49 44 55
ROOT
ATOM      1  N   UNL     1     -12.070   2.643  -7.830  1.00  0.00    -0.326 N 
ATOM      2  C   UNL     1      -9.917   3.542  -7.520  1.00  0.00     0.014 C 
ATOM      3  C   UNL     1     -10.719   2.241  -7.428  1.00  0.00     0.091 C 
ATOM      4  C   UNL     1     -10.933   4.593  -7.101  1.00  0.00     0.041 C 
ATOM      5  C   UNL     1     -12.159   4.122  -7.905  1.00  0.00     0.175 C 
ATOM      6  C   UNL     1     -10.004   1.173  -8.254  1.00  0.00     0.059 C 
ATOM      7  C   UNL     1      -8.610   3.428  -6.760  1.00  0.00     0.008 C 
ATOM      8  C   UNL     1      -8.469   1.336  -8.284  1.00  0.00     0.143 C 
ATOM      9  C   UNL     1      -7.939   2.065  -7.034  1.00  0.00     0.034 C 
ENDROOT
BRANCH   1  10
ATOM     10  C   UNL     1     -13.230   1.891  -7.920  1.00  0.00     0.246 C 
ATOM     11  O   UNL     1     -13.422   0.983  -7.105  1.00  0.00    -0.272 OA
BRANCH  10  12
ATOM     12  C   UNL     1     -14.282   2.233  -9.014  1.00  0.00     0.174 C 
BRANCH  12  13
ATOM     13  N   UNL     1     -15.587   2.467  -8.396  1.00  0.00    -0.342 N 
ATOM     14  C   UNL     1     -16.092   3.702  -8.059  1.00  0.00     0.249 C 
ATOM     15  O   UNL     1     -15.507   4.758  -8.268  1.00  0.00    -0.272 OA
ATOM     16  H   UNL     1     -16.114   1.682  -8.022  1.00  0.00     0.164 HD
BRANCH  14  17
ATOM     17  C   UNL     1     -17.488   3.617  -7.406  1.00  0.00     0.207 C 
BRANCH  17  18
ATOM     18  C   UNL     1     -18.109   2.238  -7.649  1.00  0.00     0.077 C 
BRANCH  18  19
ATOM     19  C   UNL     1     -18.225   1.441  -6.369  1.00  0.00    -0.043 A 
ATOM     20  C   UNL     1     -18.864   1.294  -4.034  1.00  0.00     0.083 A 
ATOM     21  C   UNL     1     -18.803   2.015  -5.227  1.00  0.00     0.028 A 
ATOM     22  C   UNL     1     -18.347  -0.001  -3.974  1.00  0.00     0.134 A 
ATOM     23  C   UNL     1     -17.772  -0.582  -5.098  1.00  0.00     0.048 A 
ATOM     24  C   UNL     1     -17.708   0.138  -6.293  1.00  0.00     0.008 A 
ATOM     25  Cl  UNL     1     -19.578   2.016  -2.640  1.00  0.00    -0.080 Cl
BRANCH  22  26
ATOM     26  O   UNL     1     -18.374  -0.743  -2.824  1.00  0.00    -0.506 OA
ATOM     27  H   UNL     1     -19.310  -0.812  -2.557  1.00  0.00     0.293 HD
ENDBRANCH  22  26
ENDBRANCH  18  19
ENDBRANCH  17  18
BRANCH  17  28
ATOM     28  O   UNL     1     -18.363   4.633  -7.922  1.00  0.00    -0.383 OA
ATOM     29  H   UNL     1     -17.786   5.273  -8.397  1.00  0.00     0.211 HD
ENDBRANCH  17  28
ENDBRANCH  14  17
ENDBRANCH  12  13
BRANCH  12  30
ATOM     30  C   UNL     1     -14.343   1.168 -10.142  1.00  0.00     0.018 C 
ATOM     31  C   UNL     1     -13.084   1.230 -11.021  1.00  0.00     0.010 C 
BRANCH  30  32
ATOM     32  C   UNL     1     -15.612   1.267 -11.023  1.00  0.00     0.002 C 
ATOM     33  C   UNL     1     -16.603   0.121 -10.869  1.00  0.00     0.004 C 
ENDBRANCH  30  32
ENDBRANCH  12  30
ENDBRANCH  10  12
ENDBRANCH   1  10
BRANCH   5  34
ATOM     34  C   UNL     1     -12.096   4.603  -9.379  1.00  0.00     0.242 C 
ATOM     35  O   UNL     1     -11.083   4.481 -10.068  1.00  0.00    -0.273 OA
ATOM     36  N   UNL     1     -13.234   5.225  -9.841  1.00  0.00    -0.354 N 
ATOM     37  H   UNL     1     -13.997   5.405  -9.187  1.00  0.00     0.163 HD
BRANCH  36  38
ATOM     38  C   UNL     1     -13.428   5.541 -11.241  1.00  0.00     0.116 C 
BRANCH  38  39
ATOM     39  C   UNL     1     -14.544   4.673 -11.818  1.00  0.00     0.023 C 
BRANCH  39  40
ATOM     40  C   UNL     1     -15.929   5.260 -11.566  1.00  0.00     0.026 C 
BRANCH  40  41
ATOM     41  C   UNL     1     -16.994   4.164 -11.587  1.00  0.00     0.146 C 
BRANCH  41  42
ATOM     42  N   UNL     1     -18.211   4.648 -10.948  1.00  0.00    -0.254 NA
ATOM     43  C   UNL     1     -19.219   3.867 -10.833  1.00  0.00     0.185 C 
ATOM     44  N   UNL     1     -19.371   2.588 -11.219  1.00  0.00    -0.370 N 
ATOM     45  N   UNL     1     -20.333   4.334 -10.245  1.00  0.00    -0.370 N 
ATOM     46  H   UNL     1     -20.287   2.178 -11.287  1.00  0.00     0.159 HD
ATOM     47  H   UNL     1     -18.620   2.074 -11.670  1.00  0.00     0.159 HD
ATOM     48  H   UNL     1     -20.300   5.290  -9.916  1.00  0.00     0.159 HD
ATOM     49  H   UNL     1     -21.063   3.733  -9.907  1.00  0.00     0.159 HD
ENDBRANCH  41  42
ENDBRANCH  40  41
ENDBRANCH  39  40
ENDBRANCH  38  39
ENDBRANCH  36  38
ENDBRANCH   5  34
BRANCH   8  50
ATOM     50  O   UNL     1      -8.077   2.075  -9.441  1.00  0.00    -0.245 OA
BRANCH  50  51
ATOM     51  S   UNL     1      -6.831   1.551 -10.345  1.00  0.00     0.397 S 
ATOM     52  O   UNL     1      -5.608   1.854  -9.638  1.00  0.00    -0.169 OA
ATOM     53  O   UNL     1      -7.030   1.948 -11.724  1.00  0.00    -0.169 OA
BRANCH  51  54
ATOM     54  O   UNL     1      -7.003  -0.046 -10.259  1.00  0.00    -0.264 OA
ATOM     55  H   UNL     1      -7.812  -0.231  -9.741  1.00  0.00     0.236 HD
ENDBRANCH  51  54
ENDBRANCH  50  51
ENDBRANCH   8  50
TORSDOF 19
ENDMDL
MODEL 13
REMARK VINA RESULT:    -6.511      3.226      6.019
REMARK INTER + INTRA:         -17.411
REMARK INTER:                 -13.944
REMARK INTRA:                  -3.468
REMARK UNBOUND:                -4.239
REMARK SMILES CC[C@@H](C)[C@@H](NC(=O)[C@@H](O)Cc1ccc(O)c(Cl)c1)C(=O)N1[C@H](C(=O)NCCCCN=C(N)N)C[C@H]2CC[C@H](OS(=O)(=O)O)C[C@@H]21
REMARK SMILES IDX 22 1 36 2 46 3 35 4 23 5 45 6 37 7 39 8 38 9 20 10 21 11
REMARK SMILES IDX 5 12 6 13 7 14 8 15 9 17 11 18 12 19 17 20 19 21 15 22 14 23
REMARK SMILES IDX 13 24 18 25 16 26 10 28 3 30 4 31 2 32 1 33 24 34 25 35
REMARK SMILES IDX 26 36 27 38 28 39 29 40 30 41 31 42 32 43 33 44 34 45 40 50
REMARK SMILES IDX 41 51 42 52 43 53 44 54
REMARK H PARENT 6 16 16 27 10 29 26 37 33 46 33 47 34 48 34 49 44 55
ROOT
ATOM      1  N   UNL     1     -15.194   1.894  -9.294  1.00  0.00    -0.326 N 
ATOM      2  C   UNL     1     -14.670   2.617 -11.473  1.00  0.00     0.014 C 
ATOM      3  C   UNL     1     -15.344   3.060 -10.171  1.00  0.00     0.091 C 
ATOM      4  C   UNL     1     -14.999   1.134 -11.533  1.00  0.00     0.041 C 
ATOM      5  C   UNL     1     -14.708   0.730 -10.076  1.00  0.00     0.175 C 
ATOM      6  C   UNL     1     -14.720   4.383  -9.729  1.00  0.00     0.059 C 
ATOM      7  C   UNL     1     -15.074   3.516 -12.625  1.00  0.00     0.008 C 
ATOM      8  C   UNL     1     -14.257   5.273 -10.903  1.00  0.00     0.143 C 
ATOM      9  C   UNL     1     -15.058   4.997 -12.191  1.00  0.00     0.034 C 
ENDROOT
BRANCH   1  10
ATOM     10  C   UNL     1     -15.627   1.701  -7.994  1.00  0.00     0.246 C 
ATOM     11  O   UNL     1     -14.851   1.934  -7.061  1.00  0.00    -0.272 OA
BRANCH  10  12
ATOM     12  C   UNL     1     -17.089   1.236  -7.733  1.00  0.00     0.174 C 
BRANCH  12  13
ATOM     13  N   UNL     1     -18.028   2.235  -8.242  1.00  0.00    -0.342 N 
ATOM     14  C   UNL     1     -18.762   2.111  -9.401  1.00  0.00     0.249 C 
ATOM     15  O   UNL     1     -18.730   1.125 -10.126  1.00  0.00    -0.272 OA
ATOM     16  H   UNL     1     -18.044   3.166  -7.834  1.00  0.00     0.164 HD
BRANCH  14  17
ATOM     17  C   UNL     1     -19.650   3.343  -9.677  1.00  0.00     0.207 C 
BRANCH  17  18
ATOM     18  C   UNL     1     -20.471   3.702  -8.435  1.00  0.00     0.077 C 
BRANCH  18  19
ATOM     19  C   UNL     1     -20.125   5.078  -7.910  1.00  0.00    -0.043 A 
ATOM     20  C   UNL     1     -18.488   6.819  -7.494  1.00  0.00     0.083 A 
ATOM     21  C   UNL     1     -18.815   5.570  -8.023  1.00  0.00     0.028 A 
ATOM     22  C   UNL     1     -19.463   7.581  -6.850  1.00  0.00     0.134 A 
ATOM     23  C   UNL     1     -20.764   7.106  -6.732  1.00  0.00     0.048 A 
ATOM     24  C   UNL     1     -21.094   5.856  -7.258  1.00  0.00     0.008 A 
ATOM     25  Cl  UNL     1     -16.873   7.406  -7.642  1.00  0.00    -0.080 Cl
BRANCH  22  26
ATOM     26  O   UNL     1     -19.187   8.807  -6.307  1.00  0.00    -0.506 OA
ATOM     27  H   UNL     1     -18.323   9.084  -6.665  1.00  0.00     0.293 HD
ENDBRANCH  22  26
ENDBRANCH  18  19
ENDBRANCH  17  18
BRANCH  17  28
ATOM     28  O   UNL     1     -20.537   3.104 -10.782  1.00  0.00    -0.383 OA
ATOM     29  H   UNL     1     -20.768   3.990 -11.143  1.00  0.00     0.211 HD
ENDBRANCH  17  28
ENDBRANCH  14  17
ENDBRANCH  12  13
BRANCH  12  30
ATOM     30  C   UNL     1     -17.350   0.884  -6.244  1.00  0.00     0.018 C 
ATOM     31  C   UNL     1     -17.230  -0.631  -6.012  1.00  0.00     0.010 C 
BRANCH  30  32
ATOM     32  C   UNL     1     -18.711   1.397  -5.713  1.00  0.00     0.002 C 
ATOM     33  C   UNL     1     -18.634   2.601  -4.783  1.00  0.00     0.004 C 
ENDBRANCH  30  32
ENDBRANCH  12  30
ENDBRANCH  10  12
ENDBRANCH   1  10
BRANCH   5  34
ATOM     34  C   UNL     1     -13.191   0.503  -9.838  1.00  0.00     0.242 C 
ATOM     35  O   UNL     1     -12.407   0.280 -10.760  1.00  0.00    -0.273 OA
ATOM     36  N   UNL     1     -12.798   0.513  -8.518  1.00  0.00    -0.354 N 
ATOM     37  H   UNL     1     -13.512   0.582  -7.793  1.00  0.00     0.163 HD
BRANCH  36  38
ATOM     38  C   UNL     1     -11.403   0.533  -8.128  1.00  0.00     0.116 C 
BRANCH  38  39
ATOM     39  C   UNL     1     -10.907   1.975  -8.050  1.00  0.00     0.023 C 
BRANCH  39  40
ATOM     40  C   UNL     1      -9.579   2.095  -7.309  1.00  0.00     0.026 C 
BRANCH  40  41
ATOM     41  C   UNL     1      -9.370   3.521  -6.799  1.00  0.00     0.146 C 
BRANCH  41  42
ATOM     42  N   UNL     1      -9.150   4.419  -7.925  1.00  0.00    -0.254 NA
ATOM     43  C   UNL     1      -7.964   4.819  -8.193  1.00  0.00     0.185 C 
ATOM     44  N   UNL     1      -6.798   4.541  -7.581  1.00  0.00    -0.370 N 
ATOM     45  N   UNL     1      -7.782   5.650  -9.232  1.00  0.00    -0.370 N 
ATOM     46  H   UNL     1      -5.985   5.111  -7.743  1.00  0.00     0.159 HD
ATOM     47  H   UNL     1      -6.751   3.916  -6.783  1.00  0.00     0.159 HD
ATOM     48  H   UNL     1      -8.610   5.903  -9.754  1.00  0.00     0.159 HD
ATOM     49  H   UNL     1      -6.882   5.815  -9.646  1.00  0.00     0.159 HD
ENDBRANCH  41  42
ENDBRANCH  40  41
ENDBRANCH  39  40
ENDBRANCH  38  39
ENDBRANCH  36  38
ENDBRANCH   5  34
BRANCH   8  50
ATOM     50  O   UNL     1     -12.873   5.048 -11.172  1.00  0.00    -0.245 OA
BRANCH  50  51
ATOM     51  S   UNL     1     -11.795   6.231 -10.880  1.00  0.00     0.397 S 
ATOM     52  O   UNL     1     -12.168   6.879  -9.643  1.00  0.00    -0.169 OA
ATOM     53  O   UNL     1     -11.562   6.986 -12.094  1.00  0.00    -0.169 OA
BRANCH  51  54
ATOM     54  O   UNL     1     -10.461   5.396 -10.552  1.00  0.00    -0.264 OA
ATOM     55  H   UNL     1     -10.058   5.130 -11.404  1.00  0.00     0.236 HD
ENDBRANCH  51  54
ENDBRANCH  50  51
ENDBRANCH   8  50
TORSDOF 19
ENDMDL
MODEL 14
REMARK VINA RESULT:    -6.491      3.326      8.162
REMARK INTER + INTRA:         -17.371
REMARK INTER:                 -13.375
REMARK INTRA:                  -3.996
REMARK UNBOUND:                -4.239
REMARK SMILES CC[C@@H](C)[C@@H](NC(=O)[C@@H](O)Cc1ccc(O)c(Cl)c1)C(=O)N1[C@H](C(=O)NCCCCN=C(N)N)C[C@H]2CC[C@H](OS(=O)(=O)O)C[C@@H]21
REMARK SMILES IDX 22 1 36 2 46 3 35 4 23 5 45 6 37 7 39 8 38 9 20 10 21 11
REMARK SMILES IDX 5 12 6 13 7 14 8 15 9 17 11 18 12 19 17 20 19 21 15 22 14 23
REMARK SMILES IDX 13 24 18 25 16 26 10 28 3 30 4 31 2 32 1 33 24 34 25 35
REMARK SMILES IDX 26 36 27 38 28 39 29 40 30 41 31 42 32 43 33 44 34 45 40 50
REMARK SMILES IDX 41 51 42 52 43 53 44 54
REMARK H PARENT 6 16 16 27 10 29 26 37 33 46 33 47 34 48 34 49 44 55
ROOT
ATOM      1  N   UNL     1     -15.253   4.994 -11.193  1.00  0.00    -0.326 N 
ATOM      2  C   UNL     1     -15.501   2.679 -11.544  1.00  0.00     0.014 C 
ATOM      3  C   UNL     1     -14.524   3.734 -11.017  1.00  0.00     0.091 C 
ATOM      4  C   UNL     1     -16.200   3.408 -12.681  1.00  0.00     0.041 C 
ATOM      5  C   UNL     1     -16.471   4.766 -12.009  1.00  0.00     0.175 C 
ATOM      6  C   UNL     1     -14.096   3.335  -9.606  1.00  0.00     0.059 C 
ATOM      7  C   UNL     1     -14.787   1.372 -11.826  1.00  0.00     0.008 C 
ATOM      8  C   UNL     1     -14.049   1.809  -9.379  1.00  0.00     0.143 C 
ATOM      9  C   UNL     1     -13.798   1.036 -10.690  1.00  0.00     0.034 C 
ENDROOT
BRANCH   1  10
ATOM     10  C   UNL     1     -14.863   6.292 -10.910  1.00  0.00     0.246 C 
ATOM     11  O   UNL     1     -15.411   6.895  -9.981  1.00  0.00    -0.272 OA
BRANCH  10  12
ATOM     12  C   UNL     1     -13.718   6.946 -11.736  1.00  0.00     0.174 C 
BRANCH  12  13
ATOM     13  N   UNL     1     -12.601   7.289 -10.856  1.00  0.00    -0.342 N 
ATOM     14  C   UNL     1     -11.465   6.529 -10.689  1.00  0.00     0.249 C 
ATOM     15  O   UNL     1     -11.250   5.483 -11.288  1.00  0.00    -0.272 OA
ATOM     16  H   UNL     1     -12.705   8.043 -10.181  1.00  0.00     0.164 HD
BRANCH  14  17
ATOM     17  C   UNL     1     -10.477   7.150  -9.678  1.00  0.00     0.207 C 
BRANCH  17  18
ATOM     18  C   UNL     1     -10.976   6.941  -8.245  1.00  0.00     0.077 C 
BRANCH  18  19
ATOM     19  C   UNL     1     -10.559   5.596  -7.695  1.00  0.00    -0.043 A 
ATOM     20  C   UNL     1      -8.817   4.024  -7.081  1.00  0.00     0.083 A 
ATOM     21  C   UNL     1      -9.199   5.284  -7.542  1.00  0.00     0.028 A 
ATOM     22  C   UNL     1      -9.787   3.069  -6.772  1.00  0.00     0.134 A 
ATOM     23  C   UNL     1     -11.137   3.365  -6.919  1.00  0.00     0.048 A 
ATOM     24  C   UNL     1     -11.523   4.625  -7.382  1.00  0.00     0.008 A 
ATOM     25  Cl  UNL     1      -7.141   3.659  -6.900  1.00  0.00    -0.080 Cl
BRANCH  22  26
ATOM     26  O   UNL     1      -9.460   1.817  -6.327  1.00  0.00    -0.506 OA
ATOM     27  H   UNL     1     -10.293   1.390  -6.053  1.00  0.00     0.293 HD
ENDBRANCH  22  26
ENDBRANCH  18  19
ENDBRANCH  17  18
BRANCH  17  28
ATOM     28  O   UNL     1     -10.302   8.555  -9.922  1.00  0.00    -0.383 OA
ATOM     29  H   UNL     1      -9.683   8.624 -10.684  1.00  0.00     0.211 HD
ENDBRANCH  17  28
ENDBRANCH  14  17
ENDBRANCH  12  13
BRANCH  12  30
ATOM     30  C   UNL     1     -14.202   8.157 -12.578  1.00  0.00     0.018 C 
ATOM     31  C   UNL     1     -15.128   7.697 -13.715  1.00  0.00     0.010 C 
BRANCH  30  32
ATOM     32  C   UNL     1     -13.049   9.019 -13.147  1.00  0.00     0.002 C 
ATOM     33  C   UNL     1     -13.401   9.850 -14.374  1.00  0.00     0.004 C 
ENDBRANCH  30  32
ENDBRANCH  12  30
ENDBRANCH  10  12
ENDBRANCH   1  10
BRANCH   5  34
ATOM     34  C   UNL     1     -17.735   4.716 -11.109  1.00  0.00     0.242 C 
ATOM     35  O   UNL     1     -18.408   3.694 -10.976  1.00  0.00    -0.273 OA
ATOM     36  N   UNL     1     -18.078   5.910 -10.515  1.00  0.00    -0.354 N 
ATOM     37  H   UNL     1     -17.551   6.750 -10.759  1.00  0.00     0.163 HD
BRANCH  36  38
ATOM     38  C   UNL     1     -19.090   5.997  -9.483  1.00  0.00     0.116 C 
BRANCH  38  39
ATOM     39  C   UNL     1     -18.465   6.503  -8.185  1.00  0.00     0.023 C 
BRANCH  39  40
ATOM     40  C   UNL     1     -19.054   5.827  -6.952  1.00  0.00     0.026 C 
BRANCH  40  41
ATOM     41  C   UNL     1     -20.217   4.913  -7.339  1.00  0.00     0.146 C 
BRANCH  41  42
ATOM     42  N   UNL     1     -20.164   3.688  -6.550  1.00  0.00    -0.254 NA
ATOM     43  C   UNL     1     -19.520   2.676  -6.996  1.00  0.00     0.185 C 
ATOM     44  N   UNL     1     -18.831   2.524  -8.142  1.00  0.00    -0.370 N 
ATOM     45  N   UNL     1     -19.487   1.555  -6.256  1.00  0.00    -0.370 N 
ATOM     46  H   UNL     1     -18.584   1.607  -8.474  1.00  0.00     0.159 HD
ATOM     47  H   UNL     1     -18.742   3.280  -8.814  1.00  0.00     0.159 HD
ATOM     48  H   UNL     1     -19.974   1.588  -5.371  1.00  0.00     0.159 HD
ATOM     49  H   UNL     1     -18.823   0.818  -6.415  1.00  0.00     0.159 HD
ENDBRANCH  41  42
ENDBRANCH  40  41
ENDBRANCH  39  40
ENDBRANCH  38  39
ENDBRANCH  36  38
ENDBRANCH   5  34
BRANCH   8  50
ATOM     50  O   UNL     1     -15.282   1.358  -8.817  1.00  0.00    -0.245 OA
BRANCH  50  51
ATOM     51  S   UNL     1     -15.282   0.629  -7.363  1.00  0.00     0.397 S 
ATOM     52  O   UNL     1     -16.444   1.087  -6.634  1.00  0.00    -0.169 OA
ATOM     53  O   UNL     1     -13.954   0.688  -6.789  1.00  0.00    -0.169 OA
BRANCH  51  54
ATOM     54  O   UNL     1     -15.586  -0.901  -7.755  1.00  0.00    -0.264 OA
ATOM     55  H   UNL     1     -16.181  -0.897  -8.532  1.00  0.00     0.236 HD
ENDBRANCH  51  54
ENDBRANCH  50  51
ENDBRANCH   8  50
TORSDOF 19
ENDMDL
MODEL 15
REMARK VINA RESULT:    -6.474     14.432     18.730
REMARK INTER + INTRA:         -17.336
REMARK INTER:                 -14.421
REMARK INTRA:                  -2.915
REMARK UNBOUND:                -4.239
REMARK SMILES CC[C@@H](C)[C@@H](NC(=O)[C@@H](O)Cc1ccc(O)c(Cl)c1)C(=O)N1[C@H](C(=O)NCCCCN=C(N)N)C[C@H]2CC[C@H](OS(=O)(=O)O)C[C@@H]21
REMARK SMILES IDX 22 1 36 2 46 3 35 4 23 5 45 6 37 7 39 8 38 9 20 10 21 11
REMARK SMILES IDX 5 12 6 13 7 14 8 15 9 17 11 18 12 19 17 20 19 21 15 22 14 23
REMARK SMILES IDX 13 24 18 25 16 26 10 28 3 30 4 31 2 32 1 33 24 34 25 35
REMARK SMILES IDX 26 36 27 38 28 39 29 40 30 41 31 42 32 43 33 44 34 45 40 50
REMARK SMILES IDX 41 51 42 52 43 53 44 54
REMARK H PARENT 6 16 16 27 10 29 26 37 33 46 33 47 34 48 34 49 44 55
ROOT
ATOM      1  N   UNL     1      -0.607   1.914   2.263  1.00  0.00    -0.326 N 
ATOM      2  C   UNL     1       1.258   1.856   3.698  1.00  0.00     0.014 C 
ATOM      3  C   UNL     1       0.247   2.807   3.051  1.00  0.00     0.091 C 
ATOM      4  C   UNL     1       1.452   0.794   2.627  1.00  0.00     0.041 C 
ATOM      5  C   UNL     1      -0.011   0.556   2.211  1.00  0.00     0.175 C 
ATOM      6  C   UNL     1      -0.401   3.645   4.152  1.00  0.00     0.059 C 
ATOM      7  C   UNL     1       2.462   2.617   4.218  1.00  0.00     0.008 C 
ATOM      8  C   UNL     1       0.534   3.932   5.346  1.00  0.00     0.143 C 
ATOM      9  C   UNL     1       2.021   3.909   4.937  1.00  0.00     0.034 C 
ENDROOT
BRANCH   1  10
ATOM     10  C   UNL     1      -1.686   2.209   1.447  1.00  0.00     0.246 C 
ATOM     11  O   UNL     1      -1.900   1.504   0.455  1.00  0.00    -0.272 OA
BRANCH  10  12
ATOM     12  C   UNL     1      -2.627   3.391   1.817  1.00  0.00     0.174 C 
BRANCH  12  13
ATOM     13  N   UNL     1      -3.689   2.923   2.707  1.00  0.00    -0.342 N 
ATOM     14  C   UNL     1      -4.127   3.585   3.832  1.00  0.00     0.249 C 
ATOM     15  O   UNL     1      -3.687   4.667   4.201  1.00  0.00    -0.272 OA
ATOM     16  H   UNL     1      -4.038   1.972   2.618  1.00  0.00     0.164 HD
BRANCH  14  17
ATOM     17  C   UNL     1      -5.250   2.826   4.571  1.00  0.00     0.207 C 
BRANCH  17  18
ATOM     18  C   UNL     1      -6.288   3.809   5.120  1.00  0.00     0.077 C 
BRANCH  18  19
ATOM     19  C   UNL     1      -7.144   4.396   4.020  1.00  0.00    -0.043 A 
ATOM     20  C   UNL     1      -8.744   4.106   2.220  1.00  0.00     0.083 A 
ATOM     21  C   UNL     1      -7.993   3.570   3.267  1.00  0.00     0.028 A 
ATOM     22  C   UNL     1      -8.652   5.465   1.919  1.00  0.00     0.134 A 
ATOM     23  C   UNL     1      -7.815   6.294   2.658  1.00  0.00     0.048 A 
ATOM     24  C   UNL     1      -7.061   5.760   3.705  1.00  0.00     0.008 A 
ATOM     25  Cl  UNL     1      -9.781   3.076   1.305  1.00  0.00    -0.080 Cl
BRANCH  22  26
ATOM     26  O   UNL     1      -9.360   6.034   0.896  1.00  0.00    -0.506 OA
ATOM     27  H   UNL     1      -9.226   5.468   0.113  1.00  0.00     0.293 HD
ENDBRANCH  22  26
ENDBRANCH  18  19
ENDBRANCH  17  18
BRANCH  17  28
ATOM     28  O   UNL     1      -4.719   2.040   5.650  1.00  0.00    -0.383 OA
ATOM     29  H   UNL     1      -3.741   2.063   5.548  1.00  0.00     0.211 HD
ENDBRANCH  17  28
ENDBRANCH  14  17
ENDBRANCH  12  13
BRANCH  12  30
ATOM     30  C   UNL     1      -3.182   4.130   0.570  1.00  0.00     0.018 C 
ATOM     31  C   UNL     1      -3.287   5.641   0.831  1.00  0.00     0.010 C 
BRANCH  30  32
ATOM     32  C   UNL     1      -4.542   3.580   0.075  1.00  0.00     0.002 C 
ATOM     33  C   UNL     1      -5.683   4.589   0.052  1.00  0.00     0.004 C 
ENDBRANCH  30  32
ENDBRANCH  12  30
ENDBRANCH  10  12
ENDBRANCH   1  10
BRANCH   5  34
ATOM     34  C   UNL     1      -0.736  -0.402   3.194  1.00  0.00     0.242 C 
ATOM     35  O   UNL     1      -1.816  -0.118   3.712  1.00  0.00    -0.273 OA
ATOM     36  N   UNL     1      -0.060  -1.565   3.484  1.00  0.00    -0.354 N 
ATOM     37  H   UNL     1       0.885  -1.689   3.117  1.00  0.00     0.163 HD
BRANCH  36  38
ATOM     38  C   UNL     1      -0.677  -2.660   4.204  1.00  0.00     0.116 C 
BRANCH  38  39
ATOM     39  C   UNL     1       0.399  -3.597   4.745  1.00  0.00     0.023 C 
BRANCH  39  40
ATOM     40  C   UNL     1       0.452  -3.606   6.269  1.00  0.00     0.026 C 
BRANCH  40  41
ATOM     41  C   UNL     1       1.358  -4.730   6.773  1.00  0.00     0.146 C 
BRANCH  41  42
ATOM     42  N   UNL     1       2.464  -4.166   7.536  1.00  0.00    -0.254 NA
ATOM     43  C   UNL     1       3.621  -4.708   7.467  1.00  0.00     0.185 C 
ATOM     44  N   UNL     1       4.035  -5.780   6.767  1.00  0.00    -0.370 N 
ATOM     45  N   UNL     1       4.627  -4.176   8.181  1.00  0.00    -0.370 N 
ATOM     46  H   UNL     1       4.901  -6.238   6.994  1.00  0.00     0.159 HD
ATOM     47  H   UNL     1       3.405  -6.296   6.161  1.00  0.00     0.159 HD
ATOM     48  H   UNL     1       4.402  -3.358   8.731  1.00  0.00     0.159 HD
ATOM     49  H   UNL     1       5.592  -4.387   8.002  1.00  0.00     0.159 HD
ENDBRANCH  41  42
ENDBRANCH  40  41
ENDBRANCH  39  40
ENDBRANCH  38  39
ENDBRANCH  36  38
ENDBRANCH   5  34
BRANCH   8  50
ATOM     50  O   UNL     1       0.332   2.960   6.372  1.00  0.00    -0.245 OA
BRANCH  50  51
ATOM     51  S   UNL     1      -1.120   2.849   7.098  1.00  0.00     0.397 S 
ATOM     52  O   UNL     1      -1.986   2.066   6.245  1.00  0.00    -0.169 OA
ATOM     53  O   UNL     1      -1.516   4.150   7.594  1.00  0.00    -0.169 OA
BRANCH  51  54
ATOM     54  O   UNL     1      -0.791   1.914   8.364  1.00  0.00    -0.264 OA
ATOM     55  H   UNL     1      -1.630   1.502   8.656  1.00  0.00     0.236 HD
ENDBRANCH  51  54
ENDBRANCH  50  51
ENDBRANCH   8  50
TORSDOF 19
ENDMDL
MODEL 16
REMARK VINA RESULT:    -6.464     10.403     13.678
REMARK INTER + INTRA:         -17.317
REMARK INTER:                 -14.266
REMARK INTRA:                  -3.051
REMARK UNBOUND:                -4.239
REMARK SMILES CC[C@@H](C)[C@@H](NC(=O)[C@@H](O)Cc1ccc(O)c(Cl)c1)C(=O)N1[C@H](C(=O)NCCCCN=C(N)N)C[C@H]2CC[C@H](OS(=O)(=O)O)C[C@@H]21
REMARK SMILES IDX 22 1 36 2 46 3 35 4 23 5 45 6 37 7 39 8 38 9 20 10 21 11
REMARK SMILES IDX 5 12 6 13 7 14 8 15 9 17 11 18 12 19 17 20 19 21 15 22 14 23
REMARK SMILES IDX 13 24 18 25 16 26 10 28 3 30 4 31 2 32 1 33 24 34 25 35
REMARK SMILES IDX 26 36 27 38 28 39 29 40 30 41 31 42 32 43 33 44 34 45 40 50
REMARK SMILES IDX 41 51 42 52 43 53 44 54
REMARK H PARENT 6 16 16 27 10 29 26 37 33 46 33 47 34 48 34 49 44 55
ROOT
ATOM      1  N   UNL     1      -7.879  -8.035  -2.946  1.00  0.00    -0.326 N 
ATOM      2  C   UNL     1      -8.267  -8.594  -5.200  1.00  0.00     0.014 C 
ATOM      3  C   UNL     1      -8.805  -7.744  -4.045  1.00  0.00     0.091 C 
ATOM      4  C   UNL     1      -7.743  -9.832  -4.489  1.00  0.00     0.041 C 
ATOM      5  C   UNL     1      -7.002  -9.176  -3.310  1.00  0.00     0.175 C 
ATOM      6  C   UNL     1      -8.928  -6.299  -4.525  1.00  0.00     0.059 C 
ATOM      7  C   UNL     1      -9.310  -8.748  -6.290  1.00  0.00     0.008 C 
ATOM      8  C   UNL     1      -9.262  -6.169  -6.026  1.00  0.00     0.143 C 
ATOM      9  C   UNL     1     -10.017  -7.403  -6.561  1.00  0.00     0.034 C 
ENDROOT
BRANCH   1  10
ATOM     10  C   UNL     1      -7.874  -7.569  -1.643  1.00  0.00     0.246 C 
ATOM     11  O   UNL     1      -7.073  -6.684  -1.324  1.00  0.00    -0.272 OA
BRANCH  10  12
ATOM     12  C   UNL     1      -8.901  -8.137  -0.621  1.00  0.00     0.174 C 
BRANCH  12  13
ATOM     13  N   UNL     1      -9.426  -7.055   0.212  1.00  0.00    -0.342 N 
ATOM     14  C   UNL     1     -10.754  -6.872   0.525  1.00  0.00     0.249 C 
ATOM     15  O   UNL     1     -11.651  -7.621   0.159  1.00  0.00    -0.272 OA
ATOM     16  H   UNL     1      -8.826  -6.272   0.457  1.00  0.00     0.164 HD
BRANCH  14  17
ATOM     17  C   UNL     1     -10.992  -5.629   1.409  1.00  0.00     0.207 C 
BRANCH  17  18
ATOM     18  C   UNL     1     -10.335  -4.394   0.784  1.00  0.00     0.077 C 
BRANCH  18  19
ATOM     19  C   UNL     1     -11.038  -3.966  -0.484  1.00  0.00    -0.043 A 
ATOM     20  C   UNL     1     -13.031  -3.178  -1.621  1.00  0.00     0.083 A 
ATOM     21  C   UNL     1     -12.370  -3.526  -0.442  1.00  0.00     0.028 A 
ATOM     22  C   UNL     1     -12.369  -3.269  -2.846  1.00  0.00     0.134 A 
ATOM     23  C   UNL     1     -11.049  -3.704  -2.902  1.00  0.00     0.048 A 
ATOM     24  C   UNL     1     -10.386  -4.054  -1.724  1.00  0.00     0.008 A 
ATOM     25  Cl  UNL     1     -14.668  -2.640  -1.549  1.00  0.00    -0.080 Cl
BRANCH  22  26
ATOM     26  O   UNL     1     -12.978  -2.950  -4.029  1.00  0.00    -0.506 OA
ATOM     27  H   UNL     1     -12.907  -1.982  -4.128  1.00  0.00     0.293 HD
ENDBRANCH  22  26
ENDBRANCH  18  19
ENDBRANCH  17  18
BRANCH  17  28
ATOM     28  O   UNL     1     -10.469  -5.829   2.733  1.00  0.00    -0.383 OA
ATOM     29  H   UNL     1     -11.059  -6.491   3.161  1.00  0.00     0.211 HD
ENDBRANCH  17  28
ENDBRANCH  14  17
ENDBRANCH  12  13
BRANCH  12  30
ATOM     30  C   UNL     1      -8.326  -9.307   0.221  1.00  0.00     0.018 C 
ATOM     31  C   UNL     1      -9.404 -10.369   0.490  1.00  0.00     0.010 C 
BRANCH  30  32
ATOM     32  C   UNL     1      -7.681  -8.856   1.554  1.00  0.00     0.002 C 
ATOM     33  C   UNL     1      -8.458  -9.222   2.811  1.00  0.00     0.004 C 
ENDBRANCH  30  32
ENDBRANCH  12  30
ENDBRANCH  10  12
ENDBRANCH   1  10
BRANCH   5  34
ATOM     34  C   UNL     1      -5.593  -8.675  -3.726  1.00  0.00     0.242 C 
ATOM     35  O   UNL     1      -4.689  -9.447  -4.046  1.00  0.00    -0.273 OA
ATOM     36  N   UNL     1      -5.413  -7.312  -3.660  1.00  0.00    -0.354 N 
ATOM     37  H   UNL     1      -6.161  -6.735  -3.273  1.00  0.00     0.163 HD
BRANCH  36  38
ATOM     38  C   UNL     1      -4.244  -6.659  -4.213  1.00  0.00     0.116 C 
BRANCH  38  39
ATOM     39  C   UNL     1      -4.557  -6.133  -5.612  1.00  0.00     0.023 C 
BRANCH  39  40
ATOM     40  C   UNL     1      -3.564  -6.632  -6.657  1.00  0.00     0.026 C 
BRANCH  40  41
ATOM     41  C   UNL     1      -4.034  -6.271  -8.066  1.00  0.00     0.146 C 
BRANCH  41  42
ATOM     42  N   UNL     1      -3.696  -7.348  -8.988  1.00  0.00    -0.254 NA
ATOM     43  C   UNL     1      -4.235  -7.380 -10.149  1.00  0.00     0.185 C 
ATOM     44  N   UNL     1      -5.120  -6.539 -10.715  1.00  0.00    -0.370 N 
ATOM     45  N   UNL     1      -3.914  -8.383 -10.982  1.00  0.00    -0.370 N 
ATOM     46  H   UNL     1      -5.641  -6.816 -11.530  1.00  0.00     0.159 HD
ATOM     47  H   UNL     1      -5.461  -5.716 -10.228  1.00  0.00     0.159 HD
ATOM     48  H   UNL     1      -3.245  -9.057 -10.636  1.00  0.00     0.159 HD
ATOM     49  H   UNL     1      -4.101  -8.351 -11.969  1.00  0.00     0.159 HD
ENDBRANCH  41  42
ENDBRANCH  40  41
ENDBRANCH  39  40
ENDBRANCH  38  39
ENDBRANCH  36  38
ENDBRANCH   5  34
BRANCH   8  50
ATOM     50  O   UNL     1      -8.061  -6.009  -6.783  1.00  0.00    -0.245 OA
BRANCH  50  51
ATOM     51  S   UNL     1      -8.142  -5.913  -8.405  1.00  0.00     0.397 S 
ATOM     52  O   UNL     1      -7.232  -4.875  -8.836  1.00  0.00    -0.169 OA
ATOM     53  O   UNL     1      -9.527  -5.931  -8.825  1.00  0.00    -0.169 OA
BRANCH  51  54
ATOM     54  O   UNL     1      -7.468  -7.301  -8.857  1.00  0.00    -0.264 OA
ATOM     55  H   UNL     1      -7.713  -7.462  -9.791  1.00  0.00     0.236 HD
ENDBRANCH  51  54
ENDBRANCH  50  51
ENDBRANCH   8  50
TORSDOF 19
ENDMDL
MODEL 17
REMARK VINA RESULT:    -6.415     13.316     18.201
REMARK INTER + INTRA:         -17.218
REMARK INTER:                 -12.939
REMARK INTRA:                  -4.279
REMARK UNBOUND:                -4.239
REMARK SMILES CC[C@@H](C)[C@@H](NC(=O)[C@@H](O)Cc1ccc(O)c(Cl)c1)C(=O)N1[C@H](C(=O)NCCCCN=C(N)N)C[C@H]2CC[C@H](OS(=O)(=O)O)C[C@@H]21
REMARK SMILES IDX 22 1 36 2 46 3 35 4 23 5 45 6 37 7 39 8 38 9 20 10 21 11
REMARK SMILES IDX 5 12 6 13 7 14 8 15 9 17 11 18 12 19 17 20 19 21 15 22 14 23
REMARK SMILES IDX 13 24 18 25 16 26 10 28 3 30 4 31 2 32 1 33 24 34 25 35
REMARK SMILES IDX 26 36 27 38 28 39 29 40 30 41 31 42 32 43 33 44 34 45 40 50
REMARK SMILES IDX 41 51 42 52 43 53 44 54
REMARK H PARENT 6 16 16 27 10 29 26 37 33 46 33 47 34 48 34 49 44 55
ROOT
ATOM      1  N   UNL     1      -4.373   2.538   2.765  1.00  0.00    -0.326 N 
ATOM      2  C   UNL     1      -5.450   4.611   2.477  1.00  0.00     0.014 C 
ATOM      3  C   UNL     1      -5.155   3.283   1.775  1.00  0.00     0.091 C 
ATOM      4  C   UNL     1      -4.191   4.842   3.299  1.00  0.00     0.041 C 
ATOM      5  C   UNL     1      -3.985   3.433   3.883  1.00  0.00     0.175 C 
ATOM      6  C   UNL     1      -6.478   2.686   1.297  1.00  0.00     0.059 C 
ATOM      7  C   UNL     1      -5.890   5.666   1.481  1.00  0.00     0.008 C 
ATOM      8  C   UNL     1      -7.534   3.743   0.912  1.00  0.00     0.143 C 
ATOM      9  C   UNL     1      -6.889   5.071   0.465  1.00  0.00     0.034 C 
ENDROOT
BRANCH   1  10
ATOM     10  C   UNL     1      -3.810   1.276   2.684  1.00  0.00     0.246 C 
ATOM     11  O   UNL     1      -4.516   0.287   2.906  1.00  0.00    -0.272 OA
BRANCH  10  12
ATOM     12  C   UNL     1      -2.316   1.127   2.275  1.00  0.00     0.174 C 
BRANCH  12  13
ATOM     13  N   UNL     1      -1.459   1.294   3.449  1.00  0.00    -0.342 N 
ATOM     14  C   UNL     1      -0.750   0.284   4.060  1.00  0.00     0.249 C 
ATOM     15  O   UNL     1      -0.739  -0.876   3.666  1.00  0.00    -0.272 OA
ATOM     16  H   UNL     1      -1.492   2.162   3.978  1.00  0.00     0.164 HD
BRANCH  14  17
ATOM     17  C   UNL     1       0.047   0.774   5.287  1.00  0.00     0.207 C 
BRANCH  17  18
ATOM     18  C   UNL     1       1.218   1.659   4.846  1.00  0.00     0.077 C 
BRANCH  18  19
ATOM     19  C   UNL     1       1.072   3.076   5.352  1.00  0.00    -0.043 A 
ATOM     20  C   UNL     1       2.025   5.267   5.775  1.00  0.00     0.083 A 
ATOM     21  C   UNL     1       2.147   3.975   5.263  1.00  0.00     0.028 A 
ATOM     22  C   UNL     1       0.833   5.668   6.380  1.00  0.00     0.134 A 
ATOM     23  C   UNL     1      -0.239   4.789   6.475  1.00  0.00     0.048 A 
ATOM     24  C   UNL     1      -0.120   3.495   5.965  1.00  0.00     0.008 A 
ATOM     25  Cl  UNL     1       3.356   6.356   5.656  1.00  0.00    -0.080 Cl
BRANCH  22  26
ATOM     26  O   UNL     1       0.670   6.921   6.906  1.00  0.00    -0.506 OA
ATOM     27  H   UNL     1       1.537   7.191   7.261  1.00  0.00     0.293 HD
ENDBRANCH  22  26
ENDBRANCH  18  19
ENDBRANCH  17  18
BRANCH  17  28
ATOM     28  O   UNL     1       0.549  -0.333   6.053  1.00  0.00    -0.383 OA
ATOM     29  H   UNL     1       0.768   0.029   6.942  1.00  0.00     0.211 HD
ENDBRANCH  17  28
ENDBRANCH  14  17
ENDBRANCH  12  13
BRANCH  12  30
ATOM     30  C   UNL     1      -1.916   2.072   1.111  1.00  0.00     0.018 C 
ATOM     31  C   UNL     1      -1.304   1.277  -0.053  1.00  0.00     0.010 C 
BRANCH  30  32
ATOM     32  C   UNL     1      -0.959   3.213   1.536  1.00  0.00     0.002 C 
ATOM     33  C   UNL     1       0.465   3.099   1.008  1.00  0.00     0.004 C 
ENDBRANCH  30  32
ENDBRANCH  12  30
ENDBRANCH  10  12
ENDBRANCH   1  10
BRANCH   5  34
ATOM     34  C   UNL     1      -4.889   3.190   5.122  1.00  0.00     0.242 C 
ATOM     35  O   UNL     1      -5.006   2.081   5.643  1.00  0.00    -0.273 OA
ATOM     36  N   UNL     1      -5.590   4.290   5.560  1.00  0.00    -0.354 N 
ATOM     37  H   UNL     1      -5.544   5.152   5.014  1.00  0.00     0.163 HD
BRANCH  36  38
ATOM     38  C   UNL     1      -6.306   4.300   6.819  1.00  0.00     0.116 C 
BRANCH  38  39
ATOM     39  C   UNL     1      -7.659   4.986   6.640  1.00  0.00     0.023 C 
BRANCH  39  40
ATOM     40  C   UNL     1      -8.396   4.505   5.395  1.00  0.00     0.026 C 
BRANCH  40  41
ATOM     41  C   UNL     1      -9.065   3.154   5.649  1.00  0.00     0.146 C 
BRANCH  41  42
ATOM     42  N   UNL     1      -8.454   2.136   4.804  1.00  0.00    -0.254 NA
ATOM     43  C   UNL     1      -7.834   1.155   5.343  1.00  0.00     0.185 C 
ATOM     44  N   UNL     1      -7.627   0.869   6.641  1.00  0.00    -0.370 N 
ATOM     45  N   UNL     1      -7.274   0.229   4.546  1.00  0.00    -0.370 N 
ATOM     46  H   UNL     1      -6.921   0.208   6.915  1.00  0.00     0.159 HD
ATOM     47  H   UNL     1      -7.995   1.459   7.381  1.00  0.00     0.159 HD
ATOM     48  H   UNL     1      -7.391   0.364   3.551  1.00  0.00     0.159 HD
ATOM     49  H   UNL     1      -6.985  -0.673   4.880  1.00  0.00     0.159 HD
ENDBRANCH  41  42
ENDBRANCH  40  41
ENDBRANCH  39  40
ENDBRANCH  38  39
ENDBRANCH  36  38
ENDBRANCH   5  34
BRANCH   8  50
ATOM     50  O   UNL     1      -8.392   4.007   2.023  1.00  0.00    -0.245 OA
BRANCH  50  51
ATOM     51  S   UNL     1     -10.003   3.884   1.840  1.00  0.00     0.397 S 
ATOM     52  O   UNL     1     -10.287   3.795   0.425  1.00  0.00    -0.169 OA
ATOM     53  O   UNL     1     -10.664   4.855   2.687  1.00  0.00    -0.169 OA
BRANCH  51  54
ATOM     54  O   UNL     1     -10.298   2.422   2.439  1.00  0.00    -0.264 OA
ATOM     55  H   UNL     1     -11.238   2.211   2.264  1.00  0.00     0.236 HD
ENDBRANCH  51  54
ENDBRANCH  50  51
ENDBRANCH   8  50
TORSDOF 19
ENDMDL
MODEL 18
REMARK VINA RESULT:    -6.412     16.067     18.411
REMARK INTER + INTRA:         -17.211
REMARK INTER:                 -13.662
REMARK INTRA:                  -3.549
REMARK UNBOUND:                -4.239
REMARK SMILES CC[C@@H](C)[C@@H](NC(=O)[C@@H](O)Cc1ccc(O)c(Cl)c1)C(=O)N1[C@H](C(=O)NCCCCN=C(N)N)C[C@H]2CC[C@H](OS(=O)(=O)O)C[C@@H]21
REMARK SMILES IDX 22 1 36 2 46 3 35 4 23 5 45 6 37 7 39 8 38 9 20 10 21 11
REMARK SMILES IDX 5 12 6 13 7 14 8 15 9 17 11 18 12 19 17 20 19 21 15 22 14 23
REMARK SMILES IDX 13 24 18 25 16 26 10 28 3 30 4 31 2 32 1 33 24 34 25 35
REMARK SMILES IDX 26 36 27 38 28 39 29 40 30 41 31 42 32 43 33 44 34 45 40 50
REMARK SMILES IDX 41 51 42 52 43 53 44 54
REMARK H PARENT 6 16 16 27 10 29 26 37 33 46 33 47 34 48 34 49 44 55
ROOT
ATOM      1  N   UNL     1       3.282   3.248  -1.985  1.00  0.00    -0.326 N 
ATOM      2  C   UNL     1       5.466   4.053  -2.343  1.00  0.00     0.014 C 
ATOM      3  C   UNL     1       4.667   2.776  -2.067  1.00  0.00     0.091 C 
ATOM      4  C   UNL     1       4.697   5.104  -1.558  1.00  0.00     0.041 C 
ATOM      5  C   UNL     1       3.254   4.731  -1.944  1.00  0.00     0.175 C 
ATOM      6  C   UNL     1       5.018   1.746  -3.139  1.00  0.00     0.059 C 
ATOM      7  C   UNL     1       6.940   3.843  -2.058  1.00  0.00     0.008 C 
ATOM      8  C   UNL     1       6.468   1.859  -3.659  1.00  0.00     0.143 C 
ATOM      9  C   UNL     1       7.412   2.481  -2.611  1.00  0.00     0.034 C 
ENDROOT
BRANCH   1  10
ATOM     10  C   UNL     1       2.117   2.544  -1.734  1.00  0.00     0.246 C 
ATOM     11  O   UNL     1       1.823   1.590  -2.462  1.00  0.00    -0.272 OA
BRANCH  10  12
ATOM     12  C   UNL     1       1.228   2.940  -0.520  1.00  0.00     0.174 C 
BRANCH  12  13
ATOM     13  N   UNL     1       1.715   2.280   0.691  1.00  0.00    -0.342 N 
ATOM     14  C   UNL     1       2.683   2.784   1.531  1.00  0.00     0.249 C 
ATOM     15  O   UNL     1       3.230   3.867   1.368  1.00  0.00    -0.272 OA
ATOM     16  H   UNL     1       1.469   1.310   0.870  1.00  0.00     0.164 HD
BRANCH  14  17
ATOM     17  C   UNL     1       2.992   1.844   2.715  1.00  0.00     0.207 C 
BRANCH  17  18
ATOM     18  C   UNL     1       2.378   2.392   4.008  1.00  0.00     0.077 C 
BRANCH  18  19
ATOM     19  C   UNL     1       0.873   2.248   4.020  1.00  0.00    -0.043 A 
ATOM     20  C   UNL     1      -1.334   3.251   4.114  1.00  0.00     0.083 A 
ATOM     21  C   UNL     1       0.053   3.387   4.053  1.00  0.00     0.028 A 
ATOM     22  C   UNL     1      -1.910   1.980   4.144  1.00  0.00     0.134 A 
ATOM     23  C   UNL     1      -1.110   0.844   4.112  1.00  0.00     0.048 A 
ATOM     24  C   UNL     1       0.279   0.977   4.053  1.00  0.00     0.008 A 
ATOM     25  Cl  UNL     1      -2.325   4.662   4.154  1.00  0.00    -0.080 Cl
BRANCH  22  26
ATOM     26  O   UNL     1      -3.264   1.796   4.214  1.00  0.00    -0.506 OA
ATOM     27  H   UNL     1      -3.430   0.854   4.025  1.00  0.00     0.293 HD
ENDBRANCH  22  26
ENDBRANCH  18  19
ENDBRANCH  17  18
BRANCH  17  28
ATOM     28  O   UNL     1       4.408   1.682   2.892  1.00  0.00    -0.383 OA
ATOM     29  H   UNL     1       4.715   2.481   3.377  1.00  0.00     0.211 HD
ENDBRANCH  17  28
ENDBRANCH  14  17
ENDBRANCH  12  13
BRANCH  12  30
ATOM     30  C   UNL     1      -0.282   2.677  -0.771  1.00  0.00     0.018 C 
ATOM     31  C   UNL     1      -1.146   3.711  -0.032  1.00  0.00     0.010 C 
BRANCH  30  32
ATOM     32  C   UNL     1      -0.733   1.244  -0.401  1.00  0.00     0.002 C 
ATOM     33  C   UNL     1      -1.942   1.159   0.522  1.00  0.00     0.004 C 
ENDBRANCH  30  32
ENDBRANCH  12  30
ENDBRANCH  10  12
ENDBRANCH   1  10
BRANCH   5  34
ATOM     34  C   UNL     1       2.863   5.313  -3.329  1.00  0.00     0.242 C 
ATOM     35  O   UNL     1       2.597   4.594  -4.292  1.00  0.00    -0.273 OA
ATOM     36  N   UNL     1       2.889   6.687  -3.416  1.00  0.00    -0.354 N 
ATOM     37  H   UNL     1       3.234   7.223  -2.619  1.00  0.00     0.163 HD
BRANCH  36  38
ATOM     38  C   UNL     1       2.351   7.400  -4.556  1.00  0.00     0.116 C 
BRANCH  38  39
ATOM     39  C   UNL     1       3.426   8.303  -5.157  1.00  0.00     0.023 C 
BRANCH  39  40
ATOM     40  C   UNL     1       3.788   7.907  -6.584  1.00  0.00     0.026 C 
BRANCH  40  41
ATOM     41  C   UNL     1       4.350   6.486  -6.627  1.00  0.00     0.146 C 
BRANCH  41  42
ATOM     42  N   UNL     1       5.752   6.499  -6.231  1.00  0.00    -0.254 NA
ATOM     43  C   UNL     1       6.642   6.051  -7.035  1.00  0.00     0.185 C 
ATOM     44  N   UNL     1       6.510   5.532  -8.269  1.00  0.00    -0.370 N 
ATOM     45  N   UNL     1       7.928   6.068  -6.649  1.00  0.00    -0.370 N 
ATOM     46  H   UNL     1       7.255   4.998  -8.683  1.00  0.00     0.159 HD
ATOM     47  H   UNL     1       5.604   5.456  -8.721  1.00  0.00     0.159 HD
ATOM     48  H   UNL     1       8.116   6.452  -5.733  1.00  0.00     0.159 HD
ATOM     49  H   UNL     1       8.691   5.961  -7.294  1.00  0.00     0.159 HD
ENDBRANCH  41  42
ENDBRANCH  40  41
ENDBRANCH  39  40
ENDBRANCH  38  39
ENDBRANCH  36  38
ENDBRANCH   5  34
BRANCH   8  50
ATOM     50  O   UNL     1       6.504   2.665  -4.837  1.00  0.00    -0.245 OA
BRANCH  50  51
ATOM     51  S   UNL     1       5.822   2.115  -6.207  1.00  0.00     0.397 S 
ATOM     52  O   UNL     1       4.619   2.882  -6.446  1.00  0.00    -0.169 OA
ATOM     53  O   UNL     1       5.810   0.667  -6.198  1.00  0.00    -0.169 OA
BRANCH  51  54
ATOM     54  O   UNL     1       6.875   2.595  -7.323  1.00  0.00    -0.264 OA
ATOM     55  H   UNL     1       6.811   3.569  -7.395  1.00  0.00     0.236 HD
ENDBRANCH  51  54
ENDBRANCH  50  51
ENDBRANCH   8  50
TORSDOF 19
ENDMDL
MODEL 19
REMARK VINA RESULT:    -6.319      3.765      7.759
REMARK INTER + INTRA:         -17.024
REMARK INTER:                 -13.614
REMARK INTRA:                  -3.410
REMARK UNBOUND:                -4.239
REMARK SMILES CC[C@@H](C)[C@@H](NC(=O)[C@@H](O)Cc1ccc(O)c(Cl)c1)C(=O)N1[C@H](C(=O)NCCCCN=C(N)N)C[C@H]2CC[C@H](OS(=O)(=O)O)C[C@@H]21
REMARK SMILES IDX 22 1 36 2 46 3 35 4 23 5 45 6 37 7 39 8 38 9 20 10 21 11
REMARK SMILES IDX 5 12 6 13 7 14 8 15 9 17 11 18 12 19 17 20 19 21 15 22 14 23
REMARK SMILES IDX 13 24 18 25 16 26 10 28 3 30 4 31 2 32 1 33 24 34 25 35
REMARK SMILES IDX 26 36 27 38 28 39 29 40 30 41 31 42 32 43 33 44 34 45 40 50
REMARK SMILES IDX 41 51 42 52 43 53 44 54
REMARK H PARENT 6 16 16 27 10 29 26 37 33 46 33 47 34 48 34 49 44 55
ROOT
ATOM      1  N   UNL     1     -15.499   1.439  -9.357  1.00  0.00    -0.326 N 
ATOM      2  C   UNL     1     -13.792   2.119  -7.886  1.00  0.00     0.014 C 
ATOM      3  C   UNL     1     -14.046   1.627  -9.313  1.00  0.00     0.091 C 
ATOM      4  C   UNL     1     -14.837   1.363  -7.080  1.00  0.00     0.041 C 
ATOM      5  C   UNL     1     -16.066   1.545  -7.990  1.00  0.00     0.175 C 
ATOM      6  C   UNL     1     -13.416   2.622 -10.286  1.00  0.00     0.059 C 
ATOM      7  C   UNL     1     -12.327   1.981  -7.518  1.00  0.00     0.008 C 
ATOM      8  C   UNL     1     -12.147   3.310  -9.737  1.00  0.00     0.143 C 
ATOM      9  C   UNL     1     -11.428   2.442  -8.684  1.00  0.00     0.034 C 
ENDROOT
BRANCH   1  10
ATOM     10  C   UNL     1     -16.305   0.989 -10.388  1.00  0.00     0.246 C 
ATOM     11  O   UNL     1     -16.407  -0.227 -10.586  1.00  0.00    -0.272 OA
BRANCH  10  12
ATOM     12  C   UNL     1     -17.098   2.017 -11.247  1.00  0.00     0.174 C 
BRANCH  12  13
ATOM     13  N   UNL     1     -16.480   3.338 -11.139  1.00  0.00    -0.342 N 
ATOM     14  C   UNL     1     -16.032   4.090 -12.202  1.00  0.00     0.249 C 
ATOM     15  O   UNL     1     -16.130   3.742 -13.373  1.00  0.00    -0.272 OA
ATOM     16  H   UNL     1     -16.191   3.687 -10.229  1.00  0.00     0.164 HD
BRANCH  14  17
ATOM     17  C   UNL     1     -15.412   5.433 -11.762  1.00  0.00     0.207 C 
BRANCH  17  18
ATOM     18  C   UNL     1     -14.162   5.743 -12.593  1.00  0.00     0.077 C 
BRANCH  18  19
ATOM     19  C   UNL     1     -14.261   7.089 -13.276  1.00  0.00    -0.043 A 
ATOM     20  C   UNL     1     -13.275   9.226 -13.863  1.00  0.00     0.083 A 
ATOM     21  C   UNL     1     -13.164   7.965 -13.276  1.00  0.00     0.028 A 
ATOM     22  C   UNL     1     -14.477   9.619 -14.452  1.00  0.00     0.134 A 
ATOM     23  C   UNL     1     -15.571   8.761 -14.459  1.00  0.00     0.048 A 
ATOM     24  C   UNL     1     -15.464   7.499 -13.870  1.00  0.00     0.008 A 
ATOM     25  Cl  UNL     1     -11.916  10.289 -13.853  1.00  0.00    -0.080 Cl
BRANCH  22  26
ATOM     26  O   UNL     1     -14.636  10.849 -15.031  1.00  0.00    -0.506 OA
ATOM     27  H   UNL     1     -15.591  11.048 -15.009  1.00  0.00     0.293 HD
ENDBRANCH  22  26
ENDBRANCH  18  19
ENDBRANCH  17  18
BRANCH  17  28
ATOM     28  O   UNL     1     -15.064   5.410 -10.369  1.00  0.00    -0.383 OA
ATOM     29  H   UNL     1     -15.913   5.482  -9.876  1.00  0.00     0.211 HD
ENDBRANCH  17  28
ENDBRANCH  14  17
ENDBRANCH  12  13
BRANCH  12  30
ATOM     30  C   UNL     1     -18.612   2.042 -10.906  1.00  0.00     0.018 C 
ATOM     31  C   UNL     1     -19.096   3.482 -10.674  1.00  0.00     0.010 C 
BRANCH  30  32
ATOM     32  C   UNL     1     -18.992   1.152  -9.697  1.00  0.00     0.002 C 
ATOM     33  C   UNL     1     -20.204   1.618  -8.901  1.00  0.00     0.004 C 
ENDBRANCH  30  32
ENDBRANCH  12  30
ENDBRANCH  10  12
ENDBRANCH   1  10
BRANCH   5  34
ATOM     34  C   UNL     1     -16.735   2.930  -7.778  1.00  0.00     0.242 C 
ATOM     35  O   UNL     1     -16.402   3.926  -8.419  1.00  0.00    -0.273 OA
ATOM     36  N   UNL     1     -17.687   2.974  -6.785  1.00  0.00    -0.354 N 
ATOM     37  H   UNL     1     -17.834   2.145  -6.207  1.00  0.00     0.163 HD
BRANCH  36  38
ATOM     38  C   UNL     1     -18.557   4.117  -6.598  1.00  0.00     0.116 C 
BRANCH  38  39
ATOM     39  C   UNL     1     -19.703   3.749  -5.658  1.00  0.00     0.023 C 
BRANCH  39  40
ATOM     40  C   UNL     1     -19.800   2.246  -5.420  1.00  0.00     0.026 C 
BRANCH  40  41
ATOM     41  C   UNL     1     -19.641   1.921  -3.934  1.00  0.00     0.146 C 
BRANCH  41  42
ATOM     42  N   UNL     1     -19.918   3.109  -3.138  1.00  0.00    -0.254 NA
ATOM     43  C   UNL     1     -19.168   3.391  -2.139  1.00  0.00     0.185 C 
ATOM     44  N   UNL     1     -18.092   2.744  -1.656  1.00  0.00    -0.370 N 
ATOM     45  N   UNL     1     -19.443   4.488  -1.415  1.00  0.00    -0.370 N 
ATOM     46  H   UNL     1     -17.751   2.938  -0.730  1.00  0.00     0.159 HD
ATOM     47  H   UNL     1     -17.737   1.900  -2.093  1.00  0.00     0.159 HD
ATOM     48  H   UNL     1     -20.235   5.039  -1.718  1.00  0.00     0.159 HD
ATOM     49  H   UNL     1     -18.782   4.901  -0.781  1.00  0.00     0.159 HD
ENDBRANCH  41  42
ENDBRANCH  40  41
ENDBRANCH  39  40
ENDBRANCH  38  39
ENDBRANCH  36  38
ENDBRANCH   5  34
BRANCH   8  50
ATOM     50  O   UNL     1     -12.488   4.560  -9.138  1.00  0.00    -0.245 OA
BRANCH  50  51
ATOM     51  S   UNL     1     -11.627   5.889  -9.509  1.00  0.00     0.397 S 
ATOM     52  O   UNL     1     -10.562   6.017  -8.539  1.00  0.00    -0.169 OA
ATOM     53  O   UNL     1     -12.527   6.987  -9.797  1.00  0.00    -0.169 OA
BRANCH  51  54
ATOM     54  O   UNL     1     -10.916   5.456 -10.885  1.00  0.00    -0.264 OA
ATOM     55  H   UNL     1     -10.832   6.256 -11.442  1.00  0.00     0.236 HD
ENDBRANCH  51  54
ENDBRANCH  50  51
ENDBRANCH   8  50
TORSDOF 19
ENDMDL
MODEL 20
REMARK VINA RESULT:    -6.315      3.756      8.493
REMARK INTER + INTRA:         -17.015
REMARK INTER:                 -12.565
REMARK INTRA:                  -4.450
REMARK UNBOUND:                -4.239
REMARK SMILES CC[C@@H](C)[C@@H](NC(=O)[C@@H](O)Cc1ccc(O)c(Cl)c1)C(=O)N1[C@H](C(=O)NCCCCN=C(N)N)C[C@H]2CC[C@H](OS(=O)(=O)O)C[C@@H]21
REMARK SMILES IDX 22 1 36 2 46 3 35 4 23 5 45 6 37 7 39 8 38 9 20 10 21 11
REMARK SMILES IDX 5 12 6 13 7 14 8 15 9 17 11 18 12 19 17 20 19 21 15 22 14 23
REMARK SMILES IDX 13 24 18 25 16 26 10 28 3 30 4 31 2 32 1 33 24 34 25 35
REMARK SMILES IDX 26 36 27 38 28 39 29 40 30 41 31 42 32 43 33 44 34 45 40 50
REMARK SMILES IDX 41 51 42 52 43 53 44 54
REMARK H PARENT 6 16 16 27 10 29 26 37 33 46 33 47 34 48 34 49 44 55
ROOT
ATOM      1  N   UNL     1     -16.485   2.608 -10.173  1.00  0.00    -0.326 N 
ATOM      2  C   UNL     1     -18.721   2.473  -9.448  1.00  0.00     0.014 C 
ATOM      3  C   UNL     1     -17.348   1.813  -9.295  1.00  0.00     0.091 C 
ATOM      4  C   UNL     1     -18.722   2.909 -10.905  1.00  0.00     0.041 C 
ATOM      5  C   UNL     1     -17.310   3.516 -11.009  1.00  0.00     0.175 C 
ATOM      6  C   UNL     1     -17.005   1.751  -7.807  1.00  0.00     0.059 C 
ATOM      7  C   UNL     1     -19.821   1.559  -8.945  1.00  0.00     0.008 C 
ATOM      8  C   UNL     1     -18.238   1.588  -6.892  1.00  0.00     0.143 C 
ATOM      9  C   UNL     1     -19.409   0.892  -7.615  1.00  0.00     0.034 C 
ENDROOT
BRANCH   1  10
ATOM     10  C   UNL     1     -15.137   2.469 -10.457  1.00  0.00     0.246 C 
ATOM     11  O   UNL     1     -14.798   1.867 -11.481  1.00  0.00    -0.272 OA
BRANCH  10  12
ATOM     12  C   UNL     1     -14.084   3.109  -9.507  1.00  0.00     0.174 C 
BRANCH  12  13
ATOM     13  N   UNL     1     -13.184   3.973 -10.270  1.00  0.00    -0.342 N 
ATOM     14  C   UNL     1     -12.946   5.302  -9.999  1.00  0.00     0.249 C 
ATOM     15  O   UNL     1     -13.447   5.906  -9.059  1.00  0.00    -0.272 OA
ATOM     16  H   UNL     1     -12.821   3.657 -11.166  1.00  0.00     0.164 HD
BRANCH  14  17
ATOM     17  C   UNL     1     -11.960   5.947 -10.996  1.00  0.00     0.207 C 
BRANCH  17  18
ATOM     18  C   UNL     1     -12.464   5.776 -12.433  1.00  0.00     0.077 C 
BRANCH  18  19
ATOM     19  C   UNL     1     -13.164   7.019 -12.934  1.00  0.00    -0.043 A 
ATOM     20  C   UNL     1     -15.148   8.106 -13.808  1.00  0.00     0.083 A 
ATOM     21  C   UNL     1     -14.518   6.970 -13.299  1.00  0.00     0.028 A 
ATOM     22  C   UNL     1     -14.432   9.294 -13.957  1.00  0.00     0.134 A 
ATOM     23  C   UNL     1     -13.090   9.356 -13.599  1.00  0.00     0.048 A 
ATOM     24  C   UNL     1     -12.456   8.220 -13.091  1.00  0.00     0.008 A 
ATOM     25  Cl  UNL     1     -16.813   8.026 -14.252  1.00  0.00    -0.080 Cl
BRANCH  22  26
ATOM     26  O   UNL     1     -15.004  10.431 -14.461  1.00  0.00    -0.506 OA
ATOM     27  H   UNL     1     -15.967  10.280 -14.468  1.00  0.00     0.293 HD
ENDBRANCH  22  26
ENDBRANCH  18  19
ENDBRANCH  17  18
BRANCH  17  28
ATOM     28  O   UNL     1     -10.651   5.366 -10.877  1.00  0.00    -0.383 OA
ATOM     29  H   UNL     1     -10.300   5.299 -11.794  1.00  0.00     0.211 HD
ENDBRANCH  17  28
ENDBRANCH  14  17
ENDBRANCH  12  13
BRANCH  12  30
ATOM     30  C   UNL     1     -13.318   2.054  -8.664  1.00  0.00     0.018 C 
ATOM     31  C   UNL     1     -13.000   2.600  -7.263  1.00  0.00     0.010 C 
BRANCH  30  32
ATOM     32  C   UNL     1     -12.024   1.539  -9.340  1.00  0.00     0.002 C 
ATOM     33  C   UNL     1     -12.139   0.179 -10.016  1.00  0.00     0.004 C 
ENDBRANCH  30  32
ENDBRANCH  12  30
ENDBRANCH  10  12
ENDBRANCH   1  10
BRANCH   5  34
ATOM     34  C   UNL     1     -17.268   4.964 -10.454  1.00  0.00     0.242 C 
ATOM     35  O   UNL     1     -16.654   5.259  -9.429  1.00  0.00    -0.273 OA
ATOM     36  N   UNL     1     -18.011   5.884 -11.160  1.00  0.00    -0.354 N 
ATOM     37  H   UNL     1     -18.595   5.556 -11.930  1.00  0.00     0.163 HD
BRANCH  36  38
ATOM     38  C   UNL     1     -17.915   7.308 -10.915  1.00  0.00     0.116 C 
BRANCH  38  39
ATOM     39  C   UNL     1     -19.312   7.924 -10.883  1.00  0.00     0.023 C 
BRANCH  39  40
ATOM     40  C   UNL     1     -20.316   7.052 -10.137  1.00  0.00     0.026 C 
BRANCH  40  41
ATOM     41  C   UNL     1     -20.359   7.421  -8.654  1.00  0.00     0.146 C 
BRANCH  41  42
ATOM     42  N   UNL     1     -19.585   6.457  -7.883  1.00  0.00    -0.254 NA
ATOM     43  C   UNL     1     -18.503   6.828  -7.308  1.00  0.00     0.185 C 
ATOM     44  N   UNL     1     -17.907   8.034  -7.282  1.00  0.00    -0.370 N 
ATOM     45  N   UNL     1     -17.802   5.922  -6.606  1.00  0.00    -0.370 N 
ATOM     46  H   UNL     1     -16.945   8.124  -7.001  1.00  0.00     0.159 HD
ATOM     47  H   UNL     1     -18.311   8.838  -7.751  1.00  0.00     0.159 HD
ATOM     48  H   UNL     1     -18.188   4.988  -6.568  1.00  0.00     0.159 HD
ATOM     49  H   UNL     1     -17.091   6.179  -5.944  1.00  0.00     0.159 HD
ENDBRANCH  41  42
ENDBRANCH  40  41
ENDBRANCH  39  40
ENDBRANCH  38  39
ENDBRANCH  36  38
ENDBRANCH   5  34
BRANCH   8  50
ATOM     50  O   UNL     1     -18.682   2.866  -6.436  1.00  0.00    -0.245 OA
BRANCH  50  51
ATOM     51  S   UNL     1     -19.177   3.042  -4.897  1.00  0.00     0.397 S 
ATOM     52  O   UNL     1     -20.621   2.962  -4.880  1.00  0.00    -0.169 OA
ATOM     53  O   UNL     1     -18.471   4.147  -4.282  1.00  0.00    -0.169 OA
BRANCH  51  54
ATOM     54  O   UNL     1     -18.655   1.681  -4.219  1.00  0.00    -0.264 OA
ATOM     55  H   UNL     1     -18.656   0.985  -4.907  1.00  0.00     0.236 HD
ENDBRANCH  51  54
ENDBRANCH  50  51
ENDBRANCH   8  50
TORSDOF 19
ENDMDL
MODEL 21
REMARK VINA RESULT:    -6.285     13.039     18.139
REMARK INTER + INTRA:         -16.954
REMARK INTER:                 -14.683
REMARK INTRA:                  -2.271
REMARK UNBOUND:                -4.239
REMARK SMILES CC[C@@H](C)[C@@H](NC(=O)[C@@H](O)Cc1ccc(O)c(Cl)c1)C(=O)N1[C@H](C(=O)NCCCCN=C(N)N)C[C@H]2CC[C@H](OS(=O)(=O)O)C[C@@H]21
REMARK SMILES IDX 22 1 36 2 46 3 35 4 23 5 45 6 37 7 39 8 38 9 20 10 21 11
REMARK SMILES IDX 5 12 6 13 7 14 8 15 9 17 11 18 12 19 17 20 19 21 15 22 14 23
REMARK SMILES IDX 13 24 18 25 16 26 10 28 3 30 4 31 2 32 1 33 24 34 25 35
REMARK SMILES IDX 26 36 27 38 28 39 29 40 30 41 31 42 32 43 33 44 34 45 40 50
REMARK SMILES IDX 41 51 42 52 43 53 44 54
REMARK H PARENT 6 16 16 27 10 29 26 37 33 46 33 47 34 48 34 49 44 55
ROOT
ATOM      1  N   UNL     1      -2.147   2.979   3.033  1.00  0.00    -0.326 N 
ATOM      2  C   UNL     1      -3.765   1.548   2.096  1.00  0.00     0.014 C 
ATOM      3  C   UNL     1      -3.342   2.218   3.407  1.00  0.00     0.091 C 
ATOM      4  C   UNL     1      -2.432   1.260   1.422  1.00  0.00     0.041 C 
ATOM      5  C   UNL     1      -1.709   2.598   1.667  1.00  0.00     0.175 C 
ATOM      6  C   UNL     1      -4.541   2.981   3.967  1.00  0.00     0.059 C 
ATOM      7  C   UNL     1      -4.727   0.406   2.357  1.00  0.00     0.008 C 
ATOM      8  C   UNL     1      -5.902   2.331   3.635  1.00  0.00     0.143 C 
ATOM      9  C   UNL     1      -5.778   0.810   3.412  1.00  0.00     0.034 C 
ENDROOT
BRANCH   1  10
ATOM     10  C   UNL     1      -1.319   3.771   3.810  1.00  0.00     0.246 C 
ATOM     11  O   UNL     1      -1.538   4.985   3.877  1.00  0.00    -0.272 OA
BRANCH  10  12
ATOM     12  C   UNL     1      -0.162   3.112   4.615  1.00  0.00     0.174 C 
BRANCH  12  13
ATOM     13  N   UNL     1       0.978   2.861   3.734  1.00  0.00    -0.342 N 
ATOM     14  C   UNL     1       2.282   3.205   4.011  1.00  0.00     0.249 C 
ATOM     15  O   UNL     1       2.639   3.742   5.052  1.00  0.00    -0.272 OA
ATOM     16  H   UNL     1       0.818   2.566   2.774  1.00  0.00     0.164 HD
BRANCH  14  17
ATOM     17  C   UNL     1       3.254   2.822   2.875  1.00  0.00     0.207 C 
BRANCH  17  18
ATOM     18  C   UNL     1       2.489   2.615   1.563  1.00  0.00     0.077 C 
BRANCH  18  19
ATOM     19  C   UNL     1       3.381   2.804   0.357  1.00  0.00    -0.043 A 
ATOM     20  C   UNL     1       5.558   3.299  -0.592  1.00  0.00     0.083 A 
ATOM     21  C   UNL     1       4.748   3.076   0.522  1.00  0.00     0.028 A 
ATOM     22  C   UNL     1       5.010   3.253  -1.874  1.00  0.00     0.134 A 
ATOM     23  C   UNL     1       3.658   2.984  -2.052  1.00  0.00     0.048 A 
ATOM     24  C   UNL     1       2.844   2.763  -0.939  1.00  0.00     0.008 A 
ATOM     25  Cl  UNL     1       7.236   3.632  -0.368  1.00  0.00    -0.080 Cl
BRANCH  22  26
ATOM     26  O   UNL     1       5.763   3.475  -2.996  1.00  0.00    -0.506 OA
ATOM     27  H   UNL     1       5.256   4.092  -3.555  1.00  0.00     0.293 HD
ENDBRANCH  22  26
ENDBRANCH  18  19
ENDBRANCH  17  18
BRANCH  17  28
ATOM     28  O   UNL     1       3.980   1.625   3.196  1.00  0.00    -0.383 OA
ATOM     29  H   UNL     1       4.132   1.161   2.342  1.00  0.00     0.211 HD
ENDBRANCH  17  28
ENDBRANCH  14  17
ENDBRANCH  12  13
BRANCH  12  30
ATOM     30  C   UNL     1      -0.612   1.838   5.379  1.00  0.00     0.018 C 
ATOM     31  C   UNL     1      -0.512   2.047   6.898  1.00  0.00     0.010 C 
BRANCH  30  32
ATOM     32  C   UNL     1       0.159   0.560   4.966  1.00  0.00     0.002 C 
ATOM     33  C   UNL     1      -0.595  -0.386   4.042  1.00  0.00     0.004 C 
ENDBRANCH  30  32
ENDBRANCH  12  30
ENDBRANCH  10  12
ENDBRANCH   1  10
BRANCH   5  34
ATOM     34  C   UNL     1      -2.132   3.674   0.633  1.00  0.00     0.242 C 
ATOM     35  O   UNL     1      -1.566   3.803  -0.453  1.00  0.00    -0.273 OA
ATOM     36  N   UNL     1      -3.150   4.509   1.039  1.00  0.00    -0.354 N 
ATOM     37  H   UNL     1      -3.498   4.430   1.995  1.00  0.00     0.163 HD
BRANCH  36  38
ATOM     38  C   UNL     1      -3.811   5.421   0.129  1.00  0.00     0.116 C 
BRANCH  38  39
ATOM     39  C   UNL     1      -5.140   5.877   0.727  1.00  0.00     0.023 C 
BRANCH  39  40
ATOM     40  C   UNL     1      -6.211   6.101  -0.335  1.00  0.00     0.026 C 
BRANCH  40  41
ATOM     41  C   UNL     1      -6.269   7.572  -0.745  1.00  0.00     0.146 C 
BRANCH  41  42
ATOM     42  N   UNL     1      -5.154   7.881  -1.630  1.00  0.00    -0.254 NA
ATOM     43  C   UNL     1      -4.770   9.095  -1.765  1.00  0.00     0.185 C 
ATOM     44  N   UNL     1      -5.242  10.220  -1.197  1.00  0.00    -0.370 N 
ATOM     45  N   UNL     1      -3.743   9.359  -2.589  1.00  0.00    -0.370 N 
ATOM     46  H   UNL     1      -5.010  11.122  -1.577  1.00  0.00     0.159 HD
ATOM     47  H   UNL     1      -6.012  10.200  -0.535  1.00  0.00     0.159 HD
ATOM     48  H   UNL     1      -3.323   8.564  -3.051  1.00  0.00     0.159 HD
ATOM     49  H   UNL     1      -3.239  10.228  -2.568  1.00  0.00     0.159 HD
ENDBRANCH  41  42
ENDBRANCH  40  41
ENDBRANCH  39  40
ENDBRANCH  38  39
ENDBRANCH  36  38
ENDBRANCH   5  34
BRANCH   8  50
ATOM     50  O   UNL     1      -6.451   2.919   2.456  1.00  0.00    -0.245 OA
BRANCH  50  51
ATOM     51  S   UNL     1      -8.004   3.404   2.448  1.00  0.00     0.397 S 
ATOM     52  O   UNL     1      -8.025   4.837   2.639  1.00  0.00    -0.169 OA
ATOM     53  O   UNL     1      -8.794   2.516   3.275  1.00  0.00    -0.169 OA
BRANCH  51  54
ATOM     54  O   UNL     1      -8.424   3.160   0.915  1.00  0.00    -0.264 OA
ATOM     55  H   UNL     1      -7.605   2.994   0.404  1.00  0.00     0.236 HD
ENDBRANCH  51  54
ENDBRANCH  50  51
ENDBRANCH   8  50
TORSDOF 19
ENDMDL
MODEL 22
REMARK VINA RESULT:    -6.283      3.659      6.884
REMARK INTER + INTRA:         -16.949
REMARK INTER:                 -13.634
REMARK INTRA:                  -3.315
REMARK UNBOUND:                -4.239
REMARK SMILES CC[C@@H](C)[C@@H](NC(=O)[C@@H](O)Cc1ccc(O)c(Cl)c1)C(=O)N1[C@H](C(=O)NCCCCN=C(N)N)C[C@H]2CC[C@H](OS(=O)(=O)O)C[C@@H]21
REMARK SMILES IDX 22 1 36 2 46 3 35 4 23 5 45 6 37 7 39 8 38 9 20 10 21 11
REMARK SMILES IDX 5 12 6 13 7 14 8 15 9 17 11 18 12 19 17 20 19 21 15 22 14 23
REMARK SMILES IDX 13 24 18 25 16 26 10 28 3 30 4 31 2 32 1 33 24 34 25 35
REMARK SMILES IDX 26 36 27 38 28 39 29 40 30 41 31 42 32 43 33 44 34 45 40 50
REMARK SMILES IDX 41 51 42 52 43 53 44 54
REMARK H PARENT 6 16 16 27 10 29 26 37 33 46 33 47 34 48 34 49 44 55
ROOT
ATOM      1  N   UNL     1     -15.176   5.421 -11.414  1.00  0.00    -0.326 N 
ATOM      2  C   UNL     1     -15.074   6.916 -13.230  1.00  0.00     0.014 C 
ATOM      3  C   UNL     1     -15.897   6.561 -11.988  1.00  0.00     0.091 C 
ATOM      4  C   UNL     1     -14.586   5.557 -13.708  1.00  0.00     0.041 C 
ATOM      5  C   UNL     1     -14.147   4.938 -12.367  1.00  0.00     0.175 C 
ATOM      6  C   UNL     1     -16.056   7.820 -11.138  1.00  0.00     0.059 C 
ATOM      7  C   UNL     1     -15.870   7.794 -14.175  1.00  0.00     0.008 C 
ATOM      8  C   UNL     1     -16.106   9.124 -11.963  1.00  0.00     0.143 C 
ATOM      9  C   UNL     1     -16.631   8.885 -13.393  1.00  0.00     0.034 C 
ENDROOT
BRANCH   1  10
ATOM     10  C   UNL     1     -15.463   4.664 -10.291  1.00  0.00     0.246 C 
ATOM     11  O   UNL     1     -15.184   5.115  -9.175  1.00  0.00    -0.272 OA
BRANCH  10  12
ATOM     12  C   UNL     1     -16.167   3.286 -10.454  1.00  0.00     0.174 C 
BRANCH  12  13
ATOM     13  N   UNL     1     -17.515   3.344  -9.888  1.00  0.00    -0.342 N 
ATOM     14  C   UNL     1     -18.650   2.866 -10.502  1.00  0.00     0.249 C 
ATOM     15  O   UNL     1     -18.653   2.307 -11.592  1.00  0.00    -0.272 OA
ATOM     16  H   UNL     1     -17.691   3.916  -9.066  1.00  0.00     0.164 HD
BRANCH  14  17
ATOM     17  C   UNL     1     -19.923   3.091  -9.659  1.00  0.00     0.207 C 
BRANCH  17  18
ATOM     18  C   UNL     1     -20.345   1.790  -8.968  1.00  0.00     0.077 C 
BRANCH  18  19
ATOM     19  C   UNL     1     -19.781   1.689  -7.568  1.00  0.00    -0.043 A 
ATOM     20  C   UNL     1     -18.360   0.573  -5.949  1.00  0.00     0.083 A 
ATOM     21  C   UNL     1     -18.841   0.695  -7.253  1.00  0.00     0.028 A 
ATOM     22  C   UNL     1     -18.814   1.439  -4.954  1.00  0.00     0.134 A 
ATOM     23  C   UNL     1     -19.745   2.428  -5.252  1.00  0.00     0.048 A 
ATOM     24  C   UNL     1     -20.230   2.552  -6.556  1.00  0.00     0.008 A 
ATOM     25  Cl  UNL     1     -17.206  -0.654  -5.582  1.00  0.00    -0.080 Cl
BRANCH  22  26
ATOM     26  O   UNL     1     -18.380   1.352  -3.659  1.00  0.00    -0.506 OA
ATOM     27  H   UNL     1     -18.907   0.651  -3.233  1.00  0.00     0.293 HD
ENDBRANCH  22  26
ENDBRANCH  18  19
ENDBRANCH  17  18
BRANCH  17  28
ATOM     28  O   UNL     1     -21.005   3.571 -10.473  1.00  0.00    -0.383 OA
ATOM     29  H   UNL     1     -20.607   4.214 -11.103  1.00  0.00     0.211 HD
ENDBRANCH  17  28
ENDBRANCH  14  17
ENDBRANCH  12  13
BRANCH  12  30
ATOM     30  C   UNL     1     -15.331   2.113  -9.873  1.00  0.00     0.018 C 
ATOM     31  C   UNL     1     -15.299   0.929 -10.852  1.00  0.00     0.010 C 
BRANCH  30  32
ATOM     32  C   UNL     1     -15.810   1.638  -8.480  1.00  0.00     0.002 C 
ATOM     33  C   UNL     1     -15.146   2.325  -7.294  1.00  0.00     0.004 C 
ENDBRANCH  30  32
ENDBRANCH  12  30
ENDBRANCH  10  12
ENDBRANCH   1  10
BRANCH   5  34
ATOM     34  C   UNL     1     -12.735   5.428 -11.947  1.00  0.00     0.242 C 
ATOM     35  O   UNL     1     -11.974   5.994 -12.731  1.00  0.00    -0.273 OA
ATOM     36  N   UNL     1     -12.376   5.135 -10.650  1.00  0.00    -0.354 N 
ATOM     37  H   UNL     1     -13.001   4.558 -10.085  1.00  0.00     0.163 HD
BRANCH  36  38
ATOM     38  C   UNL     1     -11.196   5.698 -10.028  1.00  0.00     0.116 C 
BRANCH  38  39
ATOM     39  C   UNL     1     -11.311   5.597  -8.509  1.00  0.00     0.023 C 
BRANCH  39  40
ATOM     40  C   UNL     1     -11.965   4.294  -8.060  1.00  0.00     0.026 C 
BRANCH  40  41
ATOM     41  C   UNL     1     -10.981   3.129  -8.168  1.00  0.00     0.146 C 
BRANCH  41  42
ATOM     42  N   UNL     1     -11.561   2.070  -8.984  1.00  0.00    -0.254 NA
ATOM     43  C   UNL     1     -11.934   0.977  -8.431  1.00  0.00     0.185 C 
ATOM     44  N   UNL     1     -11.886   0.601  -7.140  1.00  0.00    -0.370 N 
ATOM     45  N   UNL     1     -12.461   0.011  -9.200  1.00  0.00    -0.370 N 
ATOM     46  H   UNL     1     -11.984  -0.367  -6.884  1.00  0.00     0.159 HD
ATOM     47  H   UNL     1     -11.528   1.217  -6.417  1.00  0.00     0.159 HD
ATOM     48  H   UNL     1     -12.541   0.218 -10.187  1.00  0.00     0.159 HD
ATOM     49  H   UNL     1     -12.985  -0.759  -8.824  1.00  0.00     0.159 HD
ENDBRANCH  41  42
ENDBRANCH  40  41
ENDBRANCH  39  40
ENDBRANCH  38  39
ENDBRANCH  36  38
ENDBRANCH   5  34
BRANCH   8  50
ATOM     50  O   UNL     1     -14.803   9.701 -12.048  1.00  0.00    -0.245 OA
BRANCH  50  51
ATOM     51  S   UNL     1     -14.616  11.302 -11.827  1.00  0.00     0.397 S 
ATOM     52  O   UNL     1     -14.539  11.550 -10.405  1.00  0.00    -0.169 OA
ATOM     53  O   UNL     1     -15.546  12.020 -12.674  1.00  0.00    -0.169 OA
BRANCH  51  54
ATOM     54  O   UNL     1     -13.133  11.549 -12.397  1.00  0.00    -0.264 OA
ATOM     55  H   UNL     1     -12.499  11.318 -11.688  1.00  0.00     0.236 HD
ENDBRANCH  51  54
ENDBRANCH  50  51
ENDBRANCH   8  50
TORSDOF 19
ENDMDL
MODEL 23
REMARK VINA RESULT:    -6.269     13.709     18.413
REMARK INTER + INTRA:         -16.922
REMARK INTER:                 -14.013
REMARK INTRA:                  -2.910
REMARK UNBOUND:                -4.239
REMARK SMILES CC[C@@H](C)[C@@H](NC(=O)[C@@H](O)Cc1ccc(O)c(Cl)c1)C(=O)N1[C@H](C(=O)NCCCCN=C(N)N)C[C@H]2CC[C@H](OS(=O)(=O)O)C[C@@H]21
REMARK SMILES IDX 22 1 36 2 46 3 35 4 23 5 45 6 37 7 39 8 38 9 20 10 21 11
REMARK SMILES IDX 5 12 6 13 7 14 8 15 9 17 11 18 12 19 17 20 19 21 15 22 14 23
REMARK SMILES IDX 13 24 18 25 16 26 10 28 3 30 4 31 2 32 1 33 24 34 25 35
REMARK SMILES IDX 26 36 27 38 28 39 29 40 30 41 31 42 32 43 33 44 34 45 40 50
REMARK SMILES IDX 41 51 42 52 43 53 44 54
REMARK H PARENT 6 16 16 27 10 29 26 37 33 46 33 47 34 48 34 49 44 55
ROOT
ATOM      1  N   UNL     1      -2.773   3.078   0.575  1.00  0.00    -0.326 N 
ATOM      2  C   UNL     1      -4.579   4.420   1.271  1.00  0.00     0.014 C 
ATOM      3  C   UNL     1      -4.238   3.078   0.615  1.00  0.00     0.091 C 
ATOM      4  C   UNL     1      -3.482   5.336   0.748  1.00  0.00     0.041 C 
ATOM      5  C   UNL     1      -2.256   4.423   0.929  1.00  0.00     0.175 C 
ATOM      6  C   UNL     1      -4.942   1.968   1.393  1.00  0.00     0.059 C 
ATOM      7  C   UNL     1      -6.030   4.787   1.033  1.00  0.00     0.008 C 
ATOM      8  C   UNL     1      -6.288   2.401   2.014  1.00  0.00     0.143 C 
ATOM      9  C   UNL     1      -6.942   3.557   1.230  1.00  0.00     0.034 C 
ENDROOT
BRANCH   1  10
ATOM     10  C   UNL     1      -1.899   2.129   0.073  1.00  0.00     0.246 C 
ATOM     11  O   UNL     1      -1.364   1.333   0.852  1.00  0.00    -0.272 OA
BRANCH  10  12
ATOM     12  C   UNL     1      -1.642   2.058  -1.460  1.00  0.00     0.174 C 
BRANCH  12  13
ATOM     13  N   UNL     1      -0.341   2.646  -1.776  1.00  0.00    -0.342 N 
ATOM     14  C   UNL     1       0.685   1.993  -2.422  1.00  0.00     0.249 C 
ATOM     15  O   UNL     1       0.609   0.842  -2.833  1.00  0.00    -0.272 OA
ATOM     16  H   UNL     1      -0.077   3.536  -1.361  1.00  0.00     0.164 HD
BRANCH  14  17
ATOM     17  C   UNL     1       1.939   2.877  -2.593  1.00  0.00     0.207 C 
BRANCH  17  18
ATOM     18  C   UNL     1       2.765   2.890  -1.303  1.00  0.00     0.077 C 
BRANCH  18  19
ATOM     19  C   UNL     1       4.244   2.751  -1.582  1.00  0.00    -0.043 A 
ATOM     20  C   UNL     1       6.550   3.189  -0.968  1.00  0.00     0.083 A 
ATOM     21  C   UNL     1       5.187   3.275  -0.683  1.00  0.00     0.028 A 
ATOM     22  C   UNL     1       6.980   2.581  -2.148  1.00  0.00     0.134 A 
ATOM     23  C   UNL     1       6.057   2.057  -3.046  1.00  0.00     0.048 A 
ATOM     24  C   UNL     1       4.692   2.144  -2.765  1.00  0.00     0.008 A 
ATOM     25  Cl  UNL     1       7.693   3.840   0.147  1.00  0.00    -0.080 Cl
BRANCH  22  26
ATOM     26  O   UNL     1       8.305   2.482  -2.476  1.00  0.00    -0.506 OA
ATOM     27  H   UNL     1       8.742   2.019  -1.737  1.00  0.00     0.293 HD
ENDBRANCH  22  26
ENDBRANCH  18  19
ENDBRANCH  17  18
BRANCH  17  28
ATOM     28  O   UNL     1       1.579   4.224  -2.942  1.00  0.00    -0.383 OA
ATOM     29  H   UNL     1       2.296   4.797  -2.588  1.00  0.00     0.211 HD
ENDBRANCH  17  28
ENDBRANCH  14  17
ENDBRANCH  12  13
BRANCH  12  30
ATOM     30  C   UNL     1      -2.794   2.686  -2.291  1.00  0.00     0.018 C 
ATOM     31  C   UNL     1      -3.116   1.820  -3.519  1.00  0.00     0.010 C 
BRANCH  30  32
ATOM     32  C   UNL     1      -2.521   4.146  -2.726  1.00  0.00     0.002 C 
ATOM     33  C   UNL     1      -2.426   4.371  -4.229  1.00  0.00     0.004 C 
ENDBRANCH  30  32
ENDBRANCH  12  30
ENDBRANCH  10  12
ENDBRANCH   1  10
BRANCH   5  34
ATOM     34  C   UNL     1      -1.738   4.445   2.392  1.00  0.00     0.242 C 
ATOM     35  O   UNL     1      -2.100   5.295   3.206  1.00  0.00    -0.273 OA
ATOM     36  N   UNL     1      -0.804   3.480   2.698  1.00  0.00    -0.354 N 
ATOM     37  H   UNL     1      -0.455   2.880   1.950  1.00  0.00     0.163 HD
BRANCH  36  38
ATOM     38  C   UNL     1      -0.378   3.219   4.057  1.00  0.00     0.116 C 
BRANCH  38  39
ATOM     39  C   UNL     1       0.628   2.072   4.074  1.00  0.00     0.023 C 
BRANCH  39  40
ATOM     40  C   UNL     1       0.537   1.234   5.345  1.00  0.00     0.026 C 
BRANCH  40  41
ATOM     41  C   UNL     1       0.118  -0.200   5.021  1.00  0.00     0.146 C 
BRANCH  41  42
ATOM     42  N   UNL     1       0.040  -0.375   3.576  1.00  0.00    -0.254 NA
ATOM     43  C   UNL     1      -0.498  -1.432   3.095  1.00  0.00     0.185 C 
ATOM     44  N   UNL     1      -1.047  -2.488   3.724  1.00  0.00    -0.370 N 
ATOM     45  N   UNL     1      -0.555  -1.577   1.761  1.00  0.00    -0.370 N 
ATOM     46  H   UNL     1      -1.208  -3.350   3.233  1.00  0.00     0.159 HD
ATOM     47  H   UNL     1      -1.099  -2.536   4.737  1.00  0.00     0.159 HD
ATOM     48  H   UNL     1      -0.171  -0.821   1.211  1.00  0.00     0.159 HD
ATOM     49  H   UNL     1      -1.159  -2.243   1.312  1.00  0.00     0.159 HD
ENDBRANCH  41  42
ENDBRANCH  40  41
ENDBRANCH  39  40
ENDBRANCH  38  39
ENDBRANCH  36  38
ENDBRANCH   5  34
BRANCH   8  50
ATOM     50  O   UNL     1      -6.092   2.822   3.364  1.00  0.00    -0.245 OA
BRANCH  50  51
ATOM     51  S   UNL     1      -6.718   1.940   4.579  1.00  0.00     0.397 S 
ATOM     52  O   UNL     1      -6.780   0.562   4.144  1.00  0.00    -0.169 OA
ATOM     53  O   UNL     1      -7.877   2.616   5.124  1.00  0.00    -0.169 OA
BRANCH  51  54
ATOM     54  O   UNL     1      -5.546   2.001   5.677  1.00  0.00    -0.264 OA
ATOM     55  H   UNL     1      -4.768   2.424   5.260  1.00  0.00     0.236 HD
ENDBRANCH  51  54
ENDBRANCH  50  51
ENDBRANCH   8  50
TORSDOF 19
ENDMDL
MODEL 24
REMARK VINA RESULT:    -6.263     13.298     18.392
REMARK INTER + INTRA:         -16.909
REMARK INTER:                 -13.680
REMARK INTRA:                  -3.229
REMARK UNBOUND:                -4.239
REMARK SMILES CC[C@@H](C)[C@@H](NC(=O)[C@@H](O)Cc1ccc(O)c(Cl)c1)C(=O)N1[C@H](C(=O)NCCCCN=C(N)N)C[C@H]2CC[C@H](OS(=O)(=O)O)C[C@@H]21
REMARK SMILES IDX 22 1 36 2 46 3 35 4 23 5 45 6 37 7 39 8 38 9 20 10 21 11
REMARK SMILES IDX 5 12 6 13 7 14 8 15 9 17 11 18 12 19 17 20 19 21 15 22 14 23
REMARK SMILES IDX 13 24 18 25 16 26 10 28 3 30 4 31 2 32 1 33 24 34 25 35
REMARK SMILES IDX 26 36 27 38 28 39 29 40 30 41 31 42 32 43 33 44 34 45 40 50
REMARK SMILES IDX 41 51 42 52 43 53 44 54
REMARK H PARENT 6 16 16 27 10 29 26 37 33 46 33 47 34 48 34 49 44 55
ROOT
ATOM      1  N   UNL     1      -1.816   0.912   2.299  1.00  0.00    -0.326 N 
ATOM      2  C   UNL     1      -4.127   1.356   2.381  1.00  0.00     0.014 C 
ATOM      3  C   UNL     1      -2.891   1.160   3.264  1.00  0.00     0.091 C 
ATOM      4  C   UNL     1      -3.869   0.397   1.228  1.00  0.00     0.041 C 
ATOM      5  C   UNL     1      -2.387   0.703   0.946  1.00  0.00     0.175 C 
ATOM      6  C   UNL     1      -2.766   2.366   4.194  1.00  0.00     0.059 C 
ATOM      7  C   UNL     1      -5.400   1.218   3.192  1.00  0.00     0.008 C 
ATOM      8  C   UNL     1      -4.123   2.986   4.592  1.00  0.00     0.143 C 
ATOM      9  C   UNL     1      -5.269   1.956   4.541  1.00  0.00     0.034 C 
ENDROOT
BRANCH   1  10
ATOM     10  C   UNL     1      -0.474   0.647   2.514  1.00  0.00     0.246 C 
ATOM     11  O   UNL     1      -0.078  -0.523   2.471  1.00  0.00    -0.272 OA
BRANCH  10  12
ATOM     12  C   UNL     1       0.510   1.826   2.762  1.00  0.00     0.174 C 
BRANCH  12  13
ATOM     13  N   UNL     1       1.318   2.061   1.566  1.00  0.00    -0.342 N 
ATOM     14  C   UNL     1       1.138   3.102   0.682  1.00  0.00     0.249 C 
ATOM     15  O   UNL     1       0.287   3.972   0.818  1.00  0.00    -0.272 OA
ATOM     16  H   UNL     1       1.956   1.340   1.239  1.00  0.00     0.164 HD
BRANCH  14  17
ATOM     17  C   UNL     1       2.140   3.067  -0.492  1.00  0.00     0.207 C 
BRANCH  17  18
ATOM     18  C   UNL     1       3.013   4.325  -0.488  1.00  0.00     0.077 C 
BRANCH  18  19
ATOM     19  C   UNL     1       4.402   4.047  -1.017  1.00  0.00    -0.043 A 
ATOM     20  C   UNL     1       5.975   3.978  -2.863  1.00  0.00     0.083 A 
ATOM     21  C   UNL     1       4.707   4.283  -2.367  1.00  0.00     0.028 A 
ATOM     22  C   UNL     1       6.943   3.436  -2.018  1.00  0.00     0.134 A 
ATOM     23  C   UNL     1       6.655   3.197  -0.679  1.00  0.00     0.048 A 
ATOM     24  C   UNL     1       5.386   3.499  -0.180  1.00  0.00     0.008 A 
ATOM     25  Cl  UNL     1       6.330   4.276  -4.524  1.00  0.00    -0.080 Cl
BRANCH  22  26
ATOM     26  O   UNL     1       8.197   3.111  -2.461  1.00  0.00    -0.506 OA
ATOM     27  H   UNL     1       8.173   2.167  -2.702  1.00  0.00     0.293 HD
ENDBRANCH  22  26
ENDBRANCH  18  19
ENDBRANCH  17  18
BRANCH  17  28
ATOM     28  O   UNL     1       1.456   2.964  -1.751  1.00  0.00    -0.383 OA
ATOM     29  H   UNL     1       1.917   2.254  -2.253  1.00  0.00     0.211 HD
ENDBRANCH  17  28
ENDBRANCH  14  17
ENDBRANCH  12  13
BRANCH  12  30
ATOM     30  C   UNL     1       1.379   1.626   4.033  1.00  0.00     0.018 C 
ATOM     31  C   UNL     1       0.564   1.917   5.303  1.00  0.00     0.010 C 
BRANCH  30  32
ATOM     32  C   UNL     1       2.682   2.461   4.033  1.00  0.00     0.002 C 
ATOM     33  C   UNL     1       2.679   3.672   4.957  1.00  0.00     0.004 C 
ENDBRANCH  30  32
ENDBRANCH  12  30
ENDBRANCH  10  12
ENDBRANCH   1  10
BRANCH   5  34
ATOM     34  C   UNL     1      -2.221   1.978   0.076  1.00  0.00     0.242 C 
ATOM     35  O   UNL     1      -1.571   1.982  -0.969  1.00  0.00    -0.273 OA
ATOM     36  N   UNL     1      -2.808   3.115   0.585  1.00  0.00    -0.354 N 
ATOM     37  H   UNL     1      -3.231   3.076   1.514  1.00  0.00     0.163 HD
BRANCH  36  38
ATOM     38  C   UNL     1      -2.937   4.332  -0.189  1.00  0.00     0.116 C 
BRANCH  38  39
ATOM     39  C   UNL     1      -4.099   5.166   0.346  1.00  0.00     0.023 C 
BRANCH  39  40
ATOM     40  C   UNL     1      -5.449   4.491   0.128  1.00  0.00     0.026 C 
BRANCH  40  41
ATOM     41  C   UNL     1      -6.545   5.533  -0.099  1.00  0.00     0.146 C 
BRANCH  41  42
ATOM     42  N   UNL     1      -6.371   6.641   0.830  1.00  0.00    -0.254 NA
ATOM     43  C   UNL     1      -7.384   7.344   1.175  1.00  0.00     0.185 C 
ATOM     44  N   UNL     1      -8.675   7.238   0.811  1.00  0.00    -0.370 N 
ATOM     45  N   UNL     1      -7.201   8.364   2.029  1.00  0.00    -0.370 N 
ATOM     46  H   UNL     1      -9.315   7.998   0.963  1.00  0.00     0.159 HD
ATOM     47  H   UNL     1      -8.992   6.509   0.179  1.00  0.00     0.159 HD
ATOM     48  H   UNL     1      -6.257   8.509   2.360  1.00  0.00     0.159 HD
ATOM     49  H   UNL     1      -7.958   8.802   2.523  1.00  0.00     0.159 HD
ENDBRANCH  41  42
ENDBRANCH  40  41
ENDBRANCH  39  40
ENDBRANCH  38  39
ENDBRANCH  36  38
ENDBRANCH   5  34
BRANCH   8  50
ATOM     50  O   UNL     1      -4.444   4.066   3.715  1.00  0.00    -0.245 OA
BRANCH  50  51
ATOM     51  S   UNL     1      -5.588   5.139   4.148  1.00  0.00     0.397 S 
ATOM     52  O   UNL     1      -5.507   5.324   5.579  1.00  0.00    -0.169 OA
ATOM     53  O   UNL     1      -6.837   4.808   3.493  1.00  0.00    -0.169 OA
BRANCH  51  54
ATOM     54  O   UNL     1      -5.033   6.501   3.498  1.00  0.00    -0.264 OA
ATOM     55  H   UNL     1      -5.432   6.591   2.608  1.00  0.00     0.236 HD
ENDBRANCH  51  54
ENDBRANCH  50  51
ENDBRANCH   8  50
TORSDOF 19
ENDMDL
MODEL 25
REMARK VINA RESULT:    -6.218      3.979      7.589
REMARK INTER + INTRA:         -16.819
REMARK INTER:                 -12.876
REMARK INTRA:                  -3.943
REMARK UNBOUND:                -4.239
REMARK SMILES CC[C@@H](C)[C@@H](NC(=O)[C@@H](O)Cc1ccc(O)c(Cl)c1)C(=O)N1[C@H](C(=O)NCCCCN=C(N)N)C[C@H]2CC[C@H](OS(=O)(=O)O)C[C@@H]21
REMARK SMILES IDX 22 1 36 2 46 3 35 4 23 5 45 6 37 7 39 8 38 9 20 10 21 11
REMARK SMILES IDX 5 12 6 13 7 14 8 15 9 17 11 18 12 19 17 20 19 21 15 22 14 23
REMARK SMILES IDX 13 24 18 25 16 26 10 28 3 30 4 31 2 32 1 33 24 34 25 35
REMARK SMILES IDX 26 36 27 38 28 39 29 40 30 41 31 42 32 43 33 44 34 45 40 50
REMARK SMILES IDX 41 51 42 52 43 53 44 54
REMARK H PARENT 6 16 16 27 10 29 26 37 33 46 33 47 34 48 34 49 44 55
ROOT
ATOM      1  N   UNL     1     -14.692   2.155  -9.093  1.00  0.00    -0.326 N 
ATOM      2  C   UNL     1     -13.165   3.274  -7.693  1.00  0.00     0.014 C 
ATOM      3  C   UNL     1     -13.329   2.694  -9.101  1.00  0.00     0.091 C 
ATOM      4  C   UNL     1     -13.972   2.309  -6.838  1.00  0.00     0.041 C 
ATOM      5  C   UNL     1     -15.232   2.160  -7.711  1.00  0.00     0.175 C 
ATOM      6  C   UNL     1     -12.987   3.784 -10.115  1.00  0.00     0.059 C 
ATOM      7  C   UNL     1     -11.702   3.508  -7.371  1.00  0.00     0.008 C 
ATOM      8  C   UNL     1     -11.911   4.776  -9.622  1.00  0.00     0.143 C 
ATOM      9  C   UNL     1     -10.973   4.140  -8.575  1.00  0.00     0.034 C 
ENDROOT
BRANCH   1  10
ATOM     10  C   UNL     1     -15.391   1.493 -10.088  1.00  0.00     0.246 C 
ATOM     11  O   UNL     1     -15.147   0.301 -10.302  1.00  0.00    -0.272 OA
BRANCH  10  12
ATOM     12  C   UNL     1     -16.494   2.249 -10.883  1.00  0.00     0.174 C 
BRANCH  12  13
ATOM     13  N   UNL     1     -16.160   3.670 -10.972  1.00  0.00    -0.342 N 
ATOM     14  C   UNL     1     -15.985   4.369 -12.146  1.00  0.00     0.249 C 
ATOM     15  O   UNL     1     -16.119   3.876 -13.259  1.00  0.00    -0.272 OA
ATOM     16  H   UNL     1     -15.866   4.171 -10.138  1.00  0.00     0.164 HD
BRANCH  14  17
ATOM     17  C   UNL     1     -15.621   5.850 -11.908  1.00  0.00     0.207 C 
BRANCH  17  18
ATOM     18  C   UNL     1     -14.362   6.225 -12.696  1.00  0.00     0.077 C 
BRANCH  18  19
ATOM     19  C   UNL     1     -14.551   7.502 -13.483  1.00  0.00    -0.043 A 
ATOM     20  C   UNL     1     -13.698   9.632 -14.271  1.00  0.00     0.083 A 
ATOM     21  C   UNL     1     -13.504   8.432 -13.586  1.00  0.00     0.028 A 
ATOM     22  C   UNL     1     -14.934   9.912 -14.854  1.00  0.00     0.134 A 
ATOM     23  C   UNL     1     -15.979   9.000 -14.759  1.00  0.00     0.048 A 
ATOM     24  C   UNL     1     -15.789   7.799 -14.073  1.00  0.00     0.008 A 
ATOM     25  Cl  UNL     1     -12.400  10.762 -14.387  1.00  0.00    -0.080 Cl
BRANCH  22  26
ATOM     26  O   UNL     1     -15.175  11.079 -15.526  1.00  0.00    -0.506 OA
ATOM     27  H   UNL     1     -15.073  10.882 -16.476  1.00  0.00     0.293 HD
ENDBRANCH  22  26
ENDBRANCH  18  19
ENDBRANCH  17  18
BRANCH  17  28
ATOM     28  O   UNL     1     -15.406   6.112 -10.512  1.00  0.00    -0.383 OA
ATOM     29  H   UNL     1     -14.473   5.859 -10.328  1.00  0.00     0.211 HD
ENDBRANCH  17  28
ENDBRANCH  14  17
ENDBRANCH  12  13
BRANCH  12  30
ATOM     30  C   UNL     1     -17.917   2.010 -10.310  1.00  0.00     0.018 C 
ATOM     31  C   UNL     1     -18.261   0.512 -10.308  1.00  0.00     0.010 C 
BRANCH  30  32
ATOM     32  C   UNL     1     -19.024   2.808 -11.042  1.00  0.00     0.002 C 
ATOM     33  C   UNL     1     -19.656   3.934 -10.234  1.00  0.00     0.004 C 
ENDBRANCH  30  32
ENDBRANCH  12  30
ENDBRANCH  10  12
ENDBRANCH   1  10
BRANCH   5  34
ATOM     34  C   UNL     1     -16.213   3.345  -7.507  1.00  0.00     0.242 C 
ATOM     35  O   UNL     1     -16.193   4.346  -8.223  1.00  0.00    -0.273 OA
ATOM     36  N   UNL     1     -17.068   3.220  -6.435  1.00  0.00    -0.354 N 
ATOM     37  H   UNL     1     -16.955   2.423  -5.807  1.00  0.00     0.163 HD
BRANCH  36  38
ATOM     38  C   UNL     1     -18.183   4.120  -6.226  1.00  0.00     0.116 C 
BRANCH  38  39
ATOM     39  C   UNL     1     -19.207   3.470  -5.298  1.00  0.00     0.023 C 
BRANCH  39  40
ATOM     40  C   UNL     1     -18.552   2.653  -4.190  1.00  0.00     0.026 C 
BRANCH  40  41
ATOM     41  C   UNL     1     -19.083   1.219  -4.188  1.00  0.00     0.146 C 
BRANCH  41  42
ATOM     42  N   UNL     1     -17.991   0.290  -4.450  1.00  0.00    -0.254 NA
ATOM     43  C   UNL     1     -17.811  -0.157  -5.636  1.00  0.00     0.185 C 
ATOM     44  N   UNL     1     -18.493   0.095  -6.769  1.00  0.00    -0.370 N 
ATOM     45  N   UNL     1     -16.802  -1.016  -5.856  1.00  0.00    -0.370 N 
ATOM     46  H   UNL     1     -18.397  -0.507  -7.569  1.00  0.00     0.159 HD
ATOM     47  H   UNL     1     -19.281   0.735  -6.785  1.00  0.00     0.159 HD
ATOM     48  H   UNL     1     -16.232  -1.252  -5.056  1.00  0.00     0.159 HD
ATOM     49  H   UNL     1     -16.453  -1.220  -6.775  1.00  0.00     0.159 HD
ENDBRANCH  41  42
ENDBRANCH  40  41
ENDBRANCH  39  40
ENDBRANCH  38  39
ENDBRANCH  36  38
ENDBRANCH   5  34
BRANCH   8  50
ATOM     50  O   UNL     1     -12.531   5.922  -9.039  1.00  0.00    -0.245 OA
BRANCH  50  51
ATOM     51  S   UNL     1     -12.098   7.409  -9.536  1.00  0.00     0.397 S 
ATOM     52  O   UNL     1     -11.173   7.952  -8.566  1.00  0.00    -0.169 OA
ATOM     53  O   UNL     1     -13.273   8.142  -9.958  1.00  0.00    -0.169 OA
BRANCH  51  54
ATOM     54  O   UNL     1     -11.220   7.084 -10.844  1.00  0.00    -0.264 OA
ATOM     55  H   UNL     1     -11.806   7.162 -11.624  1.00  0.00     0.236 HD
ENDBRANCH  51  54
ENDBRANCH  50  51
ENDBRANCH   8  50
TORSDOF 19
ENDMDL
MODEL 26
REMARK VINA RESULT:    -6.205     14.732     18.297
REMARK INTER + INTRA:         -16.793
REMARK INTER:                 -13.053
REMARK INTRA:                  -3.740
REMARK UNBOUND:                -4.239
REMARK SMILES CC[C@@H](C)[C@@H](NC(=O)[C@@H](O)Cc1ccc(O)c(Cl)c1)C(=O)N1[C@H](C(=O)NCCCCN=C(N)N)C[C@H]2CC[C@H](OS(=O)(=O)O)C[C@@H]21
REMARK SMILES IDX 22 1 36 2 46 3 35 4 23 5 45 6 37 7 39 8 38 9 20 10 21 11
REMARK SMILES IDX 5 12 6 13 7 14 8 15 9 17 11 18 12 19 17 20 19 21 15 22 14 23
REMARK SMILES IDX 13 24 18 25 16 26 10 28 3 30 4 31 2 32 1 33 24 34 25 35
REMARK SMILES IDX 26 36 27 38 28 39 29 40 30 41 31 42 32 43 33 44 34 45 40 50
REMARK SMILES IDX 41 51 42 52 43 53 44 54
REMARK H PARENT 6 16 16 27 10 29 26 37 33 46 33 47 34 48 34 49 44 55
ROOT
ATOM      1  N   UNL     1      -3.866   3.750   3.533  1.00  0.00    -0.326 N 
ATOM      2  C   UNL     1      -1.638   4.133   4.188  1.00  0.00     0.014 C 
ATOM      3  C   UNL     1      -3.051   3.923   4.739  1.00  0.00     0.091 C 
ATOM      4  C   UNL     1      -1.891   4.901   2.900  1.00  0.00     0.041 C 
ATOM      5  C   UNL     1      -3.071   4.093   2.329  1.00  0.00     0.175 C 
ATOM      6  C   UNL     1      -3.009   2.782   5.755  1.00  0.00     0.059 C 
ATOM      7  C   UNL     1      -0.728   4.730   5.243  1.00  0.00     0.008 C 
ATOM      8  C   UNL     1      -1.672   2.682   6.521  1.00  0.00     0.143 C 
ATOM      9  C   UNL     1      -0.950   4.042   6.607  1.00  0.00     0.034 C 
ENDROOT
BRANCH   1  10
ATOM     10  C   UNL     1      -5.229   3.544   3.405  1.00  0.00     0.246 C 
ATOM     11  O   UNL     1      -5.633   2.496   2.889  1.00  0.00    -0.272 OA
BRANCH  10  12
ATOM     12  C   UNL     1      -6.221   4.612   3.951  1.00  0.00     0.174 C 
BRANCH  12  13
ATOM     13  N   UNL     1      -6.920   4.090   5.125  1.00  0.00    -0.342 N 
ATOM     14  C   UNL     1      -6.582   4.361   6.431  1.00  0.00     0.249 C 
ATOM     15  O   UNL     1      -5.663   5.102   6.758  1.00  0.00    -0.272 OA
ATOM     16  H   UNL     1      -7.601   3.342   5.014  1.00  0.00     0.164 HD
BRANCH  14  17
ATOM     17  C   UNL     1      -7.501   3.647   7.445  1.00  0.00     0.207 C 
BRANCH  17  18
ATOM     18  C   UNL     1      -7.764   2.203   7.005  1.00  0.00     0.077 C 
BRANCH  18  19
ATOM     19  C   UNL     1      -6.918   1.216   7.777  1.00  0.00    -0.043 A 
ATOM     20  C   UNL     1      -6.483  -1.052   8.519  1.00  0.00     0.083 A 
ATOM     21  C   UNL     1      -7.236  -0.151   7.765  1.00  0.00     0.028 A 
ATOM     22  C   UNL     1      -5.412  -0.595   9.289  1.00  0.00     0.134 A 
ATOM     23  C   UNL     1      -5.087   0.756   9.309  1.00  0.00     0.048 A 
ATOM     24  C   UNL     1      -5.840   1.661   8.557  1.00  0.00     0.008 A 
ATOM     25  Cl  UNL     1      -6.889  -2.727   8.492  1.00  0.00    -0.080 Cl
BRANCH  22  26
ATOM     26  O   UNL     1      -4.652  -1.439  10.052  1.00  0.00    -0.506 OA
ATOM     27  H   UNL     1      -3.841  -1.622   9.543  1.00  0.00     0.293 HD
ENDBRANCH  22  26
ENDBRANCH  18  19
ENDBRANCH  17  18
BRANCH  17  28
ATOM     28  O   UNL     1      -8.752   4.338   7.586  1.00  0.00    -0.383 OA
ATOM     29  H   UNL     1      -9.217   4.236   6.724  1.00  0.00     0.211 HD
ENDBRANCH  17  28
ENDBRANCH  14  17
ENDBRANCH  12  13
BRANCH  12  30
ATOM     30  C   UNL     1      -7.198   5.134   2.863  1.00  0.00     0.018 C 
ATOM     31  C   UNL     1      -6.426   5.763   1.693  1.00  0.00     0.010 C 
BRANCH  30  32
ATOM     32  C   UNL     1      -8.252   6.131   3.402  1.00  0.00     0.002 C 
ATOM     33  C   UNL     1      -8.372   7.436   2.626  1.00  0.00     0.004 C 
ENDBRANCH  30  32
ENDBRANCH  12  30
ENDBRANCH  10  12
ENDBRANCH   1  10
BRANCH   5  34
ATOM     34  C   UNL     1      -2.587   2.809   1.604  1.00  0.00     0.242 C 
ATOM     35  O   UNL     1      -1.992   2.845   0.527  1.00  0.00    -0.273 OA
ATOM     36  N   UNL     1      -2.918   1.626   2.226  1.00  0.00    -0.354 N 
ATOM     37  H   UNL     1      -3.516   1.656   3.053  1.00  0.00     0.163 HD
BRANCH  36  38
ATOM     38  C   UNL     1      -2.367   0.352   1.809  1.00  0.00     0.116 C 
BRANCH  38  39
ATOM     39  C   UNL     1      -1.420  -0.178   2.882  1.00  0.00     0.023 C 
BRANCH  39  40
ATOM     40  C   UNL     1       0.040  -0.140   2.442  1.00  0.00     0.026 C 
BRANCH  40  41
ATOM     41  C   UNL     1       0.663   1.222   2.749  1.00  0.00     0.146 C 
BRANCH  41  42
ATOM     42  N   UNL     1       2.073   1.212   2.381  1.00  0.00    -0.254 NA
ATOM     43  C   UNL     1       2.900   1.948   3.023  1.00  0.00     0.185 C 
ATOM     44  N   UNL     1       2.691   2.790   4.052  1.00  0.00    -0.370 N 
ATOM     45  N   UNL     1       4.194   1.929   2.665  1.00  0.00    -0.370 N 
ATOM     46  H   UNL     1       3.379   3.481   4.296  1.00  0.00     0.159 HD
ATOM     47  H   UNL     1       1.770   2.916   4.459  1.00  0.00     0.159 HD
ATOM     48  H   UNL     1       4.439   1.313   1.901  1.00  0.00     0.159 HD
ATOM     49  H   UNL     1       4.927   2.282   3.254  1.00  0.00     0.159 HD
ENDBRANCH  41  42
ENDBRANCH  40  41
ENDBRANCH  39  40
ENDBRANCH  38  39
ENDBRANCH  36  38
ENDBRANCH   5  34
BRANCH   8  50
ATOM     50  O   UNL     1      -0.806   1.748   5.876  1.00  0.00    -0.245 OA
BRANCH  50  51
ATOM     51  S   UNL     1       0.277   0.915   6.759  1.00  0.00     0.397 S 
ATOM     52  O   UNL     1       0.488  -0.363   6.117  1.00  0.00    -0.169 OA
ATOM     53  O   UNL     1      -0.063   1.012   8.163  1.00  0.00    -0.169 OA
BRANCH  51  54
ATOM     54  O   UNL     1       1.626   1.755   6.516  1.00  0.00    -0.264 OA
ATOM     55  H   UNL     1       1.756   2.341   7.289  1.00  0.00     0.236 HD
ENDBRANCH  51  54
ENDBRANCH  50  51
ENDBRANCH   8  50
TORSDOF 19
ENDMDL
MODEL 27
REMARK VINA RESULT:    -6.185     12.819     18.205
REMARK INTER + INTRA:         -16.752
REMARK INTER:                 -13.089
REMARK INTRA:                  -3.663
REMARK UNBOUND:                -4.239
REMARK SMILES CC[C@@H](C)[C@@H](NC(=O)[C@@H](O)Cc1ccc(O)c(Cl)c1)C(=O)N1[C@H](C(=O)NCCCCN=C(N)N)C[C@H]2CC[C@H](OS(=O)(=O)O)C[C@@H]21
REMARK SMILES IDX 22 1 36 2 46 3 35 4 23 5 45 6 37 7 39 8 38 9 20 10 21 11
REMARK SMILES IDX 5 12 6 13 7 14 8 15 9 17 11 18 12 19 17 20 19 21 15 22 14 23
REMARK SMILES IDX 13 24 18 25 16 26 10 28 3 30 4 31 2 32 1 33 24 34 25 35
REMARK SMILES IDX 26 36 27 38 28 39 29 40 30 41 31 42 32 43 33 44 34 45 40 50
REMARK SMILES IDX 41 51 42 52 43 53 44 54
REMARK H PARENT 6 16 16 27 10 29 26 37 33 46 33 47 34 48 34 49 44 55
ROOT
ATOM      1  N   UNL     1      -1.917   2.695   3.320  1.00  0.00    -0.326 N 
ATOM      2  C   UNL     1      -3.704   1.517   2.338  1.00  0.00     0.014 C 
ATOM      3  C   UNL     1      -3.315   2.335   3.573  1.00  0.00     0.091 C 
ATOM      4  C   UNL     1      -2.413   0.786   2.002  1.00  0.00     0.041 C 
ATOM      5  C   UNL     1      -1.401   1.936   2.154  1.00  0.00     0.175 C 
ATOM      6  C   UNL     1      -4.333   3.462   3.746  1.00  0.00     0.059 C 
ATOM      7  C   UNL     1      -4.966   0.718   2.593  1.00  0.00     0.008 C 
ATOM      8  C   UNL     1      -5.754   3.095   3.265  1.00  0.00     0.143 C 
ATOM      9  C   UNL     1      -6.014   1.576   3.333  1.00  0.00     0.034 C 
ENDROOT
BRANCH   1  10
ATOM     10  C   UNL     1      -1.031   3.418   4.101  1.00  0.00     0.246 C 
ATOM     11  O   UNL     1      -1.261   4.612   4.322  1.00  0.00    -0.272 OA
BRANCH  10  12
ATOM     12  C   UNL     1       0.208   2.705   4.716  1.00  0.00     0.174 C 
BRANCH  12  13
ATOM     13  N   UNL     1       1.235   2.518   3.692  1.00  0.00    -0.342 N 
ATOM     14  C   UNL     1       2.538   2.952   3.792  1.00  0.00     0.249 C 
ATOM     15  O   UNL     1       2.993   3.525   4.774  1.00  0.00    -0.272 OA
ATOM     16  H   UNL     1       0.969   2.201   2.763  1.00  0.00     0.164 HD
BRANCH  14  17
ATOM     17  C   UNL     1       3.374   2.619   2.538  1.00  0.00     0.207 C 
BRANCH  17  18
ATOM     18  C   UNL     1       2.983   3.536   1.374  1.00  0.00     0.077 C 
BRANCH  18  19
ATOM     19  C   UNL     1       3.761   3.213   0.118  1.00  0.00    -0.043 A 
ATOM     20  C   UNL     1       3.829   2.364  -2.153  1.00  0.00     0.083 A 
ATOM     21  C   UNL     1       3.101   2.707  -1.013  1.00  0.00     0.028 A 
ATOM     22  C   UNL     1       5.215   2.522  -2.171  1.00  0.00     0.134 A 
ATOM     23  C   UNL     1       5.881   3.023  -1.058  1.00  0.00     0.048 A 
ATOM     24  C   UNL     1       5.155   3.365   0.086  1.00  0.00     0.008 A 
ATOM     25  Cl  UNL     1       3.001   1.743  -3.532  1.00  0.00    -0.080 Cl
BRANCH  22  26
ATOM     26  O   UNL     1       5.972   2.190  -3.262  1.00  0.00    -0.506 OA
ATOM     27  H   UNL     1       5.425   2.372  -4.048  1.00  0.00     0.293 HD
ENDBRANCH  22  26
ENDBRANCH  18  19
ENDBRANCH  17  18
BRANCH  17  28
ATOM     28  O   UNL     1       3.196   1.249   2.145  1.00  0.00    -0.383 OA
ATOM     29  H   UNL     1       3.958   1.031   1.562  1.00  0.00     0.211 HD
ENDBRANCH  17  28
ENDBRANCH  14  17
ENDBRANCH  12  13
BRANCH  12  30
ATOM     30  C   UNL     1      -0.159   1.379   5.435  1.00  0.00     0.018 C 
ATOM     31  C   UNL     1       0.124   1.478   6.942  1.00  0.00     0.010 C 
BRANCH  30  32
ATOM     32  C   UNL     1       0.546   0.134   4.843  1.00  0.00     0.002 C 
ATOM     33  C   UNL     1      -0.383  -0.973   4.361  1.00  0.00     0.004 C 
ENDBRANCH  30  32
ENDBRANCH  12  30
ENDBRANCH  10  12
ENDBRANCH   1  10
BRANCH   5  34
ATOM     34  C   UNL     1      -1.359   2.833   0.889  1.00  0.00     0.242 C 
ATOM     35  O   UNL     1      -1.882   3.947   0.854  1.00  0.00    -0.273 OA
ATOM     36  N   UNL     1      -0.744   2.271  -0.208  1.00  0.00    -0.354 N 
ATOM     37  H   UNL     1      -0.436   1.299  -0.154  1.00  0.00     0.163 HD
BRANCH  36  38
ATOM     38  C   UNL     1      -0.426   3.039  -1.394  1.00  0.00     0.116 C 
BRANCH  38  39
ATOM     39  C   UNL     1      -1.500   2.819  -2.457  1.00  0.00     0.023 C 
BRANCH  39  40
ATOM     40  C   UNL     1      -1.718   4.051  -3.327  1.00  0.00     0.026 C 
BRANCH  40  41
ATOM     41  C   UNL     1      -3.210   4.295  -3.557  1.00  0.00     0.146 C 
BRANCH  41  42
ATOM     42  N   UNL     1      -3.990   3.449  -2.663  1.00  0.00    -0.254 NA
ATOM     43  C   UNL     1      -4.380   3.910  -1.534  1.00  0.00     0.185 C 
ATOM     44  N   UNL     1      -4.188   5.122  -0.981  1.00  0.00    -0.370 N 
ATOM     45  N   UNL     1      -5.094   3.113  -0.723  1.00  0.00    -0.370 N 
ATOM     46  H   UNL     1      -4.336   5.265   0.003  1.00  0.00     0.159 HD
ATOM     47  H   UNL     1      -3.678   5.854  -1.466  1.00  0.00     0.159 HD
ATOM     48  H   UNL     1      -5.292   2.183  -1.069  1.00  0.00     0.159 HD
ATOM     49  H   UNL     1      -5.629   3.463   0.052  1.00  0.00     0.159 HD
ENDBRANCH  41  42
ENDBRANCH  40  41
ENDBRANCH  39  40
ENDBRANCH  38  39
ENDBRANCH  36  38
ENDBRANCH   5  34
BRANCH   8  50
ATOM     50  O   UNL     1      -5.942   3.527   1.918  1.00  0.00    -0.245 OA
BRANCH  50  51
ATOM     51  S   UNL     1      -7.203   4.487   1.551  1.00  0.00     0.397 S 
ATOM     52  O   UNL     1      -6.720   5.554   0.703  1.00  0.00    -0.169 OA
ATOM     53  O   UNL     1      -7.972   4.758   2.748  1.00  0.00    -0.169 OA
BRANCH  51  54
ATOM     54  O   UNL     1      -8.084   3.536   0.600  1.00  0.00    -0.264 OA
ATOM     55  H   UNL     1      -7.540   3.311  -0.182  1.00  0.00     0.236 HD
ENDBRANCH  51  54
ENDBRANCH  50  51
ENDBRANCH   8  50
TORSDOF 19
ENDMDL
MODEL 28
REMARK VINA RESULT:    -6.174      3.235      6.406
REMARK INTER + INTRA:         -16.730
REMARK INTER:                 -13.182
REMARK INTRA:                  -3.548
REMARK UNBOUND:                -4.239
REMARK SMILES CC[C@@H](C)[C@@H](NC(=O)[C@@H](O)Cc1ccc(O)c(Cl)c1)C(=O)N1[C@H](C(=O)NCCCCN=C(N)N)C[C@H]2CC[C@H](OS(=O)(=O)O)C[C@@H]21
REMARK SMILES IDX 22 1 36 2 46 3 35 4 23 5 45 6 37 7 39 8 38 9 20 10 21 11
REMARK SMILES IDX 5 12 6 13 7 14 8 15 9 17 11 18 12 19 17 20 19 21 15 22 14 23
REMARK SMILES IDX 13 24 18 25 16 26 10 28 3 30 4 31 2 32 1 33 24 34 25 35
REMARK SMILES IDX 26 36 27 38 28 39 29 40 30 41 31 42 32 43 33 44 34 45 40 50
REMARK SMILES IDX 41 51 42 52 43 53 44 54
REMARK H PARENT 6 16 16 27 10 29 26 37 33 46 33 47 34 48 34 49 44 55
ROOT
ATOM      1  N   UNL     1     -16.054   6.058 -11.582  1.00  0.00    -0.326 N 
ATOM      2  C   UNL     1     -13.911   5.560 -12.418  1.00  0.00     0.014 C 
ATOM      3  C   UNL     1     -14.658   6.483 -11.452  1.00  0.00     0.091 C 
ATOM      4  C   UNL     1     -14.913   5.373 -13.546  1.00  0.00     0.041 C 
ATOM      5  C   UNL     1     -16.198   5.131 -12.732  1.00  0.00     0.175 C 
ATOM      6  C   UNL     1     -13.995   6.384 -10.079  1.00  0.00     0.059 C 
ATOM      7  C   UNL     1     -12.531   6.105 -12.732  1.00  0.00     0.008 C 
ATOM      8  C   UNL     1     -12.477   6.111 -10.140  1.00  0.00     0.143 C 
ATOM      9  C   UNL     1     -11.848   6.627 -11.450  1.00  0.00     0.034 C 
ENDROOT
BRANCH   1  10
ATOM     10  C   UNL     1     -17.192   6.545 -10.963  1.00  0.00     0.246 C 
ATOM     11  O   UNL     1     -17.852   7.427 -11.525  1.00  0.00    -0.272 OA
BRANCH  10  12
ATOM     12  C   UNL     1     -17.640   5.946  -9.598  1.00  0.00     0.174 C 
BRANCH  12  13
ATOM     13  N   UNL     1     -18.716   4.978  -9.808  1.00  0.00    -0.342 N 
ATOM     14  C   UNL     1     -20.051   5.293  -9.925  1.00  0.00     0.249 C 
ATOM     15  O   UNL     1     -20.487   6.437  -9.894  1.00  0.00    -0.272 OA
ATOM     16  H   UNL     1     -18.528   3.984  -9.699  1.00  0.00     0.164 HD
BRANCH  14  17
ATOM     17  C   UNL     1     -20.942   4.048 -10.122  1.00  0.00     0.207 C 
BRANCH  17  18
ATOM     18  C   UNL     1     -21.527   3.590  -8.782  1.00  0.00     0.077 C 
BRANCH  18  19
ATOM     19  C   UNL     1     -20.508   2.846  -7.948  1.00  0.00    -0.043 A 
ATOM     20  C   UNL     1     -18.941   2.792  -6.097  1.00  0.00     0.083 A 
ATOM     21  C   UNL     1     -19.916   3.464  -6.835  1.00  0.00     0.028 A 
ATOM     22  C   UNL     1     -18.549   1.505  -6.466  1.00  0.00     0.134 A 
ATOM     23  C   UNL     1     -19.127   0.881  -7.566  1.00  0.00     0.048 A 
ATOM     24  C   UNL     1     -20.103   1.552  -8.308  1.00  0.00     0.008 A 
ATOM     25  Cl  UNL     1     -18.225   3.567  -4.733  1.00  0.00    -0.080 Cl
BRANCH  22  26
ATOM     26  O   UNL     1     -17.589   0.811  -5.781  1.00  0.00    -0.506 OA
ATOM     27  H   UNL     1     -16.980   1.473  -5.405  1.00  0.00     0.293 HD
ENDBRANCH  22  26
ENDBRANCH  18  19
ENDBRANCH  17  18
BRANCH  17  28
ATOM     28  O   UNL     1     -20.199   2.968 -10.710  1.00  0.00    -0.383 OA
ATOM     29  H   UNL     1     -19.560   2.671 -10.023  1.00  0.00     0.211 HD
ENDBRANCH  17  28
ENDBRANCH  14  17
ENDBRANCH  12  13
BRANCH  12  30
ATOM     30  C   UNL     1     -18.018   7.036  -8.559  1.00  0.00     0.018 C 
ATOM     31  C   UNL     1     -16.966   8.155  -8.535  1.00  0.00     0.010 C 
BRANCH  30  32
ATOM     32  C   UNL     1     -18.239   6.482  -7.131  1.00  0.00     0.002 C 
ATOM     33  C   UNL     1     -19.463   7.025  -6.404  1.00  0.00     0.004 C 
ENDBRANCH  30  32
ENDBRANCH  12  30
ENDBRANCH  10  12
ENDBRANCH   1  10
BRANCH   5  34
ATOM     34  C   UNL     1     -16.297   3.661 -12.245  1.00  0.00     0.242 C 
ATOM     35  O   UNL     1     -17.357   3.163 -11.867  1.00  0.00    -0.273 OA
ATOM     36  N   UNL     1     -15.105   2.972 -12.215  1.00  0.00    -0.354 N 
ATOM     37  H   UNL     1     -14.242   3.474 -12.426  1.00  0.00     0.163 HD
BRANCH  36  38
ATOM     38  C   UNL     1     -15.044   1.541 -11.996  1.00  0.00     0.116 C 
BRANCH  38  39
ATOM     39  C   UNL     1     -14.698   1.255 -10.537  1.00  0.00     0.023 C 
BRANCH  39  40
ATOM     40  C   UNL     1     -15.367  -0.014 -10.018  1.00  0.00     0.026 C 
BRANCH  40  41
ATOM     41  C   UNL     1     -15.583   0.067  -8.507  1.00  0.00     0.146 C 
BRANCH  41  42
ATOM     42  N   UNL     1     -14.338   0.442  -7.851  1.00  0.00    -0.254 NA
ATOM     43  C   UNL     1     -14.272   1.543  -7.200  1.00  0.00     0.185 C 
ATOM     44  N   UNL     1     -15.210   2.485  -6.995  1.00  0.00    -0.370 N 
ATOM     45  N   UNL     1     -13.113   1.872  -6.606  1.00  0.00    -0.370 N 
ATOM     46  H   UNL     1     -14.954   3.404  -6.677  1.00  0.00     0.159 HD
ATOM     47  H   UNL     1     -16.151   2.388  -7.364  1.00  0.00     0.159 HD
ATOM     48  H   UNL     1     -12.355   1.211  -6.704  1.00  0.00     0.159 HD
ATOM     49  H   UNL     1     -13.048   2.580  -5.895  1.00  0.00     0.159 HD
ENDBRANCH  41  42
ENDBRANCH  40  41
ENDBRANCH  39  40
ENDBRANCH  38  39
ENDBRANCH  36  38
ENDBRANCH   5  34
BRANCH   8  50
ATOM     50  O   UNL     1     -12.226   4.709 -10.038  1.00  0.00    -0.245 OA
BRANCH  50  51
ATOM     51  S   UNL     1     -11.258   4.151  -8.856  1.00  0.00     0.397 S 
ATOM     52  O   UNL     1     -11.860   4.492  -7.587  1.00  0.00    -0.169 OA
ATOM     53  O   UNL     1      -9.881   4.485  -9.157  1.00  0.00    -0.169 OA
BRANCH  51  54
ATOM     54  O   UNL     1     -11.426   2.559  -9.008  1.00  0.00    -0.264 OA
ATOM     55  H   UNL     1     -11.497   2.179  -8.108  1.00  0.00     0.236 HD
ENDBRANCH  51  54
ENDBRANCH  50  51
ENDBRANCH   8  50
TORSDOF 19
ENDMDL
MODEL 29
REMARK VINA RESULT:    -6.172     12.489     16.718
REMARK INTER + INTRA:         -16.725
REMARK INTER:                 -13.965
REMARK INTRA:                  -2.760
REMARK UNBOUND:                -4.239
REMARK SMILES CC[C@@H](C)[C@@H](NC(=O)[C@@H](O)Cc1ccc(O)c(Cl)c1)C(=O)N1[C@H](C(=O)NCCCCN=C(N)N)C[C@H]2CC[C@H](OS(=O)(=O)O)C[C@@H]21
REMARK SMILES IDX 22 1 36 2 46 3 35 4 23 5 45 6 37 7 39 8 38 9 20 10 21 11
REMARK SMILES IDX 5 12 6 13 7 14 8 15 9 17 11 18 12 19 17 20 19 21 15 22 14 23
REMARK SMILES IDX 13 24 18 25 16 26 10 28 3 30 4 31 2 32 1 33 24 34 25 35
REMARK SMILES IDX 26 36 27 38 28 39 29 40 30 41 31 42 32 43 33 44 34 45 40 50
REMARK SMILES IDX 41 51 42 52 43 53 44 54
REMARK H PARENT 6 16 16 27 10 29 26 37 33 46 33 47 34 48 34 49 44 55
ROOT
ATOM      1  N   UNL     1      -5.072   4.166   1.812  1.00  0.00    -0.326 N 
ATOM      2  C   UNL     1      -7.320   4.324   1.133  1.00  0.00     0.014 C 
ATOM      3  C   UNL     1      -6.405   4.440   2.355  1.00  0.00     0.091 C 
ATOM      4  C   UNL     1      -6.658   3.221   0.322  1.00  0.00     0.041 C 
ATOM      5  C   UNL     1      -5.184   3.657   0.423  1.00  0.00     0.175 C 
ATOM      6  C   UNL     1      -6.653   5.794   3.017  1.00  0.00     0.059 C 
ATOM      7  C   UNL     1      -8.769   4.170   1.553  1.00  0.00     0.008 C 
ATOM      8  C   UNL     1      -8.105   6.300   2.874  1.00  0.00     0.143 C 
ATOM      9  C   UNL     1      -9.108   5.140   2.704  1.00  0.00     0.034 C 
ENDROOT
BRANCH   1  10
ATOM     10  C   UNL     1      -3.846   4.112   2.454  1.00  0.00     0.246 C 
ATOM     11  O   UNL     1      -2.963   4.915   2.132  1.00  0.00    -0.272 OA
BRANCH  10  12
ATOM     12  C   UNL     1      -3.621   3.075   3.592  1.00  0.00     0.174 C 
BRANCH  12  13
ATOM     13  N   UNL     1      -2.403   3.403   4.331  1.00  0.00    -0.342 N 
ATOM     14  C   UNL     1      -2.148   3.040   5.635  1.00  0.00     0.249 C 
ATOM     15  O   UNL     1      -2.912   2.369   6.318  1.00  0.00    -0.272 OA
ATOM     16  H   UNL     1      -1.750   4.084   3.951  1.00  0.00     0.164 HD
BRANCH  14  17
ATOM     17  C   UNL     1      -0.782   3.552   6.139  1.00  0.00     0.207 C 
BRANCH  17  18
ATOM     18  C   UNL     1       0.199   2.386   6.306  1.00  0.00     0.077 C 
BRANCH  18  19
ATOM     19  C   UNL     1       0.227   1.496   5.084  1.00  0.00    -0.043 A 
ATOM     20  C   UNL     1      -0.186  -0.654   4.039  1.00  0.00     0.083 A 
ATOM     21  C   UNL     1      -0.259   0.181   5.155  1.00  0.00     0.028 A 
ATOM     22  C   UNL     1       0.371  -0.183   2.850  1.00  0.00     0.134 A 
ATOM     23  C   UNL     1       0.856   1.117   2.766  1.00  0.00     0.048 A 
ATOM     24  C   UNL     1       0.786   1.955   3.882  1.00  0.00     0.008 A 
ATOM     25  Cl  UNL     1      -0.788  -2.266   4.145  1.00  0.00    -0.080 Cl
BRANCH  22  26
ATOM     26  O   UNL     1       0.474  -0.967   1.733  1.00  0.00    -0.506 OA
ATOM     27  H   UNL     1      -0.428  -1.272   1.521  1.00  0.00     0.293 HD
ENDBRANCH  22  26
ENDBRANCH  18  19
ENDBRANCH  17  18
BRANCH  17  28
ATOM     28  O   UNL     1      -0.918   4.242   7.392  1.00  0.00    -0.383 OA
ATOM     29  H   UNL     1      -1.872   4.474   7.472  1.00  0.00     0.211 HD
ENDBRANCH  17  28
ENDBRANCH  14  17
ENDBRANCH  12  13
BRANCH  12  30
ATOM     30  C   UNL     1      -3.625   1.610   3.077  1.00  0.00     0.018 C 
ATOM     31  C   UNL     1      -2.794   1.480   1.792  1.00  0.00     0.010 C 
BRANCH  30  32
ATOM     32  C   UNL     1      -5.044   1.034   2.854  1.00  0.00     0.002 C 
ATOM     33  C   UNL     1      -6.056   1.353   3.947  1.00  0.00     0.004 C 
ENDBRANCH  30  32
ENDBRANCH  12  30
ENDBRANCH  10  12
ENDBRANCH   1  10
BRANCH   5  34
ATOM     34  C   UNL     1      -4.846   4.773  -0.601  1.00  0.00     0.242 C 
ATOM     35  O   UNL     1      -4.400   4.525  -1.721  1.00  0.00    -0.273 OA
ATOM     36  N   UNL     1      -5.029   6.059  -0.147  1.00  0.00    -0.354 N 
ATOM     37  H   UNL     1      -5.286   6.204   0.830  1.00  0.00     0.163 HD
BRANCH  36  38
ATOM     38  C   UNL     1      -4.971   7.207  -1.029  1.00  0.00     0.116 C 
BRANCH  38  39
ATOM     39  C   UNL     1      -6.317   7.928  -1.031  1.00  0.00     0.023 C 
BRANCH  39  40
ATOM     40  C   UNL     1      -6.255   9.274  -1.745  1.00  0.00     0.026 C 
BRANCH  40  41
ATOM     41  C   UNL     1      -4.827   9.819  -1.753  1.00  0.00     0.146 C 
BRANCH  41  42
ATOM     42  N   UNL     1      -4.808  11.158  -1.178  1.00  0.00    -0.254 NA
ATOM     43  C   UNL     1      -3.705  11.648  -0.752  1.00  0.00     0.185 C 
ATOM     44  N   UNL     1      -2.470  11.115  -0.737  1.00  0.00    -0.370 N 
ATOM     45  N   UNL     1      -3.710  12.882  -0.221  1.00  0.00    -0.370 N 
ATOM     46  H   UNL     1      -1.749  11.508  -0.156  1.00  0.00     0.159 HD
ATOM     47  H   UNL     1      -2.283  10.191  -1.114  1.00  0.00     0.159 HD
ATOM     48  H   UNL     1      -4.601  13.358  -0.201  1.00  0.00     0.159 HD
ATOM     49  H   UNL     1      -2.872  13.420  -0.088  1.00  0.00     0.159 HD
ENDBRANCH  41  42
ENDBRANCH  40  41
ENDBRANCH  39  40
ENDBRANCH  38  39
ENDBRANCH  36  38
ENDBRANCH   5  34
BRANCH   8  50
ATOM     50  O   UNL     1      -8.214   7.163   1.741  1.00  0.00    -0.245 OA
BRANCH  50  51
ATOM     51  S   UNL     1      -8.606   8.726   1.958  1.00  0.00     0.397 S 
ATOM     52  O   UNL     1      -9.671   9.052   1.036  1.00  0.00    -0.169 OA
ATOM     53  O   UNL     1      -7.400   9.524   2.038  1.00  0.00    -0.169 OA
BRANCH  51  54
ATOM     54  O   UNL     1      -9.282   8.703   3.417  1.00  0.00    -0.264 OA
ATOM     55  H   UNL     1      -8.569   8.814   4.078  1.00  0.00     0.236 HD
ENDBRANCH  51  54
ENDBRANCH  50  51
ENDBRANCH   8  50
TORSDOF 19
ENDMDL
MODEL 30
REMARK VINA RESULT:    -6.164     13.619     18.505
REMARK INTER + INTRA:         -16.710
REMARK INTER:                 -13.103
REMARK INTRA:                  -3.606
REMARK UNBOUND:                -4.239
REMARK SMILES CC[C@@H](C)[C@@H](NC(=O)[C@@H](O)Cc1ccc(O)c(Cl)c1)C(=O)N1[C@H](C(=O)NCCCCN=C(N)N)C[C@H]2CC[C@H](OS(=O)(=O)O)C[C@@H]21
REMARK SMILES IDX 22 1 36 2 46 3 35 4 23 5 45 6 37 7 39 8 38 9 20 10 21 11
REMARK SMILES IDX 5 12 6 13 7 14 8 15 9 17 11 18 12 19 17 20 19 21 15 22 14 23
REMARK SMILES IDX 13 24 18 25 16 26 10 28 3 30 4 31 2 32 1 33 24 34 25 35
REMARK SMILES IDX 26 36 27 38 28 39 29 40 30 41 31 42 32 43 33 44 34 45 40 50
REMARK SMILES IDX 41 51 42 52 43 53 44 54
REMARK H PARENT 6 16 16 27 10 29 26 37 33 46 33 47 34 48 34 49 44 55
ROOT
ATOM      1  N   UNL     1      -2.513   2.542   0.820  1.00  0.00    -0.326 N 
ATOM      2  C   UNL     1      -2.139   0.893   2.459  1.00  0.00     0.014 C 
ATOM      3  C   UNL     1      -1.419   1.806   1.461  1.00  0.00     0.091 C 
ATOM      4  C   UNL     1      -3.429   0.552   1.730  1.00  0.00     0.041 C 
ATOM      5  C   UNL     1      -3.817   1.943   1.196  1.00  0.00     0.175 C 
ATOM      6  C   UNL     1      -0.355   2.601   2.215  1.00  0.00     0.059 C 
ATOM      7  C   UNL     1      -1.228  -0.226   2.923  1.00  0.00     0.008 C 
ATOM      8  C   UNL     1       0.258   1.841   3.411  1.00  0.00     0.143 C 
ATOM      9  C   UNL     1       0.187   0.312   3.223  1.00  0.00     0.034 C 
ENDROOT
BRANCH   1  10
ATOM     10  C   UNL     1      -2.473   3.497  -0.181  1.00  0.00     0.246 C 
ATOM     11  O   UNL     1      -2.702   4.677   0.104  1.00  0.00    -0.272 OA
BRANCH  10  12
ATOM     12  C   UNL     1      -2.099   3.073  -1.631  1.00  0.00     0.174 C 
BRANCH  12  13
ATOM     13  N   UNL     1      -0.699   3.399  -1.901  1.00  0.00    -0.342 N 
ATOM     14  C   UNL     1       0.341   2.498  -1.878  1.00  0.00     0.249 C 
ATOM     15  O   UNL     1       0.202   1.302  -1.653  1.00  0.00    -0.272 OA
ATOM     16  H   UNL     1      -0.409   4.373  -1.948  1.00  0.00     0.164 HD
BRANCH  14  17
ATOM     17  C   UNL     1       1.704   3.153  -2.188  1.00  0.00     0.207 C 
BRANCH  17  18
ATOM     18  C   UNL     1       2.394   3.593  -0.892  1.00  0.00     0.077 C 
BRANCH  18  19
ATOM     19  C   UNL     1       3.900   3.589  -1.029  1.00  0.00    -0.043 A 
ATOM     20  C   UNL     1       5.886   3.762  -2.410  1.00  0.00     0.083 A 
ATOM     21  C   UNL     1       4.498   3.815  -2.278  1.00  0.00     0.028 A 
ATOM     22  C   UNL     1       6.683   3.484  -1.299  1.00  0.00     0.134 A 
ATOM     23  C   UNL     1       6.104   3.259  -0.056  1.00  0.00     0.048 A 
ATOM     24  C   UNL     1       4.714   3.309   0.079  1.00  0.00     0.008 A 
ATOM     25  Cl  UNL     1       6.603   4.041  -3.953  1.00  0.00    -0.080 Cl
BRANCH  22  26
ATOM     26  O   UNL     1       8.047   3.411  -1.381  1.00  0.00    -0.506 OA
ATOM     27  H   UNL     1       8.270   3.381  -2.330  1.00  0.00     0.293 HD
ENDBRANCH  22  26
ENDBRANCH  18  19
ENDBRANCH  17  18
BRANCH  17  28
ATOM     28  O   UNL     1       1.547   4.289  -3.054  1.00  0.00    -0.383 OA
ATOM     29  H   UNL     1       2.133   4.124  -3.827  1.00  0.00     0.211 HD
ENDBRANCH  17  28
ENDBRANCH  14  17
ENDBRANCH  12  13
BRANCH  12  30
ATOM     30  C   UNL     1      -3.061   3.665  -2.696  1.00  0.00     0.018 C 
ATOM     31  C   UNL     1      -3.804   2.546  -3.443  1.00  0.00     0.010 C 
BRANCH  30  32
ATOM     32  C   UNL     1      -2.365   4.608  -3.707  1.00  0.00     0.002 C 
ATOM     33  C   UNL     1      -2.386   4.139  -5.156  1.00  0.00     0.004 C 
ENDBRANCH  30  32
ENDBRANCH  12  30
ENDBRANCH  10  12
ENDBRANCH   1  10
BRANCH   5  34
ATOM     34  C   UNL     1      -4.522   2.797   2.284  1.00  0.00     0.242 C 
ATOM     35  O   UNL     1      -3.945   3.703   2.885  1.00  0.00    -0.273 OA
ATOM     36  N   UNL     1      -5.819   2.431   2.567  1.00  0.00    -0.354 N 
ATOM     37  H   UNL     1      -6.202   1.596   2.123  1.00  0.00     0.163 HD
BRANCH  36  38
ATOM     38  C   UNL     1      -6.689   3.244   3.390  1.00  0.00     0.116 C 
BRANCH  38  39
ATOM     39  C   UNL     1      -6.793   2.641   4.789  1.00  0.00     0.023 C 
BRANCH  39  40
ATOM     40  C   UNL     1      -6.889   3.704   5.877  1.00  0.00     0.026 C 
BRANCH  40  41
ATOM     41  C   UNL     1      -5.566   4.458   6.017  1.00  0.00     0.146 C 
BRANCH  41  42
ATOM     42  N   UNL     1      -4.793   3.895   7.116  1.00  0.00    -0.254 NA
ATOM     43  C   UNL     1      -3.742   3.209   6.865  1.00  0.00     0.185 C 
ATOM     44  N   UNL     1      -3.178   2.890   5.686  1.00  0.00    -0.370 N 
ATOM     45  N   UNL     1      -3.045   2.696   7.892  1.00  0.00    -0.370 N 
ATOM     46  H   UNL     1      -2.501   2.148   5.625  1.00  0.00     0.159 HD
ATOM     47  H   UNL     1      -3.568   3.209   4.805  1.00  0.00     0.159 HD
ATOM     48  H   UNL     1      -3.398   2.897   8.818  1.00  0.00     0.159 HD
ATOM     49  H   UNL     1      -2.104   2.359   7.797  1.00  0.00     0.159 HD
ENDBRANCH  41  42
ENDBRANCH  40  41
ENDBRANCH  39  40
ENDBRANCH  38  39
ENDBRANCH  36  38
ENDBRANCH   5  34
BRANCH   8  50
ATOM     50  O   UNL     1      -0.430   2.183   4.614  1.00  0.00    -0.245 OA
BRANCH  50  51
ATOM     51  S   UNL     1       0.422   2.552   5.949  1.00  0.00     0.397 S 
ATOM     52  O   UNL     1      -0.275   3.610   6.645  1.00  0.00    -0.169 OA
ATOM     53  O   UNL     1       1.827   2.659   5.615  1.00  0.00    -0.169 OA
BRANCH  51  54
ATOM     54  O   UNL     1       0.225   1.233   6.848  1.00  0.00    -0.264 OA
ATOM     55  H   UNL     1      -0.673   0.884   6.673  1.00  0.00     0.236 HD
ENDBRANCH  51  54
ENDBRANCH  50  51
ENDBRANCH   8  50
TORSDOF 19
ENDMDL
MODEL 31
REMARK VINA RESULT:    -6.161      3.328      6.377
REMARK INTER + INTRA:         -16.704
REMARK INTER:                 -12.453
REMARK INTRA:                  -4.251
REMARK UNBOUND:                -4.239
REMARK SMILES CC[C@@H](C)[C@@H](NC(=O)[C@@H](O)Cc1ccc(O)c(Cl)c1)C(=O)N1[C@H](C(=O)NCCCCN=C(N)N)C[C@H]2CC[C@H](OS(=O)(=O)O)C[C@@H]21
REMARK SMILES IDX 22 1 36 2 46 3 35 4 23 5 45 6 37 7 39 8 38 9 20 10 21 11
REMARK SMILES IDX 5 12 6 13 7 14 8 15 9 17 11 18 12 19 17 20 19 21 15 22 14 23
REMARK SMILES IDX 13 24 18 25 16 26 10 28 3 30 4 31 2 32 1 33 24 34 25 35
REMARK SMILES IDX 26 36 27 38 28 39 29 40 30 41 31 42 32 43 33 44 34 45 40 50
REMARK SMILES IDX 41 51 42 52 43 53 44 54
REMARK H PARENT 6 16 16 27 10 29 26 37 33 46 33 47 34 48 34 49 44 55
ROOT
ATOM      1  N   UNL     1     -15.907   2.063  -9.172  1.00  0.00    -0.326 N 
ATOM      2  C   UNL     1     -15.176   2.392 -11.386  1.00  0.00     0.014 C 
ATOM      3  C   UNL     1     -15.930   3.070 -10.238  1.00  0.00     0.091 C 
ATOM      4  C   UNL     1     -15.572   0.931 -11.230  1.00  0.00     0.041 C 
ATOM      5  C   UNL     1     -15.417   0.769  -9.706  1.00  0.00     0.175 C 
ATOM      6  C   UNL     1     -15.280   4.425  -9.967  1.00  0.00     0.059 C 
ATOM      7  C   UNL     1     -15.443   3.098 -12.700  1.00  0.00     0.008 C 
ATOM      8  C   UNL     1     -14.682   5.090 -11.226  1.00  0.00     0.143 C 
ATOM      9  C   UNL     1     -15.390   4.629 -12.516  1.00  0.00     0.034 C 
ENDROOT
BRANCH   1  10
ATOM     10  C   UNL     1     -16.451   2.106  -7.900  1.00  0.00     0.246 C 
ATOM     11  O   UNL     1     -15.702   2.008  -6.922  1.00  0.00    -0.272 OA
BRANCH  10  12
ATOM     12  C   UNL     1     -17.984   2.317  -7.727  1.00  0.00     0.174 C 
BRANCH  12  13
ATOM     13  N   UNL     1     -18.442   3.386  -8.614  1.00  0.00    -0.342 N 
ATOM     14  C   UNL     1     -19.481   3.277  -9.511  1.00  0.00     0.249 C 
ATOM     15  O   UNL     1     -20.162   2.268  -9.646  1.00  0.00    -0.272 OA
ATOM     16  H   UNL     1     -17.878   4.225  -8.726  1.00  0.00     0.164 HD
BRANCH  14  17
ATOM     17  C   UNL     1     -19.711   4.574 -10.316  1.00  0.00     0.207 C 
BRANCH  17  18
ATOM     18  C   UNL     1     -19.730   5.788  -9.382  1.00  0.00     0.077 C 
BRANCH  18  19
ATOM     19  C   UNL     1     -18.470   6.615  -9.511  1.00  0.00    -0.043 A 
ATOM     20  C   UNL     1     -16.861   7.795 -10.890  1.00  0.00     0.083 A 
ATOM     21  C   UNL     1     -18.050   7.074 -10.769  1.00  0.00     0.028 A 
ATOM     22  C   UNL     1     -16.087   8.060  -9.761  1.00  0.00     0.134 A 
ATOM     23  C   UNL     1     -16.492   7.612  -8.509  1.00  0.00     0.048 A 
ATOM     24  C   UNL     1     -17.680   6.888  -8.384  1.00  0.00     0.008 A 
ATOM     25  Cl  UNL     1     -16.361   8.350 -12.445  1.00  0.00    -0.080 Cl
BRANCH  22  26
ATOM     26  O   UNL     1     -14.909   8.753  -9.832  1.00  0.00    -0.506 OA
ATOM     27  H   UNL     1     -15.045   9.588  -9.346  1.00  0.00     0.293 HD
ENDBRANCH  22  26
ENDBRANCH  18  19
ENDBRANCH  17  18
BRANCH  17  28
ATOM     28  O   UNL     1     -20.947   4.516 -11.047  1.00  0.00    -0.383 OA
ATOM     29  H   UNL     1     -21.447   3.754 -10.676  1.00  0.00     0.211 HD
ENDBRANCH  17  28
ENDBRANCH  14  17
ENDBRANCH  12  13
BRANCH  12  30
ATOM     30  C   UNL     1     -18.393   2.557  -6.249  1.00  0.00     0.018 C 
ATOM     31  C   UNL     1     -19.877   2.221  -6.032  1.00  0.00     0.010 C 
BRANCH  30  32
ATOM     32  C   UNL     1     -18.094   3.991  -5.746  1.00  0.00     0.002 C 
ATOM     33  C   UNL     1     -18.575   4.299  -4.334  1.00  0.00     0.004 C 
ENDBRANCH  30  32
ENDBRANCH  12  30
ENDBRANCH  10  12
ENDBRANCH   1  10
BRANCH   5  34
ATOM     34  C   UNL     1     -13.937   0.532  -9.303  1.00  0.00     0.242 C 
ATOM     35  O   UNL     1     -13.336  -0.504  -9.586  1.00  0.00    -0.273 OA
ATOM     36  N   UNL     1     -13.364   1.540  -8.561  1.00  0.00    -0.354 N 
ATOM     37  H   UNL     1     -13.949   2.319  -8.256  1.00  0.00     0.163 HD
BRANCH  36  38
ATOM     38  C   UNL     1     -11.943   1.585  -8.286  1.00  0.00     0.116 C 
BRANCH  38  39
ATOM     39  C   UNL     1     -11.490   3.036  -8.134  1.00  0.00     0.023 C 
BRANCH  39  40
ATOM     40  C   UNL     1      -9.972   3.173  -8.113  1.00  0.00     0.026 C 
BRANCH  40  41
ATOM     41  C   UNL     1      -9.552   4.431  -7.352  1.00  0.00     0.146 C 
BRANCH  41  42
ATOM     42  N   UNL     1     -10.090   5.611  -8.016  1.00  0.00    -0.254 NA
ATOM     43  C   UNL     1      -9.292   6.446  -8.569  1.00  0.00     0.185 C 
ATOM     44  N   UNL     1      -7.950   6.432  -8.656  1.00  0.00    -0.370 N 
ATOM     45  N   UNL     1      -9.808   7.529  -9.172  1.00  0.00    -0.370 N 
ATOM     46  H   UNL     1      -7.443   7.266  -8.901  1.00  0.00     0.159 HD
ATOM     47  H   UNL     1      -7.398   5.675  -8.265  1.00  0.00     0.159 HD
ATOM     48  H   UNL     1     -10.816   7.612  -9.159  1.00  0.00     0.159 HD
ATOM     49  H   UNL     1      -9.285   8.093  -9.819  1.00  0.00     0.159 HD
ENDBRANCH  41  42
ENDBRANCH  40  41
ENDBRANCH  39  40
ENDBRANCH  38  39
ENDBRANCH  36  38
ENDBRANCH   5  34
BRANCH   8  50
ATOM     50  O   UNL     1     -13.294   4.775 -11.334  1.00  0.00    -0.245 OA
BRANCH  50  51
ATOM     51  S   UNL     1     -12.210   5.975 -11.516  1.00  0.00     0.397 S 
ATOM     52  O   UNL     1     -12.517   7.004 -10.549  1.00  0.00    -0.169 OA
ATOM     53  O   UNL     1     -12.052   6.277 -12.924  1.00  0.00    -0.169 OA
BRANCH  51  54
ATOM     54  O   UNL     1     -10.853   5.282 -11.003  1.00  0.00    -0.264 OA
ATOM     55  H   UNL     1     -10.765   4.422 -11.461  1.00  0.00     0.236 HD
ENDBRANCH  51  54
ENDBRANCH  50  51
ENDBRANCH   8  50
TORSDOF 19
ENDMDL
MODEL 32
REMARK VINA RESULT:    -6.144     13.960     17.689
REMARK INTER + INTRA:         -16.670
REMARK INTER:                 -12.549
REMARK INTRA:                  -4.121
REMARK UNBOUND:                -4.239
REMARK SMILES CC[C@@H](C)[C@@H](NC(=O)[C@@H](O)Cc1ccc(O)c(Cl)c1)C(=O)N1[C@H](C(=O)NCCCCN=C(N)N)C[C@H]2CC[C@H](OS(=O)(=O)O)C[C@@H]21
REMARK SMILES IDX 22 1 36 2 46 3 35 4 23 5 45 6 37 7 39 8 38 9 20 10 21 11
REMARK SMILES IDX 5 12 6 13 7 14 8 15 9 17 11 18 12 19 17 20 19 21 15 22 14 23
REMARK SMILES IDX 13 24 18 25 16 26 10 28 3 30 4 31 2 32 1 33 24 34 25 35
REMARK SMILES IDX 26 36 27 38 28 39 29 40 30 41 31 42 32 43 33 44 34 45 40 50
REMARK SMILES IDX 41 51 42 52 43 53 44 54
REMARK H PARENT 6 16 16 27 10 29 26 37 33 46 33 47 34 48 34 49 44 55
ROOT
ATOM      1  N   UNL     1      -0.896   2.140  -0.252  1.00  0.00    -0.326 N 
ATOM      2  C   UNL     1      -1.034   1.232   1.916  1.00  0.00     0.014 C 
ATOM      3  C   UNL     1      -0.038   1.715   0.858  1.00  0.00     0.091 C 
ATOM      4  C   UNL     1      -2.145   0.621   1.076  1.00  0.00     0.041 C 
ATOM      5  C   UNL     1      -2.294   1.705  -0.008  1.00  0.00     0.175 C 
ATOM      6  C   UNL     1       0.884   2.751   1.499  1.00  0.00     0.059 C 
ATOM      7  C   UNL     1      -0.342   0.382   2.964  1.00  0.00     0.008 C 
ATOM      8  C   UNL     1       1.147   2.504   3.000  1.00  0.00     0.143 C 
ATOM      9  C   UNL     1       1.004   1.015   3.376  1.00  0.00     0.034 C 
ENDROOT
BRANCH   1  10
ATOM     10  C   UNL     1      -0.555   2.650  -1.493  1.00  0.00     0.246 C 
ATOM     11  O   UNL     1      -1.346   3.404  -2.071  1.00  0.00    -0.272 OA
BRANCH  10  12
ATOM     12  C   UNL     1       0.829   2.301  -2.112  1.00  0.00     0.174 C 
BRANCH  12  13
ATOM     13  N   UNL     1       1.659   3.503  -2.190  1.00  0.00    -0.342 N 
ATOM     14  C   UNL     1       2.907   3.639  -1.626  1.00  0.00     0.249 C 
ATOM     15  O   UNL     1       3.479   2.747  -1.012  1.00  0.00    -0.272 OA
ATOM     16  H   UNL     1       1.255   4.372  -2.530  1.00  0.00     0.164 HD
BRANCH  14  17
ATOM     17  C   UNL     1       3.521   5.035  -1.868  1.00  0.00     0.207 C 
BRANCH  17  18
ATOM     18  C   UNL     1       4.062   5.141  -3.297  1.00  0.00     0.077 C 
BRANCH  18  19
ATOM     19  C   UNL     1       3.126   5.919  -4.196  1.00  0.00    -0.043 A 
ATOM     20  C   UNL     1       1.638   6.007  -6.109  1.00  0.00     0.083 A 
ATOM     21  C   UNL     1       2.461   5.276  -5.251  1.00  0.00     0.028 A 
ATOM     22  C   UNL     1       1.474   7.379  -5.919  1.00  0.00     0.134 A 
ATOM     23  C   UNL     1       2.126   8.028  -4.877  1.00  0.00     0.048 A 
ATOM     24  C   UNL     1       2.953   7.300  -4.018  1.00  0.00     0.008 A 
ATOM     25  Cl  UNL     1       0.829   5.199  -7.401  1.00  0.00    -0.080 Cl
BRANCH  22  26
ATOM     26  O   UNL     1       0.685   8.139  -6.740  1.00  0.00    -0.506 OA
ATOM     27  H   UNL     1       1.110   8.136  -7.618  1.00  0.00     0.293 HD
ENDBRANCH  22  26
ENDBRANCH  18  19
ENDBRANCH  17  18
BRANCH  17  28
ATOM     28  O   UNL     1       4.581   5.303  -0.936  1.00  0.00    -0.383 OA
ATOM     29  H   UNL     1       5.400   5.389  -1.474  1.00  0.00     0.211 HD
ENDBRANCH  17  28
ENDBRANCH  14  17
ENDBRANCH  12  13
BRANCH  12  30
ATOM     30  C   UNL     1       0.709   1.575  -3.479  1.00  0.00     0.018 C 
ATOM     31  C   UNL     1       2.022   0.861  -3.836  1.00  0.00     0.010 C 
BRANCH  30  32
ATOM     32  C   UNL     1       0.275   2.503  -4.640  1.00  0.00     0.002 C 
ATOM     33  C   UNL     1      -0.976   2.065  -5.391  1.00  0.00     0.004 C 
ENDBRANCH  30  32
ENDBRANCH  12  30
ENDBRANCH  10  12
ENDBRANCH   1  10
BRANCH   5  34
ATOM     34  C   UNL     1      -3.161   2.893   0.487  1.00  0.00     0.242 C 
ATOM     35  O   UNL     1      -2.684   4.003   0.722  1.00  0.00    -0.273 OA
ATOM     36  N   UNL     1      -4.491   2.602   0.694  1.00  0.00    -0.354 N 
ATOM     37  H   UNL     1      -4.802   1.635   0.597  1.00  0.00     0.163 HD
BRANCH  36  38
ATOM     38  C   UNL     1      -5.478   3.631   0.945  1.00  0.00     0.116 C 
BRANCH  38  39
ATOM     39  C   UNL     1      -6.012   3.501   2.369  1.00  0.00     0.023 C 
BRANCH  39  40
ATOM     40  C   UNL     1      -6.246   4.856   3.029  1.00  0.00     0.026 C 
BRANCH  40  41
ATOM     41  C   UNL     1      -5.257   5.079   4.174  1.00  0.00     0.146 C 
BRANCH  41  42
ATOM     42  N   UNL     1      -4.023   5.652   3.653  1.00  0.00    -0.254 NA
ATOM     43  C   UNL     1      -2.957   4.944   3.630  1.00  0.00     0.185 C 
ATOM     44  N   UNL     1      -2.752   3.674   4.025  1.00  0.00    -0.370 N 
ATOM     45  N   UNL     1      -1.828   5.492   3.150  1.00  0.00    -0.370 N 
ATOM     46  H   UNL     1      -1.820   3.328   4.177  1.00  0.00     0.159 HD
ATOM     47  H   UNL     1      -3.504   3.105   4.402  1.00  0.00     0.159 HD
ATOM     48  H   UNL     1      -1.897   6.446   2.822  1.00  0.00     0.159 HD
ATOM     49  H   UNL     1      -1.030   4.945   2.881  1.00  0.00     0.159 HD
ENDBRANCH  41  42
ENDBRANCH  40  41
ENDBRANCH  39  40
ENDBRANCH  38  39
ENDBRANCH  36  38
ENDBRANCH   5  34
BRANCH   8  50
ATOM     50  O   UNL     1       0.230   3.261   3.790  1.00  0.00    -0.245 OA
BRANCH  50  51
ATOM     51  S   UNL     1       0.658   3.732   5.287  1.00  0.00     0.397 S 
ATOM     52  O   UNL     1       2.073   4.026   5.275  1.00  0.00    -0.169 OA
ATOM     53  O   UNL     1       0.076   2.835   6.263  1.00  0.00    -0.169 OA
BRANCH  51  54
ATOM     54  O   UNL     1      -0.083   5.154   5.416  1.00  0.00    -0.264 OA
ATOM     55  H   UNL     1      -0.213   5.506   4.511  1.00  0.00     0.236 HD
ENDBRANCH  51  54
ENDBRANCH  50  51
ENDBRANCH   8  50
TORSDOF 19
ENDMDL
MODEL 33
REMARK VINA RESULT:    -6.098     11.576     14.792
REMARK INTER + INTRA:         -16.575
REMARK INTER:                 -13.836
REMARK INTRA:                  -2.739
REMARK UNBOUND:                -4.239
REMARK SMILES CC[C@@H](C)[C@@H](NC(=O)[C@@H](O)Cc1ccc(O)c(Cl)c1)C(=O)N1[C@H](C(=O)NCCCCN=C(N)N)C[C@H]2CC[C@H](OS(=O)(=O)O)C[C@@H]21
REMARK SMILES IDX 22 1 36 2 46 3 35 4 23 5 45 6 37 7 39 8 38 9 20 10 21 11
REMARK SMILES IDX 5 12 6 13 7 14 8 15 9 17 11 18 12 19 17 20 19 21 15 22 14 23
REMARK SMILES IDX 13 24 18 25 16 26 10 28 3 30 4 31 2 32 1 33 24 34 25 35
REMARK SMILES IDX 26 36 27 38 28 39 29 40 30 41 31 42 32 43 33 44 34 45 40 50
REMARK SMILES IDX 41 51 42 52 43 53 44 54
REMARK H PARENT 6 16 16 27 10 29 26 37 33 46 33 47 34 48 34 49 44 55
ROOT
ATOM      1  N   UNL     1      -9.469  -9.604  -1.030  1.00  0.00    -0.326 N 
ATOM      2  C   UNL     1      -9.560  -9.962   1.296  1.00  0.00     0.014 C 
ATOM      3  C   UNL     1      -9.041 -10.568  -0.012  1.00  0.00     0.091 C 
ATOM      4  C   UNL     1     -10.863  -9.306   0.867  1.00  0.00     0.041 C 
ATOM      5  C   UNL     1     -10.408  -8.620  -0.435  1.00  0.00     0.175 C 
ATOM      6  C   UNL     1      -7.547 -10.843   0.142  1.00  0.00     0.059 C 
ATOM      7  C   UNL     1      -9.578 -10.997   2.403  1.00  0.00     0.008 C 
ATOM      8  C   UNL     1      -7.127 -11.207   1.583  1.00  0.00     0.143 C 
ATOM      9  C   UNL     1      -8.285 -11.840   2.381  1.00  0.00     0.034 C 
ENDROOT
BRANCH   1  10
ATOM     10  C   UNL     1      -9.300  -9.629  -2.403  1.00  0.00     0.246 C 
ATOM     11  O   UNL     1     -10.078 -10.298  -3.092  1.00  0.00    -0.272 OA
BRANCH  10  12
ATOM     12  C   UNL     1      -8.165  -8.785  -3.052  1.00  0.00     0.174 C 
BRANCH  12  13
ATOM     13  N   UNL     1      -8.738  -7.805  -3.974  1.00  0.00    -0.342 N 
ATOM     14  C   UNL     1      -8.572  -6.441  -3.880  1.00  0.00     0.249 C 
ATOM     15  O   UNL     1      -7.895  -5.894  -3.019  1.00  0.00    -0.272 OA
ATOM     16  H   UNL     1      -9.447  -8.096  -4.643  1.00  0.00     0.164 HD
BRANCH  14  17
ATOM     17  C   UNL     1      -9.316  -5.673  -4.993  1.00  0.00     0.207 C 
BRANCH  17  18
ATOM     18  C   UNL     1      -8.567  -4.384  -5.347  1.00  0.00     0.077 C 
BRANCH  18  19
ATOM     19  C   UNL     1      -7.949  -4.453  -6.726  1.00  0.00    -0.043 A 
ATOM     20  C   UNL     1      -7.101  -3.342  -8.708  1.00  0.00     0.083 A 
ATOM     21  C   UNL     1      -7.625  -3.275  -7.417  1.00  0.00     0.028 A 
ATOM     22  C   UNL     1      -6.899  -4.581  -9.316  1.00  0.00     0.134 A 
ATOM     23  C   UNL     1      -7.216  -5.756  -8.644  1.00  0.00     0.048 A 
ATOM     24  C   UNL     1      -7.742  -5.692  -7.351  1.00  0.00     0.008 A 
ATOM     25  Cl  UNL     1      -6.709  -1.884  -9.541  1.00  0.00    -0.080 Cl
BRANCH  22  26
ATOM     26  O   UNL     1      -6.398  -4.697 -10.585  1.00  0.00    -0.506 OA
ATOM     27  H   UNL     1      -6.045  -5.602 -10.665  1.00  0.00     0.293 HD
ENDBRANCH  22  26
ENDBRANCH  18  19
ENDBRANCH  17  18
BRANCH  17  28
ATOM     28  O   UNL     1     -10.657  -5.350  -4.591  1.00  0.00    -0.383 OA
ATOM     29  H   UNL     1     -11.042  -6.182  -4.235  1.00  0.00     0.211 HD
ENDBRANCH  17  28
ENDBRANCH  14  17
ENDBRANCH  12  13
BRANCH  12  30
ATOM     30  C   UNL     1      -7.074  -9.662  -3.723  1.00  0.00     0.018 C 
ATOM     31  C   UNL     1      -7.287 -11.148  -3.392  1.00  0.00     0.010 C 
BRANCH  30  32
ATOM     32  C   UNL     1      -5.629  -9.239  -3.364  1.00  0.00     0.002 C 
ATOM     33  C   UNL     1      -5.075  -8.068  -4.166  1.00  0.00     0.004 C 
ENDBRANCH  30  32
ENDBRANCH  12  30
ENDBRANCH  10  12
ENDBRANCH   1  10
BRANCH   5  34
ATOM     34  C   UNL     1      -9.688  -7.275  -0.151  1.00  0.00     0.242 C 
ATOM     35  O   UNL     1      -8.461  -7.178  -0.125  1.00  0.00    -0.273 OA
ATOM     36  N   UNL     1     -10.520  -6.212   0.122  1.00  0.00    -0.354 N 
ATOM     37  H   UNL     1     -11.523  -6.381   0.204  1.00  0.00     0.163 HD
BRANCH  36  38
ATOM     38  C   UNL     1     -10.034  -4.849   0.196  1.00  0.00     0.116 C 
BRANCH  38  39
ATOM     39  C   UNL     1     -11.198  -3.899   0.469  1.00  0.00     0.023 C 
BRANCH  39  40
ATOM     40  C   UNL     1     -11.431  -2.920  -0.677  1.00  0.00     0.026 C 
BRANCH  40  41
ATOM     41  C   UNL     1     -10.787  -3.430  -1.966  1.00  0.00     0.146 C 
BRANCH  41  42
ATOM     42  N   UNL     1     -10.734  -2.355  -2.948  1.00  0.00    -0.254 NA
ATOM     43  C   UNL     1     -11.675  -2.236  -3.808  1.00  0.00     0.185 C 
ATOM     44  N   UNL     1     -12.786  -2.974  -3.982  1.00  0.00    -0.370 N 
ATOM     45  N   UNL     1     -11.605  -1.241  -4.708  1.00  0.00    -0.370 N 
ATOM     46  H   UNL     1     -13.309  -2.919  -4.840  1.00  0.00     0.159 HD
ATOM     47  H   UNL     1     -13.004  -3.760  -3.378  1.00  0.00     0.159 HD
ATOM     48  H   UNL     1     -10.801  -0.631  -4.641  1.00  0.00     0.159 HD
ATOM     49  H   UNL     1     -12.396  -0.938  -5.247  1.00  0.00     0.159 HD
ENDBRANCH  41  42
ENDBRANCH  40  41
ENDBRANCH  39  40
ENDBRANCH  38  39
ENDBRANCH  36  38
ENDBRANCH   5  34
BRANCH   8  50
ATOM     50  O   UNL     1      -6.685 -10.039   2.275  1.00  0.00    -0.245 OA
BRANCH  50  51
ATOM     51  S   UNL     1      -5.569 -10.176   3.451  1.00  0.00     0.397 S 
ATOM     52  O   UNL     1      -4.715 -11.296   3.126  1.00  0.00    -0.169 OA
ATOM     53  O   UNL     1      -6.209 -10.058   4.744  1.00  0.00    -0.169 OA
BRANCH  51  54
ATOM     54  O   UNL     1      -4.674  -8.861   3.218  1.00  0.00    -0.264 OA
ATOM     55  H   UNL     1      -4.734  -8.312   4.027  1.00  0.00     0.236 HD
ENDBRANCH  51  54
ENDBRANCH  50  51
ENDBRANCH   8  50
TORSDOF 19
ENDMDL
MODEL 34
REMARK VINA RESULT:    -6.090      3.317      8.428
REMARK INTER + INTRA:         -16.561
REMARK INTER:                 -13.036
REMARK INTRA:                  -3.524
REMARK UNBOUND:                -4.239
REMARK SMILES CC[C@@H](C)[C@@H](NC(=O)[C@@H](O)Cc1ccc(O)c(Cl)c1)C(=O)N1[C@H](C(=O)NCCCCN=C(N)N)C[C@H]2CC[C@H](OS(=O)(=O)O)C[C@@H]21
REMARK SMILES IDX 22 1 36 2 46 3 35 4 23 5 45 6 37 7 39 8 38 9 20 10 21 11
REMARK SMILES IDX 5 12 6 13 7 14 8 15 9 17 11 18 12 19 17 20 19 21 15 22 14 23
REMARK SMILES IDX 13 24 18 25 16 26 10 28 3 30 4 31 2 32 1 33 24 34 25 35
REMARK SMILES IDX 26 36 27 38 28 39 29 40 30 41 31 42 32 43 33 44 34 45 40 50
REMARK SMILES IDX 41 51 42 52 43 53 44 54
REMARK H PARENT 6 16 16 27 10 29 26 37 33 46 33 47 34 48 34 49 44 55
ROOT
ATOM      1  N   UNL     1     -14.912   3.477 -10.199  1.00  0.00    -0.326 N 
ATOM      2  C   UNL     1     -16.594   2.147 -11.171  1.00  0.00     0.014 C 
ATOM      3  C   UNL     1     -16.093   2.692  -9.830  1.00  0.00     0.091 C 
ATOM      4  C   UNL     1     -15.304   1.915 -11.941  1.00  0.00     0.041 C 
ATOM      5  C   UNL     1     -14.553   3.220 -11.615  1.00  0.00     0.175 C 
ATOM      6  C   UNL     1     -17.251   3.407  -9.136  1.00  0.00     0.059 C 
ATOM      7  C   UNL     1     -17.554   0.993 -10.962  1.00  0.00     0.008 C 
ATOM      8  C   UNL     1     -18.635   2.800  -9.450  1.00  0.00     0.143 C 
ATOM      9  C   UNL     1     -18.541   1.305  -9.818  1.00  0.00     0.034 C 
ENDROOT
BRANCH   1  10
ATOM     10  C   UNL     1     -14.034   4.188  -9.399  1.00  0.00     0.246 C 
ATOM     11  O   UNL     1     -14.002   5.420  -9.489  1.00  0.00    -0.272 OA
BRANCH  10  12
ATOM     12  C   UNL     1     -13.140   3.428  -8.376  1.00  0.00     0.174 C 
BRANCH  12  13
ATOM     13  N   UNL     1     -11.752   3.872  -8.501  1.00  0.00    -0.342 N 
ATOM     14  C   UNL     1     -10.933   4.214  -7.448  1.00  0.00     0.249 C 
ATOM     15  O   UNL     1     -11.274   4.156  -6.273  1.00  0.00    -0.272 OA
ATOM     16  H   UNL     1     -11.382   4.117  -9.416  1.00  0.00     0.164 HD
BRANCH  14  17
ATOM     17  C   UNL     1      -9.528   4.658  -7.906  1.00  0.00     0.207 C 
BRANCH  17  18
ATOM     18  C   UNL     1      -8.448   3.842  -7.188  1.00  0.00     0.077 C 
BRANCH  18  19
ATOM     19  C   UNL     1      -8.014   2.645  -8.004  1.00  0.00    -0.043 A 
ATOM     20  C   UNL     1      -7.819   0.242  -8.271  1.00  0.00     0.083 A 
ATOM     21  C   UNL     1      -8.264   1.344  -7.540  1.00  0.00     0.028 A 
ATOM     22  C   UNL     1      -7.121   0.431  -9.464  1.00  0.00     0.134 A 
ATOM     23  C   UNL     1      -6.866   1.714  -9.935  1.00  0.00     0.048 A 
ATOM     24  C   UNL     1      -7.309   2.819  -9.205  1.00  0.00     0.008 A 
ATOM     25  Cl  UNL     1      -8.136  -1.349  -7.685  1.00  0.00    -0.080 Cl
BRANCH  22  26
ATOM     26  O   UNL     1      -6.655  -0.618 -10.210  1.00  0.00    -0.506 OA
ATOM     27  H   UNL     1      -5.769  -0.364 -10.528  1.00  0.00     0.293 HD
ENDBRANCH  22  26
ENDBRANCH  18  19
ENDBRANCH  17  18
BRANCH  17  28
ATOM     28  O   UNL     1      -9.318   6.056  -7.649  1.00  0.00    -0.383 OA
ATOM     29  H   UNL     1      -8.725   6.378  -8.365  1.00  0.00     0.211 HD
ENDBRANCH  17  28
ENDBRANCH  14  17
ENDBRANCH  12  13
BRANCH  12  30
ATOM     30  C   UNL     1     -13.281   1.886  -8.486  1.00  0.00     0.018 C 
ATOM     31  C   UNL     1     -13.412   1.250  -7.093  1.00  0.00     0.010 C 
BRANCH  30  32
ATOM     32  C   UNL     1     -12.131   1.211  -9.273  1.00  0.00     0.002 C 
ATOM     33  C   UNL     1     -12.516  -0.053 -10.030  1.00  0.00     0.004 C 
ENDBRANCH  30  32
ENDBRANCH  12  30
ENDBRANCH  10  12
ENDBRANCH   1  10
BRANCH   5  34
ATOM     34  C   UNL     1     -15.020   4.390 -12.522  1.00  0.00     0.242 C 
ATOM     35  O   UNL     1     -14.940   4.343 -13.749  1.00  0.00    -0.273 OA
ATOM     36  N   UNL     1     -15.479   5.502 -11.853  1.00  0.00    -0.354 N 
ATOM     37  H   UNL     1     -15.409   5.527 -10.835  1.00  0.00     0.163 HD
BRANCH  36  38
ATOM     38  C   UNL     1     -16.149   6.591 -12.532  1.00  0.00     0.116 C 
BRANCH  38  39
ATOM     39  C   UNL     1     -15.119   7.496 -13.203  1.00  0.00     0.023 C 
BRANCH  39  40
ATOM     40  C   UNL     1     -14.306   8.302 -12.196  1.00  0.00     0.026 C 
BRANCH  40  41
ATOM     41  C   UNL     1     -12.836   8.362 -12.610  1.00  0.00     0.146 C 
BRANCH  41  42
ATOM     42  N   UNL     1     -11.994   8.461 -11.424  1.00  0.00    -0.254 NA
ATOM     43  C   UNL     1     -11.493   7.400 -10.914  1.00  0.00     0.185 C 
ATOM     44  N   UNL     1     -11.607   6.116 -11.300  1.00  0.00    -0.370 N 
ATOM     45  N   UNL     1     -10.723   7.511  -9.819  1.00  0.00    -0.370 N 
ATOM     46  H   UNL     1     -11.366   5.368 -10.673  1.00  0.00     0.159 HD
ATOM     47  H   UNL     1     -12.144   5.852 -12.121  1.00  0.00     0.159 HD
ATOM     48  H   UNL     1     -10.578   8.448  -9.466  1.00  0.00     0.159 HD
ATOM     49  H   UNL     1     -10.112   6.778  -9.506  1.00  0.00     0.159 HD
ENDBRANCH  41  42
ENDBRANCH  40  41
ENDBRANCH  39  40
ENDBRANCH  38  39
ENDBRANCH  36  38
ENDBRANCH   5  34
BRANCH   8  50
ATOM     50  O   UNL     1     -19.241   3.497 -10.539  1.00  0.00    -0.245 OA
BRANCH  50  51
ATOM     51  S   UNL     1     -20.008   4.905 -10.263  1.00  0.00     0.397 S 
ATOM     52  O   UNL     1     -19.204   5.969 -10.820  1.00  0.00    -0.169 OA
ATOM     53  O   UNL     1     -20.475   4.943  -8.892  1.00  0.00    -0.169 OA
BRANCH  51  54
ATOM     54  O   UNL     1     -21.294   4.780 -11.221  1.00  0.00    -0.264 OA
ATOM     55  H   UNL     1     -22.092   4.807 -10.654  1.00  0.00     0.236 HD
ENDBRANCH  51  54
ENDBRANCH  50  51
ENDBRANCH   8  50
TORSDOF 19
ENDMDL
MODEL 35
REMARK VINA RESULT:    -6.082     12.433     16.154
REMARK INTER + INTRA:         -16.544
REMARK INTER:                 -13.556
REMARK INTRA:                  -2.988
REMARK UNBOUND:                -4.239
REMARK SMILES CC[C@@H](C)[C@@H](NC(=O)[C@@H](O)Cc1ccc(O)c(Cl)c1)C(=O)N1[C@H](C(=O)NCCCCN=C(N)N)C[C@H]2CC[C@H](OS(=O)(=O)O)C[C@@H]21
REMARK SMILES IDX 22 1 36 2 46 3 35 4 23 5 45 6 37 7 39 8 38 9 20 10 21 11
REMARK SMILES IDX 5 12 6 13 7 14 8 15 9 17 11 18 12 19 17 20 19 21 15 22 14 23
REMARK SMILES IDX 13 24 18 25 16 26 10 28 3 30 4 31 2 32 1 33 24 34 25 35
REMARK SMILES IDX 26 36 27 38 28 39 29 40 30 41 31 42 32 43 33 44 34 45 40 50
REMARK SMILES IDX 41 51 42 52 43 53 44 54
REMARK H PARENT 6 16 16 27 10 29 26 37 33 46 33 47 34 48 34 49 44 55
ROOT
ATOM      1  N   UNL     1      -4.084   2.851   3.012  1.00  0.00    -0.326 N 
ATOM      2  C   UNL     1      -2.353   4.309   3.661  1.00  0.00     0.014 C 
ATOM      3  C   UNL     1      -3.189   3.119   4.141  1.00  0.00     0.091 C 
ATOM      4  C   UNL     1      -3.346   5.097   2.820  1.00  0.00     0.041 C 
ATOM      5  C   UNL     1      -3.996   3.952   2.022  1.00  0.00     0.175 C 
ATOM      6  C   UNL     1      -2.237   2.011   4.590  1.00  0.00     0.059 C 
ATOM      7  C   UNL     1      -1.660   4.989   4.825  1.00  0.00     0.008 C 
ATOM      8  C   UNL     1      -0.911   2.533   5.183  1.00  0.00     0.143 C 
ATOM      9  C   UNL     1      -1.063   3.943   5.789  1.00  0.00     0.034 C 
ENDROOT
BRANCH   1  10
ATOM     10  C   UNL     1      -5.079   1.898   2.874  1.00  0.00     0.246 C 
ATOM     11  O   UNL     1      -4.800   0.807   2.365  1.00  0.00    -0.272 OA
BRANCH  10  12
ATOM     12  C   UNL     1      -6.511   2.203   3.402  1.00  0.00     0.174 C 
BRANCH  12  13
ATOM     13  N   UNL     1      -7.232   3.030   2.436  1.00  0.00    -0.342 N 
ATOM     14  C   UNL     1      -8.596   3.021   2.250  1.00  0.00     0.249 C 
ATOM     15  O   UNL     1      -9.369   2.329   2.901  1.00  0.00    -0.272 OA
ATOM     16  H   UNL     1      -6.715   3.536   1.721  1.00  0.00     0.164 HD
BRANCH  14  17
ATOM     17  C   UNL     1      -9.053   3.995   1.143  1.00  0.00     0.207 C 
BRANCH  17  18
ATOM     18  C   UNL     1      -9.571   5.299   1.757  1.00  0.00     0.077 C 
BRANCH  18  19
ATOM     19  C   UNL     1      -8.771   6.495   1.293  1.00  0.00    -0.043 A 
ATOM     20  C   UNL     1      -8.418   8.894   1.234  1.00  0.00     0.083 A 
ATOM     21  C   UNL     1      -9.128   7.789   1.704  1.00  0.00     0.028 A 
ATOM     22  C   UNL     1      -7.351   8.716   0.353  1.00  0.00     0.134 A 
ATOM     23  C   UNL     1      -6.986   7.440  -0.061  1.00  0.00     0.048 A 
ATOM     24  C   UNL     1      -7.696   6.332   0.406  1.00  0.00     0.008 A 
ATOM     25  Cl  UNL     1      -8.872  10.476   1.749  1.00  0.00    -0.080 Cl
BRANCH  22  26
ATOM     26  O   UNL     1      -6.631   9.770  -0.142  1.00  0.00    -0.506 OA
ATOM     27  H   UNL     1      -6.689   9.716  -1.114  1.00  0.00     0.293 HD
ENDBRANCH  22  26
ENDBRANCH  18  19
ENDBRANCH  17  18
BRANCH  17  28
ATOM     28  O   UNL     1     -10.084   3.409   0.331  1.00  0.00    -0.383 OA
ATOM     29  H   UNL     1      -9.628   2.785  -0.278  1.00  0.00     0.211 HD
ENDBRANCH  17  28
ENDBRANCH  14  17
ENDBRANCH  12  13
BRANCH  12  30
ATOM     30  C   UNL     1      -6.507   2.821   4.825  1.00  0.00     0.018 C 
ATOM     31  C   UNL     1      -7.450   2.047   5.760  1.00  0.00     0.010 C 
BRANCH  30  32
ATOM     32  C   UNL     1      -6.854   4.330   4.849  1.00  0.00     0.002 C 
ATOM     33  C   UNL     1      -5.871   5.213   5.605  1.00  0.00     0.004 C 
ENDBRANCH  30  32
ENDBRANCH  12  30
ENDBRANCH  10  12
ENDBRANCH   1  10
BRANCH   5  34
ATOM     34  C   UNL     1      -3.123   3.534   0.808  1.00  0.00     0.242 C 
ATOM     35  O   UNL     1      -3.365   3.911  -0.338  1.00  0.00    -0.273 OA
ATOM     36  N   UNL     1      -2.093   2.667   1.099  1.00  0.00    -0.354 N 
ATOM     37  H   UNL     1      -2.016   2.296   2.047  1.00  0.00     0.163 HD
BRANCH  36  38
ATOM     38  C   UNL     1      -1.058   2.346   0.138  1.00  0.00     0.116 C 
BRANCH  38  39
ATOM     39  C   UNL     1      -0.685   0.870   0.253  1.00  0.00     0.023 C 
BRANCH  39  40
ATOM     40  C   UNL     1      -1.102   0.265   1.589  1.00  0.00     0.026 C 
BRANCH  40  41
ATOM     41  C   UNL     1       0.096  -0.367   2.296  1.00  0.00     0.146 C 
BRANCH  41  42
ATOM     42  N   UNL     1      -0.351  -1.064   3.495  1.00  0.00    -0.254 NA
ATOM     43  C   UNL     1      -0.372  -2.344   3.513  1.00  0.00     0.185 C 
ATOM     44  N   UNL     1      -0.030  -3.228   2.558  1.00  0.00    -0.370 N 
ATOM     45  N   UNL     1      -0.791  -2.967   4.626  1.00  0.00    -0.370 N 
ATOM     46  H   UNL     1      -0.325  -4.188   2.619  1.00  0.00     0.159 HD
ATOM     47  H   UNL     1       0.322  -2.928   1.655  1.00  0.00     0.159 HD
ATOM     48  H   UNL     1      -1.060  -2.373   5.399  1.00  0.00     0.159 HD
ATOM     49  H   UNL     1      -0.616  -3.940   4.804  1.00  0.00     0.159 HD
ENDBRANCH  41  42
ENDBRANCH  40  41
ENDBRANCH  39  40
ENDBRANCH  38  39
ENDBRANCH  36  38
ENDBRANCH   5  34
BRANCH   8  50
ATOM     50  O   UNL     1       0.093   2.582   4.169  1.00  0.00    -0.245 OA
BRANCH  50  51
ATOM     51  S   UNL     1       1.649   2.320   4.566  1.00  0.00     0.397 S 
ATOM     52  O   UNL     1       2.334   1.835   3.389  1.00  0.00    -0.169 OA
ATOM     53  O   UNL     1       1.716   1.615   5.829  1.00  0.00    -0.169 OA
BRANCH  51  54
ATOM     54  O   UNL     1       2.191   3.815   4.803  1.00  0.00    -0.264 OA
ATOM     55  H   UNL     1       2.720   3.813   5.627  1.00  0.00     0.236 HD
ENDBRANCH  51  54
ENDBRANCH  50  51
ENDBRANCH   8  50
TORSDOF 19
ENDMDL
MODEL 36
REMARK VINA RESULT:    -6.082     12.367     16.490
REMARK INTER + INTRA:         -16.543
REMARK INTER:                 -12.175
REMARK INTRA:                  -4.369
REMARK UNBOUND:                -4.239
REMARK SMILES CC[C@@H](C)[C@@H](NC(=O)[C@@H](O)Cc1ccc(O)c(Cl)c1)C(=O)N1[C@H](C(=O)NCCCCN=C(N)N)C[C@H]2CC[C@H](OS(=O)(=O)O)C[C@@H]21
REMARK SMILES IDX 22 1 36 2 46 3 35 4 23 5 45 6 37 7 39 8 38 9 20 10 21 11
REMARK SMILES IDX 5 12 6 13 7 14 8 15 9 17 11 18 12 19 17 20 19 21 15 22 14 23
REMARK SMILES IDX 13 24 18 25 16 26 10 28 3 30 4 31 2 32 1 33 24 34 25 35
REMARK SMILES IDX 26 36 27 38 28 39 29 40 30 41 31 42 32 43 33 44 34 45 40 50
REMARK SMILES IDX 41 51 42 52 43 53 44 54
REMARK H PARENT 6 16 16 27 10 29 26 37 33 46 33 47 34 48 34 49 44 55
ROOT
ATOM      1  N   UNL     1      -5.273   3.488   2.806  1.00  0.00    -0.326 N 
ATOM      2  C   UNL     1      -3.179   4.260   2.060  1.00  0.00     0.014 C 
ATOM      3  C   UNL     1      -3.907   3.013   2.569  1.00  0.00     0.091 C 
ATOM      4  C   UNL     1      -3.844   5.380   2.845  1.00  0.00     0.041 C 
ATOM      5  C   UNL     1      -5.321   4.967   2.710  1.00  0.00     0.175 C 
ATOM      6  C   UNL     1      -3.697   1.885   1.561  1.00  0.00     0.059 C 
ATOM      7  C   UNL     1      -1.675   4.083   2.146  1.00  0.00     0.008 C 
ATOM      8  C   UNL     1      -2.339   1.952   0.828  1.00  0.00     0.143 C 
ATOM      9  C   UNL     1      -1.265   2.676   1.664  1.00  0.00     0.034 C 
ENDROOT
BRANCH   1  10
ATOM     10  C   UNL     1      -6.378   2.807   3.290  1.00  0.00     0.246 C 
ATOM     11  O   UNL     1      -7.096   2.187   2.498  1.00  0.00    -0.272 OA
BRANCH  10  12
ATOM     12  C   UNL     1      -6.667   2.802   4.819  1.00  0.00     0.174 C 
BRANCH  12  13
ATOM     13  N   UNL     1      -5.422   2.606   5.561  1.00  0.00    -0.342 N 
ATOM     14  C   UNL     1      -4.759   3.586   6.264  1.00  0.00     0.249 C 
ATOM     15  O   UNL     1      -5.158   4.739   6.370  1.00  0.00    -0.272 OA
ATOM     16  H   UNL     1      -4.892   1.747   5.437  1.00  0.00     0.164 HD
BRANCH  14  17
ATOM     17  C   UNL     1      -3.463   3.070   6.926  1.00  0.00     0.207 C 
BRANCH  17  18
ATOM     18  C   UNL     1      -2.521   2.481   5.872  1.00  0.00     0.077 C 
BRANCH  18  19
ATOM     19  C   UNL     1      -1.229   3.261   5.774  1.00  0.00    -0.043 A 
ATOM     20  C   UNL     1       1.104   3.392   5.123  1.00  0.00     0.083 A 
ATOM     21  C   UNL     1      -0.100   2.689   5.168  1.00  0.00     0.028 A 
ATOM     22  C   UNL     1       1.189   4.667   5.684  1.00  0.00     0.134 A 
ATOM     23  C   UNL     1       0.079   5.246   6.287  1.00  0.00     0.048 A 
ATOM     24  C   UNL     1      -1.127   4.544   6.335  1.00  0.00     0.008 A 
ATOM     25  Cl  UNL     1       2.481   2.672   4.374  1.00  0.00    -0.080 Cl
BRANCH  22  26
ATOM     26  O   UNL     1       2.351   5.391   5.674  1.00  0.00    -0.506 OA
ATOM     27  H   UNL     1       2.203   6.165   6.248  1.00  0.00     0.293 HD
ENDBRANCH  22  26
ENDBRANCH  18  19
ENDBRANCH  17  18
BRANCH  17  28
ATOM     28  O   UNL     1      -3.751   2.072   7.919  1.00  0.00    -0.383 OA
ATOM     29  H   UNL     1      -4.731   2.043   7.999  1.00  0.00     0.211 HD
ENDBRANCH  17  28
ENDBRANCH  14  17
ENDBRANCH  12  13
BRANCH  12  30
ATOM     30  C   UNL     1      -7.763   1.777   5.219  1.00  0.00     0.018 C 
ATOM     31  C   UNL     1      -8.523   2.250   6.468  1.00  0.00     0.010 C 
BRANCH  30  32
ATOM     32  C   UNL     1      -7.223   0.343   5.436  1.00  0.00     0.002 C 
ATOM     33  C   UNL     1      -8.286  -0.734   5.609  1.00  0.00     0.004 C 
ENDBRANCH  30  32
ENDBRANCH  12  30
ENDBRANCH  10  12
ENDBRANCH   1  10
BRANCH   5  34
ATOM     34  C   UNL     1      -5.917   5.411   1.347  1.00  0.00     0.242 C 
ATOM     35  O   UNL     1      -6.077   4.626   0.412  1.00  0.00    -0.273 OA
ATOM     36  N   UNL     1      -6.201   6.754   1.241  1.00  0.00    -0.354 N 
ATOM     37  H   UNL     1      -5.935   7.374   2.007  1.00  0.00     0.163 HD
BRANCH  36  38
ATOM     38  C   UNL     1      -6.955   7.300   0.131  1.00  0.00     0.116 C 
BRANCH  38  39
ATOM     39  C   UNL     1      -7.955   8.333   0.642  1.00  0.00     0.023 C 
BRANCH  39  40
ATOM     40  C   UNL     1      -9.398   7.853   0.531  1.00  0.00     0.026 C 
BRANCH  40  41
ATOM     41  C   UNL     1      -9.452   6.335   0.356  1.00  0.00     0.146 C 
BRANCH  41  42
ATOM     42  N   UNL     1      -9.579   5.693   1.658  1.00  0.00    -0.254 NA
ATOM     43  C   UNL     1      -9.577   4.416   1.737  1.00  0.00     0.185 C 
ATOM     44  N   UNL     1      -9.469   3.489   0.768  1.00  0.00    -0.370 N 
ATOM     45  N   UNL     1      -9.700   3.843   2.946  1.00  0.00    -0.370 N 
ATOM     46  H   UNL     1      -9.727   2.532   0.942  1.00  0.00     0.159 HD
ATOM     47  H   UNL     1      -9.355   3.748  -0.207  1.00  0.00     0.159 HD
ATOM     48  H   UNL     1      -9.778   4.472   3.734  1.00  0.00     0.159 HD
ATOM     49  H   UNL     1      -9.472   2.880   3.118  1.00  0.00     0.159 HD
ENDBRANCH  41  42
ENDBRANCH  40  41
ENDBRANCH  39  40
ENDBRANCH  38  39
ENDBRANCH  36  38
ENDBRANCH   5  34
BRANCH   8  50
ATOM     50  O   UNL     1      -2.487   2.640  -0.415  1.00  0.00    -0.245 OA
BRANCH  50  51
ATOM     51  S   UNL     1      -1.610   2.170  -1.702  1.00  0.00     0.397 S 
ATOM     52  O   UNL     1      -2.496   2.096  -2.842  1.00  0.00    -0.169 OA
ATOM     53  O   UNL     1      -0.756   1.061  -1.330  1.00  0.00    -0.169 OA
BRANCH  51  54
ATOM     54  O   UNL     1      -0.674   3.453  -1.957  1.00  0.00    -0.264 OA
ATOM     55  H   UNL     1      -0.339   3.755  -1.088  1.00  0.00     0.236 HD
ENDBRANCH  51  54
ENDBRANCH  50  51
ENDBRANCH   8  50
TORSDOF 19
ENDMDL
MODEL 37
REMARK VINA RESULT:    -6.052     11.941     14.729
REMARK INTER + INTRA:         -16.482
REMARK INTER:                 -11.994
REMARK INTRA:                  -4.488
REMARK UNBOUND:                -4.239
REMARK SMILES CC[C@@H](C)[C@@H](NC(=O)[C@@H](O)Cc1ccc(O)c(Cl)c1)C(=O)N1[C@H](C(=O)NCCCCN=C(N)N)C[C@H]2CC[C@H](OS(=O)(=O)O)C[C@@H]21
REMARK SMILES IDX 22 1 36 2 46 3 35 4 23 5 45 6 37 7 39 8 38 9 20 10 21 11
REMARK SMILES IDX 5 12 6 13 7 14 8 15 9 17 11 18 12 19 17 20 19 21 15 22 14 23
REMARK SMILES IDX 13 24 18 25 16 26 10 28 3 30 4 31 2 32 1 33 24 34 25 35
REMARK SMILES IDX 26 36 27 38 28 39 29 40 30 41 31 42 32 43 33 44 34 45 40 50
REMARK SMILES IDX 41 51 42 52 43 53 44 54
REMARK H PARENT 6 16 16 27 10 29 26 37 33 46 33 47 34 48 34 49 44 55
ROOT
ATOM      1  N   UNL     1      -3.782   4.291   3.373  1.00  0.00    -0.326 N 
ATOM      2  C   UNL     1      -1.492   3.855   3.043  1.00  0.00     0.014 C 
ATOM      3  C   UNL     1      -2.605   3.793   4.092  1.00  0.00     0.091 C 
ATOM      4  C   UNL     1      -1.859   5.093   2.238  1.00  0.00     0.041 C 
ATOM      5  C   UNL     1      -3.373   4.868   2.069  1.00  0.00     0.175 C 
ATOM      6  C   UNL     1      -2.652   2.377   4.664  1.00  0.00     0.059 C 
ATOM      7  C   UNL     1      -0.126   3.771   3.696  1.00  0.00     0.008 C 
ATOM      8  C   UNL     1      -1.275   1.678   4.705  1.00  0.00     0.143 C 
ATOM      9  C   UNL     1      -0.115   2.690   4.796  1.00  0.00     0.034 C 
ENDROOT
BRANCH   1  10
ATOM     10  C   UNL     1      -5.079   4.479   3.817  1.00  0.00     0.246 C 
ATOM     11  O   UNL     1      -5.270   4.816   4.991  1.00  0.00    -0.272 OA
BRANCH  10  12
ATOM     12  C   UNL     1      -6.263   4.305   2.822  1.00  0.00     0.174 C 
BRANCH  12  13
ATOM     13  N   UNL     1      -7.053   5.535   2.767  1.00  0.00    -0.342 N 
ATOM     14  C   UNL     1      -6.941   6.503   1.795  1.00  0.00     0.249 C 
ATOM     15  O   UNL     1      -6.177   6.427   0.841  1.00  0.00    -0.272 OA
ATOM     16  H   UNL     1      -7.613   5.810   3.570  1.00  0.00     0.164 HD
BRANCH  14  17
ATOM     17  C   UNL     1      -7.900   7.691   2.023  1.00  0.00     0.207 C 
BRANCH  17  18
ATOM     18  C   UNL     1      -8.999   7.705   0.956  1.00  0.00     0.077 C 
BRANCH  18  19
ATOM     19  C   UNL     1     -10.149   6.793   1.320  1.00  0.00    -0.043 A 
ATOM     20  C   UNL     1     -11.234   4.627   1.199  1.00  0.00     0.083 A 
ATOM     21  C   UNL     1     -10.149   5.452   0.904  1.00  0.00     0.028 A 
ATOM     22  C   UNL     1     -12.323   5.133   1.909  1.00  0.00     0.134 A 
ATOM     23  C   UNL     1     -12.336   6.458   2.328  1.00  0.00     0.048 A 
ATOM     24  C   UNL     1     -11.252   7.288   2.032  1.00  0.00     0.008 A 
ATOM     25  Cl  UNL     1     -11.216   2.983   0.679  1.00  0.00    -0.080 Cl
BRANCH  22  26
ATOM     26  O   UNL     1     -13.414   4.364   2.213  1.00  0.00    -0.506 OA
ATOM     27  H   UNL     1     -13.920   4.256   1.386  1.00  0.00     0.293 HD
ENDBRANCH  22  26
ENDBRANCH  18  19
ENDBRANCH  17  18
BRANCH  17  28
ATOM     28  O   UNL     1      -7.192   8.940   1.995  1.00  0.00    -0.383 OA
ATOM     29  H   UNL     1      -6.490   8.840   1.314  1.00  0.00     0.211 HD
ENDBRANCH  17  28
ENDBRANCH  14  17
ENDBRANCH  12  13
BRANCH  12  30
ATOM     30  C   UNL     1      -7.132   3.057   3.135  1.00  0.00     0.018 C 
ATOM     31  C   UNL     1      -8.418   3.458   3.874  1.00  0.00     0.010 C 
BRANCH  30  32
ATOM     32  C   UNL     1      -6.381   1.962   3.931  1.00  0.00     0.002 C 
ATOM     33  C   UNL     1      -5.696   0.896   3.085  1.00  0.00     0.004 C 
ENDBRANCH  30  32
ENDBRANCH  12  30
ENDBRANCH  10  12
ENDBRANCH   1  10
BRANCH   5  34
ATOM     34  C   UNL     1      -3.679   3.881   0.911  1.00  0.00     0.242 C 
ATOM     35  O   UNL     1      -3.627   2.660   1.056  1.00  0.00    -0.273 OA
ATOM     36  N   UNL     1      -3.960   4.470  -0.302  1.00  0.00    -0.354 N 
ATOM     37  H   UNL     1      -3.870   5.484  -0.388  1.00  0.00     0.163 HD
BRANCH  36  38
ATOM     38  C   UNL     1      -4.475   3.717  -1.426  1.00  0.00     0.116 C 
BRANCH  38  39
ATOM     39  C   UNL     1      -3.433   3.673  -2.542  1.00  0.00     0.023 C 
BRANCH  39  40
ATOM     40  C   UNL     1      -2.007   3.759  -2.010  1.00  0.00     0.026 C 
BRANCH  40  41
ATOM     41  C   UNL     1      -1.372   2.371  -1.932  1.00  0.00     0.146 C 
BRANCH  41  42
ATOM     42  N   UNL     1      -0.295   2.376  -0.951  1.00  0.00    -0.254 NA
ATOM     43  C   UNL     1      -0.387   1.643   0.094  1.00  0.00     0.185 C 
ATOM     44  N   UNL     1      -1.368   0.806   0.481  1.00  0.00    -0.370 N 
ATOM     45  N   UNL     1       0.614   1.665   0.989  1.00  0.00    -0.370 N 
ATOM     46  H   UNL     1      -1.422   0.484   1.432  1.00  0.00     0.159 HD
ATOM     47  H   UNL     1      -2.196   0.658  -0.087  1.00  0.00     0.159 HD
ATOM     48  H   UNL     1       1.398   2.265   0.770  1.00  0.00     0.159 HD
ATOM     49  H   UNL     1       0.729   0.960   1.695  1.00  0.00     0.159 HD
ENDBRANCH  41  42
ENDBRANCH  40  41
ENDBRANCH  39  40
ENDBRANCH  38  39
ENDBRANCH  36  38
ENDBRANCH   5  34
BRANCH   8  50
ATOM     50  O   UNL     1      -1.094   0.884   3.533  1.00  0.00    -0.245 OA
BRANCH  50  51
ATOM     51  S   UNL     1      -0.503  -0.625   3.669  1.00  0.00     0.397 S 
ATOM     52  O   UNL     1      -0.010  -0.792   5.018  1.00  0.00    -0.169 OA
ATOM     53  O   UNL     1       0.320  -0.931   2.517  1.00  0.00    -0.169 OA
BRANCH  51  54
ATOM     54  O   UNL     1      -1.837  -1.518   3.577  1.00  0.00    -0.264 OA
ATOM     55  H   UNL     1      -2.472  -1.174   4.238  1.00  0.00     0.236 HD
ENDBRANCH  51  54
ENDBRANCH  50  51
ENDBRANCH   8  50
TORSDOF 19
ENDMDL
MODEL 38
REMARK VINA RESULT:    -6.033     12.609     15.940
REMARK INTER + INTRA:         -16.444
REMARK INTER:                 -12.621
REMARK INTRA:                  -3.822
REMARK UNBOUND:                -4.239
REMARK SMILES CC[C@@H](C)[C@@H](NC(=O)[C@@H](O)Cc1ccc(O)c(Cl)c1)C(=O)N1[C@H](C(=O)NCCCCN=C(N)N)C[C@H]2CC[C@H](OS(=O)(=O)O)C[C@@H]21
REMARK SMILES IDX 22 1 36 2 46 3 35 4 23 5 45 6 37 7 39 8 38 9 20 10 21 11
REMARK SMILES IDX 5 12 6 13 7 14 8 15 9 17 11 18 12 19 17 20 19 21 15 22 14 23
REMARK SMILES IDX 13 24 18 25 16 26 10 28 3 30 4 31 2 32 1 33 24 34 25 35
REMARK SMILES IDX 26 36 27 38 28 39 29 40 30 41 31 42 32 43 33 44 34 45 40 50
REMARK SMILES IDX 41 51 42 52 43 53 44 54
REMARK H PARENT 6 16 16 27 10 29 26 37 33 46 33 47 34 48 34 49 44 55
ROOT
ATOM      1  N   UNL     1      -9.612 -10.538  -1.448  1.00  0.00    -0.326 N 
ATOM      2  C   UNL     1      -9.988  -9.988   0.810  1.00  0.00     0.014 C 
ATOM      3  C   UNL     1      -9.484 -11.108  -0.104  1.00  0.00     0.091 C 
ATOM      4  C   UNL     1     -11.087  -9.346  -0.023  1.00  0.00     0.041 C 
ATOM      5  C   UNL     1     -10.385  -9.272  -1.391  1.00  0.00     0.175 C 
ATOM      6  C   UNL     1      -8.096 -11.533   0.373  1.00  0.00     0.059 C 
ATOM      7  C   UNL     1     -10.317 -10.521   2.191  1.00  0.00     0.008 C 
ATOM      8  C   UNL     1      -7.894 -11.395   1.898  1.00  0.00     0.143 C 
ATOM      9  C   UNL     1      -9.225 -11.500   2.670  1.00  0.00     0.034 C 
ENDROOT
BRANCH   1  10
ATOM     10  C   UNL     1      -9.325 -11.098  -2.681  1.00  0.00     0.246 C 
ATOM     11  O   UNL     1     -10.040 -12.011  -3.108  1.00  0.00    -0.272 OA
BRANCH  10  12
ATOM     12  C   UNL     1      -8.139 -10.540  -3.520  1.00  0.00     0.174 C 
BRANCH  12  13
ATOM     13  N   UNL     1      -8.649  -9.771  -4.654  1.00  0.00    -0.342 N 
ATOM     14  C   UNL     1      -8.240  -8.501  -4.995  1.00  0.00     0.249 C 
ATOM     15  O   UNL     1      -7.372  -7.879  -4.394  1.00  0.00    -0.272 OA
ATOM     16  H   UNL     1      -9.478 -10.091  -5.148  1.00  0.00     0.164 HD
BRANCH  14  17
ATOM     17  C   UNL     1      -8.979  -7.950  -6.233  1.00  0.00     0.207 C 
BRANCH  17  18
ATOM     18  C   UNL     1      -9.645  -6.609  -5.907  1.00  0.00     0.077 C 
BRANCH  18  19
ATOM     19  C   UNL     1      -8.832  -5.440  -6.416  1.00  0.00    -0.043 A 
ATOM     20  C   UNL     1      -7.364  -4.466  -8.083  1.00  0.00     0.083 A 
ATOM     21  C   UNL     1      -8.152  -5.529  -7.640  1.00  0.00     0.028 A 
ATOM     22  C   UNL     1      -7.249  -3.312  -7.308  1.00  0.00     0.134 A 
ATOM     23  C   UNL     1      -7.917  -3.210  -6.093  1.00  0.00     0.048 A 
ATOM     24  C   UNL     1      -8.705  -4.273  -5.646  1.00  0.00     0.008 A 
ATOM     25  Cl  UNL     1      -6.536  -4.595  -9.590  1.00  0.00    -0.080 Cl
BRANCH  22  26
ATOM     26  O   UNL     1      -6.479  -2.249  -7.696  1.00  0.00    -0.506 OA
ATOM     27  H   UNL     1      -5.865  -2.065  -6.961  1.00  0.00     0.293 HD
ENDBRANCH  22  26
ENDBRANCH  18  19
ENDBRANCH  17  18
BRANCH  17  28
ATOM     28  O   UNL     1      -9.974  -8.876  -6.697  1.00  0.00    -0.383 OA
ATOM     29  H   UNL     1      -9.967  -8.814  -7.679  1.00  0.00     0.211 HD
ENDBRANCH  17  28
ENDBRANCH  14  17
ENDBRANCH  12  13
BRANCH  12  30
ATOM     30  C   UNL     1      -7.140 -11.646  -3.955  1.00  0.00     0.018 C 
ATOM     31  C   UNL     1      -7.719 -12.484  -5.106  1.00  0.00     0.010 C 
BRANCH  30  32
ATOM     32  C   UNL     1      -6.692 -12.570  -2.797  1.00  0.00     0.002 C 
ATOM     33  C   UNL     1      -5.388 -12.177  -2.117  1.00  0.00     0.004 C 
ENDBRANCH  30  32
ENDBRANCH  12  30
ENDBRANCH  10  12
ENDBRANCH   1  10
BRANCH   5  34
ATOM     34  C   UNL     1      -9.438  -8.046  -1.483  1.00  0.00     0.242 C 
ATOM     35  O   UNL     1      -8.241  -8.117  -1.207  1.00  0.00    -0.273 OA
ATOM     36  N   UNL     1     -10.045  -6.863  -1.842  1.00  0.00    -0.354 N 
ATOM     37  H   UNL     1     -11.061  -6.842  -1.941  1.00  0.00     0.163 HD
BRANCH  36  38
ATOM     38  C   UNL     1      -9.287  -5.677  -2.183  1.00  0.00     0.116 C 
BRANCH  38  39
ATOM     39  C   UNL     1      -9.272  -4.713  -0.999  1.00  0.00     0.023 C 
BRANCH  39  40
ATOM     40  C   UNL     1     -10.659  -4.502  -0.402  1.00  0.00     0.026 C 
BRANCH  40  41
ATOM     41  C   UNL     1     -10.668  -4.853   1.086  1.00  0.00     0.146 C 
BRANCH  41  42
ATOM     42  N   UNL     1      -9.876  -6.055   1.312  1.00  0.00    -0.254 NA
ATOM     43  C   UNL     1      -9.257  -6.205   2.423  1.00  0.00     0.185 C 
ATOM     44  N   UNL     1      -9.200  -5.398   3.498  1.00  0.00    -0.370 N 
ATOM     45  N   UNL     1      -8.529  -7.319   2.610  1.00  0.00    -0.370 N 
ATOM     46  H   UNL     1      -8.486  -5.523   4.195  1.00  0.00     0.159 HD
ATOM     47  H   UNL     1      -9.705  -4.518   3.531  1.00  0.00     0.159 HD
ATOM     48  H   UNL     1      -8.526  -7.985   1.850  1.00  0.00     0.159 HD
ATOM     49  H   UNL     1      -8.217  -7.618   3.517  1.00  0.00     0.159 HD
ENDBRANCH  41  42
ENDBRANCH  40  41
ENDBRANCH  39  40
ENDBRANCH  38  39
ENDBRANCH  36  38
ENDBRANCH   5  34
BRANCH   8  50
ATOM     50  O   UNL     1      -7.292 -10.136   2.201  1.00  0.00    -0.245 OA
BRANCH  50  51
ATOM     51  S   UNL     1      -6.278 -10.015   3.467  1.00  0.00     0.397 S 
ATOM     52  O   UNL     1      -5.667 -11.308   3.675  1.00  0.00    -0.169 OA
ATOM     53  O   UNL     1      -6.929  -9.300   4.545  1.00  0.00    -0.169 OA
BRANCH  51  54
ATOM     54  O   UNL     1      -5.116  -9.072   2.877  1.00  0.00    -0.264 OA
ATOM     55  H   UNL     1      -4.552  -8.791   3.626  1.00  0.00     0.236 HD
ENDBRANCH  51  54
ENDBRANCH  50  51
ENDBRANCH   8  50
TORSDOF 19
ENDMDL
MODEL 39
REMARK VINA RESULT:    -6.016     12.010     15.859
REMARK INTER + INTRA:         -16.410
REMARK INTER:                 -12.642
REMARK INTRA:                  -3.768
REMARK UNBOUND:                -4.239
REMARK SMILES CC[C@@H](C)[C@@H](NC(=O)[C@@H](O)Cc1ccc(O)c(Cl)c1)C(=O)N1[C@H](C(=O)NCCCCN=C(N)N)C[C@H]2CC[C@H](OS(=O)(=O)O)C[C@@H]21
REMARK SMILES IDX 22 1 36 2 46 3 35 4 23 5 45 6 37 7 39 8 38 9 20 10 21 11
REMARK SMILES IDX 5 12 6 13 7 14 8 15 9 17 11 18 12 19 17 20 19 21 15 22 14 23
REMARK SMILES IDX 13 24 18 25 16 26 10 28 3 30 4 31 2 32 1 33 24 34 25 35
REMARK SMILES IDX 26 36 27 38 28 39 29 40 30 41 31 42 32 43 33 44 34 45 40 50
REMARK SMILES IDX 41 51 42 52 43 53 44 54
REMARK H PARENT 6 16 16 27 10 29 26 37 33 46 33 47 34 48 34 49 44 55
ROOT
ATOM      1  N   UNL     1      -8.762  -7.881  -2.059  1.00  0.00    -0.326 N 
ATOM      2  C   UNL     1      -9.230  -9.886  -0.918  1.00  0.00     0.014 C 
ATOM      3  C   UNL     1      -8.393  -9.299  -2.058  1.00  0.00     0.091 C 
ATOM      4  C   UNL     1     -10.514  -9.073  -0.992  1.00  0.00     0.041 C 
ATOM      5  C   UNL     1      -9.931  -7.659  -1.172  1.00  0.00     0.175 C 
ATOM      6  C   UNL     1      -6.929  -9.667  -1.820  1.00  0.00     0.059 C 
ATOM      7  C   UNL     1      -9.300 -11.397  -1.018  1.00  0.00     0.008 C 
ATOM      8  C   UNL     1      -6.737 -11.024  -1.109  1.00  0.00     0.143 C 
ATOM      9  C   UNL     1      -7.916 -11.984  -1.364  1.00  0.00     0.034 C 
ENDROOT
BRANCH   1  10
ATOM     10  C   UNL     1      -8.337  -6.854  -2.885  1.00  0.00     0.246 C 
ATOM     11  O   UNL     1      -7.167  -6.465  -2.807  1.00  0.00    -0.272 OA
BRANCH  10  12
ATOM     12  C   UNL     1      -9.326  -6.243  -3.919  1.00  0.00     0.174 C 
BRANCH  12  13
ATOM     13  N   UNL     1      -8.914  -6.602  -5.276  1.00  0.00    -0.342 N 
ATOM     14  C   UNL     1      -9.118  -7.829  -5.866  1.00  0.00     0.249 C 
ATOM     15  O   UNL     1      -9.700  -8.759  -5.321  1.00  0.00    -0.272 OA
ATOM     16  H   UNL     1      -8.285  -5.989  -5.790  1.00  0.00     0.164 HD
BRANCH  14  17
ATOM     17  C   UNL     1      -8.552  -7.902  -7.300  1.00  0.00     0.207 C 
BRANCH  17  18
ATOM     18  C   UNL     1      -9.013  -6.694  -8.120  1.00  0.00     0.077 C 
BRANCH  18  19
ATOM     19  C   UNL     1      -7.876  -5.736  -8.398  1.00  0.00    -0.043 A 
ATOM     20  C   UNL     1      -7.015  -3.471  -8.510  1.00  0.00     0.083 A 
ATOM     21  C   UNL     1      -8.050  -4.356  -8.206  1.00  0.00     0.028 A 
ATOM     22  C   UNL     1      -5.805  -3.956  -9.007  1.00  0.00     0.134 A 
ATOM     23  C   UNL     1      -5.619  -5.319  -9.201  1.00  0.00     0.048 A 
ATOM     24  C   UNL     1      -6.654  -6.208  -8.900  1.00  0.00     0.008 A 
ATOM     25  Cl  UNL     1      -7.248  -1.779  -8.269  1.00  0.00    -0.080 Cl
BRANCH  22  26
ATOM     26  O   UNL     1      -4.765  -3.125  -9.329  1.00  0.00    -0.506 OA
ATOM     27  H   UNL     1      -4.689  -2.478  -8.604  1.00  0.00     0.293 HD
ENDBRANCH  22  26
ENDBRANCH  18  19
ENDBRANCH  17  18
BRANCH  17  28
ATOM     28  O   UNL     1      -8.965  -9.111  -7.958  1.00  0.00    -0.383 OA
ATOM     29  H   UNL     1      -8.676  -9.850  -7.375  1.00  0.00     0.211 HD
ENDBRANCH  17  28
ENDBRANCH  14  17
ENDBRANCH  12  13
BRANCH  12  30
ATOM     30  C   UNL     1      -9.511  -4.712  -3.742  1.00  0.00     0.018 C 
ATOM     31  C   UNL     1      -8.510  -3.936  -4.613  1.00  0.00     0.010 C 
BRANCH  30  32
ATOM     32  C   UNL     1      -9.411  -4.241  -2.270  1.00  0.00     0.002 C 
ATOM     33  C   UNL     1     -10.744  -4.034  -1.561  1.00  0.00     0.004 C 
ENDBRANCH  30  32
ENDBRANCH  12  30
ENDBRANCH  10  12
ENDBRANCH   1  10
BRANCH   5  34
ATOM     34  C   UNL     1      -9.485  -7.048   0.183  1.00  0.00     0.242 C 
ATOM     35  O   UNL     1     -10.280  -6.820   1.095  1.00  0.00    -0.273 OA
ATOM     36  N   UNL     1      -8.148  -6.730   0.271  1.00  0.00    -0.354 N 
ATOM     37  H   UNL     1      -7.564  -6.830  -0.560  1.00  0.00     0.163 HD
BRANCH  36  38
ATOM     38  C   UNL     1      -7.523  -6.356   1.522  1.00  0.00     0.116 C 
BRANCH  38  39
ATOM     39  C   UNL     1      -7.086  -7.608   2.278  1.00  0.00     0.023 C 
BRANCH  39  40
ATOM     40  C   UNL     1      -7.754  -7.728   3.643  1.00  0.00     0.026 C 
BRANCH  40  41
ATOM     41  C   UNL     1      -8.870  -8.773   3.610  1.00  0.00     0.146 C 
BRANCH  41  42
ATOM     42  N   UNL     1      -8.329 -10.057   3.184  1.00  0.00    -0.254 NA
ATOM     43  C   UNL     1      -9.120 -10.960   2.737  1.00  0.00     0.185 C 
ATOM     44  N   UNL     1     -10.455 -10.938   2.575  1.00  0.00    -0.370 N 
ATOM     45  N   UNL     1      -8.602 -12.138   2.353  1.00  0.00    -0.370 N 
ATOM     46  H   UNL     1     -10.970 -11.792   2.447  1.00  0.00     0.159 HD
ATOM     47  H   UNL     1     -11.006 -10.116   2.804  1.00  0.00     0.159 HD
ATOM     48  H   UNL     1      -7.599 -12.235   2.435  1.00  0.00     0.159 HD
ATOM     49  H   UNL     1      -9.106 -12.794   1.783  1.00  0.00     0.159 HD
ENDBRANCH  41  42
ENDBRANCH  40  41
ENDBRANCH  39  40
ENDBRANCH  38  39
ENDBRANCH  36  38
ENDBRANCH   5  34
BRANCH   8  50
ATOM     50  O   UNL     1      -6.610 -10.825   0.300  1.00  0.00    -0.245 OA
BRANCH  50  51
ATOM     51  S   UNL     1      -5.374 -11.515   1.100  1.00  0.00     0.397 S 
ATOM     52  O   UNL     1      -5.655 -12.927   1.226  1.00  0.00    -0.169 OA
ATOM     53  O   UNL     1      -5.026 -10.704   2.249  1.00  0.00    -0.169 OA
BRANCH  51  54
ATOM     54  O   UNL     1      -4.177 -11.400   0.032  1.00  0.00    -0.264 OA
ATOM     55  H   UNL     1      -3.765 -10.519   0.139  1.00  0.00     0.236 HD
ENDBRANCH  51  54
ENDBRANCH  50  51
ENDBRANCH   8  50
TORSDOF 19
ENDMDL
MODEL 40
REMARK VINA RESULT:    -5.982     12.073     15.152
REMARK INTER + INTRA:         -16.342
REMARK INTER:                 -13.871
REMARK INTRA:                  -2.470
REMARK UNBOUND:                -4.239
REMARK SMILES CC[C@@H](C)[C@@H](NC(=O)[C@@H](O)Cc1ccc(O)c(Cl)c1)C(=O)N1[C@H](C(=O)NCCCCN=C(N)N)C[C@H]2CC[C@H](OS(=O)(=O)O)C[C@@H]21
REMARK SMILES IDX 22 1 36 2 46 3 35 4 23 5 45 6 37 7 39 8 38 9 20 10 21 11
REMARK SMILES IDX 5 12 6 13 7 14 8 15 9 17 11 18 12 19 17 20 19 21 15 22 14 23
REMARK SMILES IDX 13 24 18 25 16 26 10 28 3 30 4 31 2 32 1 33 24 34 25 35
REMARK SMILES IDX 26 36 27 38 28 39 29 40 30 41 31 42 32 43 33 44 34 45 40 50
REMARK SMILES IDX 41 51 42 52 43 53 44 54
REMARK H PARENT 6 16 16 27 10 29 26 37 33 46 33 47 34 48 34 49 44 55
ROOT
ATOM      1  N   UNL     1      -9.708 -10.378  -1.197  1.00  0.00    -0.326 N 
ATOM      2  C   UNL     1     -10.019  -9.819   1.068  1.00  0.00     0.014 C 
ATOM      3  C   UNL     1      -9.569 -10.954   0.144  1.00  0.00     0.091 C 
ATOM      4  C   UNL     1     -11.114  -9.142   0.259  1.00  0.00     0.041 C 
ATOM      5  C   UNL     1     -10.438  -9.089  -1.123  1.00  0.00     0.175 C 
ATOM      6  C   UNL     1      -8.186 -11.422   0.592  1.00  0.00     0.059 C 
ATOM      7  C   UNL     1     -10.336 -10.343   2.455  1.00  0.00     0.008 C 
ATOM      8  C   UNL     1      -7.948 -11.292   2.112  1.00  0.00     0.143 C 
ATOM      9  C   UNL     1      -9.265 -11.356   2.912  1.00  0.00     0.034 C 
ENDROOT
BRANCH   1  10
ATOM     10  C   UNL     1      -9.464 -10.945  -2.436  1.00  0.00     0.246 C 
ATOM     11  O   UNL     1     -10.302 -11.712  -2.922  1.00  0.00    -0.272 OA
BRANCH  10  12
ATOM     12  C   UNL     1      -8.165 -10.573  -3.208  1.00  0.00     0.174 C 
BRANCH  12  13
ATOM     13  N   UNL     1      -8.504  -9.895  -4.458  1.00  0.00    -0.342 N 
ATOM     14  C   UNL     1      -8.130  -8.612  -4.788  1.00  0.00     0.249 C 
ATOM     15  O   UNL     1      -7.439  -7.898  -4.072  1.00  0.00    -0.272 OA
ATOM     16  H   UNL     1      -9.200 -10.301  -5.079  1.00  0.00     0.164 HD
BRANCH  14  17
ATOM     17  C   UNL     1      -8.658  -8.174  -6.170  1.00  0.00     0.207 C 
BRANCH  17  18
ATOM     18  C   UNL     1      -9.547  -6.933  -6.036  1.00  0.00     0.077 C 
BRANCH  18  19
ATOM     19  C   UNL     1      -8.826  -5.676  -6.468  1.00  0.00    -0.043 A 
ATOM     20  C   UNL     1      -7.450  -4.488  -8.074  1.00  0.00     0.083 A 
ATOM     21  C   UNL     1      -8.156  -5.632  -7.700  1.00  0.00     0.028 A 
ATOM     22  C   UNL     1      -7.409  -3.384  -7.222  1.00  0.00     0.134 A 
ATOM     23  C   UNL     1      -8.069  -3.413  -5.999  1.00  0.00     0.048 A 
ATOM     24  C   UNL     1      -8.774  -4.558  -5.621  1.00  0.00     0.008 A 
ATOM     25  Cl  UNL     1      -6.632  -4.454  -9.592  1.00  0.00    -0.080 Cl
BRANCH  22  26
ATOM     26  O   UNL     1      -6.722  -2.244  -7.541  1.00  0.00    -0.506 OA
ATOM     27  H   UNL     1      -6.115  -2.066  -6.799  1.00  0.00     0.293 HD
ENDBRANCH  22  26
ENDBRANCH  18  19
ENDBRANCH  17  18
BRANCH  17  28
ATOM     28  O   UNL     1      -9.405  -9.229  -6.797  1.00  0.00    -0.383 OA
ATOM     29  H   UNL     1      -9.134  -9.229  -7.743  1.00  0.00     0.211 HD
ENDBRANCH  17  28
ENDBRANCH  14  17
ENDBRANCH  12  13
BRANCH  12  30
ATOM     30  C   UNL     1      -7.229 -11.792  -3.430  1.00  0.00     0.018 C 
ATOM     31  C   UNL     1      -7.540 -12.911  -2.423  1.00  0.00     0.010 C 
BRANCH  30  32
ATOM     32  C   UNL     1      -5.723 -11.437  -3.383  1.00  0.00     0.002 C 
ATOM     33  C   UNL     1      -4.795 -12.586  -3.012  1.00  0.00     0.004 C 
ENDBRANCH  30  32
ENDBRANCH  12  30
ENDBRANCH  10  12
ENDBRANCH   1  10
BRANCH   5  34
ATOM     34  C   UNL     1      -9.456  -7.892  -1.234  1.00  0.00     0.242 C 
ATOM     35  O   UNL     1      -8.275  -7.977  -0.897  1.00  0.00    -0.273 OA
ATOM     36  N   UNL     1     -10.013  -6.717  -1.684  1.00  0.00    -0.354 N 
ATOM     37  H   UNL     1     -11.022  -6.676  -1.834  1.00  0.00     0.163 HD
BRANCH  36  38
ATOM     38  C   UNL     1      -9.208  -5.570  -2.051  1.00  0.00     0.116 C 
BRANCH  38  39
ATOM     39  C   UNL     1      -9.594  -4.369  -1.190  1.00  0.00     0.023 C 
BRANCH  39  40
ATOM     40  C   UNL     1     -10.960  -3.802  -1.561  1.00  0.00     0.026 C 
BRANCH  40  41
ATOM     41  C   UNL     1     -10.960  -2.277  -1.460  1.00  0.00     0.146 C 
BRANCH  41  42
ATOM     42  N   UNL     1     -10.363  -1.704  -2.659  1.00  0.00    -0.254 NA
ATOM     43  C   UNL     1     -11.026  -1.695  -3.754  1.00  0.00     0.185 C 
ATOM     44  N   UNL     1     -12.264  -2.150  -4.020  1.00  0.00    -0.370 N 
ATOM     45  N   UNL     1     -10.456  -1.167  -4.850  1.00  0.00    -0.370 N 
ATOM     46  H   UNL     1     -12.563  -2.301  -4.968  1.00  0.00     0.159 HD
ATOM     47  H   UNL     1     -12.844  -2.569  -3.299  1.00  0.00     0.159 HD
ATOM     48  H   UNL     1      -9.524  -0.793  -4.734  1.00  0.00     0.159 HD
ATOM     49  H   UNL     1     -10.982  -0.910  -5.666  1.00  0.00     0.159 HD
ENDBRANCH  41  42
ENDBRANCH  40  41
ENDBRANCH  39  40
ENDBRANCH  38  39
ENDBRANCH  36  38
ENDBRANCH   5  34
BRANCH   8  50
ATOM     50  O   UNL     1      -7.300 -10.053   2.403  1.00  0.00    -0.245 OA
BRANCH  50  51
ATOM     51  S   UNL     1      -6.130 -10.005   3.531  1.00  0.00     0.397 S 
ATOM     52  O   UNL     1      -5.091  -9.117   3.059  1.00  0.00    -0.169 OA
ATOM     53  O   UNL     1      -5.833 -11.349   3.982  1.00  0.00    -0.169 OA
BRANCH  51  54
ATOM     54  O   UNL     1      -6.857  -9.227   4.736  1.00  0.00    -0.264 OA
ATOM     55  H   UNL     1      -6.505  -9.584   5.577  1.00  0.00     0.236 HD
ENDBRANCH  51  54
ENDBRANCH  50  51
ENDBRANCH   8  50
TORSDOF 19
ENDMDL
MODEL 41
REMARK VINA RESULT:    -5.934      3.662      7.945
REMARK INTER + INTRA:         -16.245
REMARK INTER:                 -10.921
REMARK INTRA:                  -5.324
REMARK UNBOUND:                -4.239
REMARK SMILES CC[C@@H](C)[C@@H](NC(=O)[C@@H](O)Cc1ccc(O)c(Cl)c1)C(=O)N1[C@H](C(=O)NCCCCN=C(N)N)C[C@H]2CC[C@H](OS(=O)(=O)O)C[C@@H]21
REMARK SMILES IDX 22 1 36 2 46 3 35 4 23 5 45 6 37 7 39 8 38 9 20 10 21 11
REMARK SMILES IDX 5 12 6 13 7 14 8 15 9 17 11 18 12 19 17 20 19 21 15 22 14 23
REMARK SMILES IDX 13 24 18 25 16 26 10 28 3 30 4 31 2 32 1 33 24 34 25 35
REMARK SMILES IDX 26 36 27 38 28 39 29 40 30 41 31 42 32 43 33 44 34 45 40 50
REMARK SMILES IDX 41 51 42 52 43 53 44 54
REMARK H PARENT 6 16 16 27 10 29 26 37 33 46 33 47 34 48 34 49 44 55
ROOT
ATOM      1  N   UNL     1     -16.426   5.092 -11.975  1.00  0.00    -0.326 N 
ATOM      2  C   UNL     1     -16.836   7.389 -11.665  1.00  0.00     0.014 C 
ATOM      3  C   UNL     1     -17.294   5.999 -11.217  1.00  0.00     0.091 C 
ATOM      4  C   UNL     1     -16.468   7.167 -13.124  1.00  0.00     0.041 C 
ATOM      5  C   UNL     1     -15.678   5.850 -13.007  1.00  0.00     0.175 C 
ATOM      6  C   UNL     1     -17.244   5.942  -9.691  1.00  0.00     0.059 C 
ATOM      7  C   UNL     1     -17.870   8.440 -11.311  1.00  0.00     0.008 C 
ATOM      8  C   UNL     1     -17.535   7.297  -9.009  1.00  0.00     0.143 C 
ATOM      9  C   UNL     1     -18.416   8.209  -9.886  1.00  0.00     0.034 C 
ENDROOT
BRANCH   1  10
ATOM     10  C   UNL     1     -16.391   3.708 -11.996  1.00  0.00     0.246 C 
ATOM     11  O   UNL     1     -16.521   3.120 -13.074  1.00  0.00    -0.272 OA
BRANCH  10  12
ATOM     12  C   UNL     1     -16.145   2.927 -10.672  1.00  0.00     0.174 C 
BRANCH  12  13
ATOM     13  N   UNL     1     -14.710   2.827 -10.411  1.00  0.00    -0.342 N 
ATOM     14  C   UNL     1     -14.097   3.166  -9.225  1.00  0.00     0.249 C 
ATOM     15  O   UNL     1     -14.699   3.568  -8.237  1.00  0.00    -0.272 OA
ATOM     16  H   UNL     1     -14.068   2.660 -11.182  1.00  0.00     0.164 HD
BRANCH  14  17
ATOM     17  C   UNL     1     -12.567   2.966  -9.267  1.00  0.00     0.207 C 
BRANCH  17  18
ATOM     18  C   UNL     1     -12.009   2.807  -7.849  1.00  0.00     0.077 C 
BRANCH  18  19
ATOM     19  C   UNL     1     -10.645   2.154  -7.852  1.00  0.00    -0.043 A 
ATOM     20  C   UNL     1      -8.294   2.191  -7.254  1.00  0.00     0.083 A 
ATOM     21  C   UNL     1      -9.562   2.772  -7.207  1.00  0.00     0.028 A 
ATOM     22  C   UNL     1      -8.100   0.994  -7.944  1.00  0.00     0.134 A 
ATOM     23  C   UNL     1      -9.163   0.371  -8.587  1.00  0.00     0.048 A 
ATOM     24  C   UNL     1     -10.433   0.951  -8.544  1.00  0.00     0.008 A 
ATOM     25  Cl  UNL     1      -6.976   2.965  -6.456  1.00  0.00    -0.080 Cl
BRANCH  22  26
ATOM     26  O   UNL     1      -6.873   0.392  -8.027  1.00  0.00    -0.506 OA
ATOM     27  H   UNL     1      -6.860  -0.103  -8.867  1.00  0.00     0.293 HD
ENDBRANCH  22  26
ENDBRANCH  18  19
ENDBRANCH  17  18
BRANCH  17  28
ATOM     28  O   UNL     1     -11.918   4.073  -9.914  1.00  0.00    -0.383 OA
ATOM     29  H   UNL     1     -10.996   4.086  -9.569  1.00  0.00     0.211 HD
ENDBRANCH  17  28
ENDBRANCH  14  17
ENDBRANCH  12  13
BRANCH  12  30
ATOM     30  C   UNL     1     -16.848   1.543 -10.653  1.00  0.00     0.018 C 
ATOM     31  C   UNL     1     -17.744   1.402  -9.413  1.00  0.00     0.010 C 
BRANCH  30  32
ATOM     32  C   UNL     1     -15.869   0.347 -10.740  1.00  0.00     0.002 C 
ATOM     33  C   UNL     1     -15.531  -0.316  -9.411  1.00  0.00     0.004 C 
ENDBRANCH  30  32
ENDBRANCH  12  30
ENDBRANCH  10  12
ENDBRANCH   1  10
BRANCH   5  34
ATOM     34  C   UNL     1     -14.214   6.099 -12.555  1.00  0.00     0.242 C 
ATOM     35  O   UNL     1     -13.685   5.450 -11.652  1.00  0.00    -0.273 OA
ATOM     36  N   UNL     1     -13.570   7.133 -13.197  1.00  0.00    -0.354 N 
ATOM     37  H   UNL     1     -14.100   7.711 -13.851  1.00  0.00     0.163 HD
BRANCH  36  38
ATOM     38  C   UNL     1     -12.147   7.364 -13.057  1.00  0.00     0.116 C 
BRANCH  38  39
ATOM     39  C   UNL     1     -11.880   8.857 -12.881  1.00  0.00     0.023 C 
BRANCH  39  40
ATOM     40  C   UNL     1     -12.875   9.520 -11.935  1.00  0.00     0.026 C 
BRANCH  40  41
ATOM     41  C   UNL     1     -12.369   9.471 -10.494  1.00  0.00     0.146 C 
BRANCH  41  42
ATOM     42  N   UNL     1     -13.196   8.562  -9.712  1.00  0.00    -0.254 NA
ATOM     43  C   UNL     1     -12.732   7.419  -9.371  1.00  0.00     0.185 C 
ATOM     44  N   UNL     1     -11.532   6.862  -9.620  1.00  0.00    -0.370 N 
ATOM     45  N   UNL     1     -13.512   6.593  -8.654  1.00  0.00    -0.370 N 
ATOM     46  H   UNL     1     -11.392   5.873  -9.506  1.00  0.00     0.159 HD
ATOM     47  H   UNL     1     -10.814   7.356 -10.140  1.00  0.00     0.159 HD
ATOM     48  H   UNL     1     -14.431   6.939  -8.415  1.00  0.00     0.159 HD
ATOM     49  H   UNL     1     -13.150   5.800  -8.155  1.00  0.00     0.159 HD
ENDBRANCH  41  42
ENDBRANCH  40  41
ENDBRANCH  39  40
ENDBRANCH  38  39
ENDBRANCH  36  38
ENDBRANCH   5  34
BRANCH   8  50
ATOM     50  O   UNL     1     -16.311   7.978  -8.732  1.00  0.00    -0.245 OA
BRANCH  50  51
ATOM     51  S   UNL     1     -16.264   9.092  -7.548  1.00  0.00     0.397 S 
ATOM     52  O   UNL     1     -16.899   8.528  -6.378  1.00  0.00    -0.169 OA
ATOM     53  O   UNL     1     -16.656  10.382  -8.077  1.00  0.00    -0.169 OA
BRANCH  51  54
ATOM     54  O   UNL     1     -14.693   9.154  -7.207  1.00  0.00    -0.264 OA
ATOM     55  H   UNL     1     -14.261   8.398  -7.655  1.00  0.00     0.236 HD
ENDBRANCH  51  54
ENDBRANCH  50  51
ENDBRANCH   8  50
TORSDOF 19
ENDMDL
MODEL 42
REMARK VINA RESULT:    -5.934     12.181     17.732
REMARK INTER + INTRA:         -16.243
REMARK INTER:                 -12.326
REMARK INTRA:                  -3.918
REMARK UNBOUND:                -4.239
REMARK SMILES CC[C@@H](C)[C@@H](NC(=O)[C@@H](O)Cc1ccc(O)c(Cl)c1)C(=O)N1[C@H](C(=O)NCCCCN=C(N)N)C[C@H]2CC[C@H](OS(=O)(=O)O)C[C@@H]21
REMARK SMILES IDX 22 1 36 2 46 3 35 4 23 5 45 6 37 7 39 8 38 9 20 10 21 11
REMARK SMILES IDX 5 12 6 13 7 14 8 15 9 17 11 18 12 19 17 20 19 21 15 22 14 23
REMARK SMILES IDX 13 24 18 25 16 26 10 28 3 30 4 31 2 32 1 33 24 34 25 35
REMARK SMILES IDX 26 36 27 38 28 39 29 40 30 41 31 42 32 43 33 44 34 45 40 50
REMARK SMILES IDX 41 51 42 52 43 53 44 54
REMARK H PARENT 6 16 16 27 10 29 26 37 33 46 33 47 34 48 34 49 44 55
ROOT
ATOM      1  N   UNL     1      -4.440  -6.623  -5.487  1.00  0.00    -0.326 N 
ATOM      2  C   UNL     1      -6.448  -5.745  -4.627  1.00  0.00     0.014 C 
ATOM      3  C   UNL     1      -5.497  -5.665  -5.825  1.00  0.00     0.091 C 
ATOM      4  C   UNL     1      -5.499  -5.987  -3.462  1.00  0.00     0.041 C 
ATOM      5  C   UNL     1      -4.582  -7.060  -4.077  1.00  0.00     0.175 C 
ATOM      6  C   UNL     1      -6.306  -5.899  -7.099  1.00  0.00     0.059 C 
ATOM      7  C   UNL     1      -7.378  -4.549  -4.592  1.00  0.00     0.008 C 
ATOM      8  C   UNL     1      -7.762  -5.390  -7.014  1.00  0.00     0.143 C 
ATOM      9  C   UNL     1      -7.913  -4.234  -6.005  1.00  0.00     0.034 C 
ENDROOT
BRANCH   1  10
ATOM     10  C   UNL     1      -3.296  -6.965  -6.188  1.00  0.00     0.246 C 
ATOM     11  O   UNL     1      -3.347  -7.888  -7.009  1.00  0.00    -0.272 OA
BRANCH  10  12
ATOM     12  C   UNL     1      -1.986  -6.157  -5.960  1.00  0.00     0.174 C 
BRANCH  12  13
ATOM     13  N   UNL     1      -1.416  -6.488  -4.654  1.00  0.00    -0.342 N 
ATOM     14  C   UNL     1      -0.116  -6.883  -4.437  1.00  0.00     0.249 C 
ATOM     15  O   UNL     1       0.726  -6.976  -5.322  1.00  0.00    -0.272 OA
ATOM     16  H   UNL     1      -2.031  -6.608  -3.853  1.00  0.00     0.164 HD
BRANCH  14  17
ATOM     17  C   UNL     1       0.176  -7.179  -2.950  1.00  0.00     0.207 C 
BRANCH  17  18
ATOM     18  C   UNL     1       1.490  -6.518  -2.521  1.00  0.00     0.077 C 
BRANCH  18  19
ATOM     19  C   UNL     1       1.468  -6.117  -1.063  1.00  0.00    -0.043 A 
ATOM     20  C   UNL     1       2.224  -6.442   1.219  1.00  0.00     0.083 A 
ATOM     21  C   UNL     1       2.283  -6.781  -0.133  1.00  0.00     0.028 A 
ATOM     22  C   UNL     1       1.351  -5.443   1.650  1.00  0.00     0.134 A 
ATOM     23  C   UNL     1       0.537  -4.777   0.740  1.00  0.00     0.048 A 
ATOM     24  C   UNL     1       0.594  -5.116  -0.614  1.00  0.00     0.008 A 
ATOM     25  Cl  UNL     1       3.234  -7.269   2.346  1.00  0.00    -0.080 Cl
BRANCH  22  26
ATOM     26  O   UNL     1       1.250  -5.083   2.967  1.00  0.00    -0.506 OA
ATOM     27  H   UNL     1       0.685  -5.751   3.397  1.00  0.00     0.293 HD
ENDBRANCH  22  26
ENDBRANCH  18  19
ENDBRANCH  17  18
BRANCH  17  28
ATOM     28  O   UNL     1       0.253  -8.593  -2.709  1.00  0.00    -0.383 OA
ATOM     29  H   UNL     1       0.383  -8.697  -1.739  1.00  0.00     0.211 HD
ENDBRANCH  17  28
ENDBRANCH  14  17
ENDBRANCH  12  13
BRANCH  12  30
ATOM     30  C   UNL     1      -2.183  -4.629  -6.150  1.00  0.00     0.018 C 
ATOM     31  C   UNL     1      -1.041  -4.030  -6.985  1.00  0.00     0.010 C 
BRANCH  30  32
ATOM     32  C   UNL     1      -2.334  -3.851  -4.820  1.00  0.00     0.002 C 
ATOM     33  C   UNL     1      -3.503  -2.877  -4.763  1.00  0.00     0.004 C 
ENDBRANCH  30  32
ENDBRANCH  12  30
ENDBRANCH  10  12
ENDBRANCH   1  10
BRANCH   5  34
ATOM     34  C   UNL     1      -5.222  -8.472  -4.000  1.00  0.00     0.242 C 
ATOM     35  O   UNL     1      -6.067  -8.856  -4.808  1.00  0.00    -0.273 OA
ATOM     36  N   UNL     1      -4.815  -9.242  -2.933  1.00  0.00    -0.354 N 
ATOM     37  H   UNL     1      -4.203  -8.824  -2.231  1.00  0.00     0.163 HD
BRANCH  36  38
ATOM     38  C   UNL     1      -5.141 -10.649  -2.826  1.00  0.00     0.116 C 
BRANCH  38  39
ATOM     39  C   UNL     1      -3.950 -11.492  -3.273  1.00  0.00     0.023 C 
BRANCH  39  40
ATOM     40  C   UNL     1      -2.656 -10.687  -3.335  1.00  0.00     0.026 C 
BRANCH  40  41
ATOM     41  C   UNL     1      -1.677 -11.311  -4.330  1.00  0.00     0.146 C 
BRANCH  41  42
ATOM     42  N   UNL     1      -1.670 -10.537  -5.565  1.00  0.00    -0.254 NA
ATOM     43  C   UNL     1      -0.569 -10.054  -6.003  1.00  0.00     0.185 C 
ATOM     44  N   UNL     1       0.675 -10.137  -5.496  1.00  0.00    -0.370 N 
ATOM     45  N   UNL     1      -0.585  -9.341  -7.141  1.00  0.00    -0.370 N 
ATOM     46  H   UNL     1       1.398  -9.511  -5.808  1.00  0.00     0.159 HD
ATOM     47  H   UNL     1       0.870 -10.652  -4.644  1.00  0.00     0.159 HD
ATOM     48  H   UNL     1      -1.483  -9.238  -7.594  1.00  0.00     0.159 HD
ATOM     49  H   UNL     1       0.247  -9.137  -7.667  1.00  0.00     0.159 HD
ENDBRANCH  41  42
ENDBRANCH  40  41
ENDBRANCH  39  40
ENDBRANCH  38  39
ENDBRANCH  36  38
ENDBRANCH   5  34
BRANCH   8  50
ATOM     50  O   UNL     1      -8.629  -6.453  -6.618  1.00  0.00    -0.245 OA
BRANCH  50  51
ATOM     51  S   UNL     1      -9.514  -7.228  -7.742  1.00  0.00     0.397 S 
ATOM     52  O   UNL     1      -9.633  -6.361  -8.892  1.00  0.00    -0.169 OA
ATOM     53  O   UNL     1     -10.675  -7.827  -7.119  1.00  0.00    -0.169 OA
BRANCH  51  54
ATOM     54  O   UNL     1      -8.524  -8.414  -8.189  1.00  0.00    -0.264 OA
ATOM     55  H   UNL     1      -8.464  -8.401  -9.166  1.00  0.00     0.236 HD
ENDBRANCH  51  54
ENDBRANCH  50  51
ENDBRANCH   8  50
TORSDOF 19
ENDMDL
MODEL 43
REMARK VINA RESULT:    -5.911     13.692     17.536
REMARK INTER + INTRA:         -16.198
REMARK INTER:                 -13.648
REMARK INTRA:                  -2.550
REMARK UNBOUND:                -4.239
REMARK SMILES CC[C@@H](C)[C@@H](NC(=O)[C@@H](O)Cc1ccc(O)c(Cl)c1)C(=O)N1[C@H](C(=O)NCCCCN=C(N)N)C[C@H]2CC[C@H](OS(=O)(=O)O)C[C@@H]21
REMARK SMILES IDX 22 1 36 2 46 3 35 4 23 5 45 6 37 7 39 8 38 9 20 10 21 11
REMARK SMILES IDX 5 12 6 13 7 14 8 15 9 17 11 18 12 19 17 20 19 21 15 22 14 23
REMARK SMILES IDX 13 24 18 25 16 26 10 28 3 30 4 31 2 32 1 33 24 34 25 35
REMARK SMILES IDX 26 36 27 38 28 39 29 40 30 41 31 42 32 43 33 44 34 45 40 50
REMARK SMILES IDX 41 51 42 52 43 53 44 54
REMARK H PARENT 6 16 16 27 10 29 26 37 33 46 33 47 34 48 34 49 44 55
ROOT
ATOM      1  N   UNL     1      -4.313   3.017   2.744  1.00  0.00    -0.326 N 
ATOM      2  C   UNL     1      -6.324   2.575   3.885  1.00  0.00     0.014 C 
ATOM      3  C   UNL     1      -4.807   2.388   3.972  1.00  0.00     0.091 C 
ATOM      4  C   UNL     1      -6.591   2.456   2.392  1.00  0.00     0.041 C 
ATOM      5  C   UNL     1      -5.448   3.328   1.841  1.00  0.00     0.175 C 
ATOM      6  C   UNL     1      -4.328   2.943   5.313  1.00  0.00     0.059 C 
ATOM      7  C   UNL     1      -7.041   1.647   4.845  1.00  0.00     0.008 C 
ATOM      8  C   UNL     1      -5.364   2.801   6.449  1.00  0.00     0.143 C 
ATOM      9  C   UNL     1      -6.326   1.620   6.212  1.00  0.00     0.034 C 
ENDROOT
BRANCH   1  10
ATOM     10  C   UNL     1      -3.019   3.139   2.267  1.00  0.00     0.246 C 
ATOM     11  O   UNL     1      -2.350   4.127   2.589  1.00  0.00    -0.272 OA
BRANCH  10  12
ATOM     12  C   UNL     1      -2.421   2.012   1.375  1.00  0.00     0.174 C 
BRANCH  12  13
ATOM     13  N   UNL     1      -1.343   1.330   2.090  1.00  0.00    -0.342 N 
ATOM     14  C   UNL     1      -1.515   0.282   2.967  1.00  0.00     0.249 C 
ATOM     15  O   UNL     1      -2.603  -0.217   3.227  1.00  0.00    -0.272 OA
ATOM     16  H   UNL     1      -0.409   1.732   2.096  1.00  0.00     0.164 HD
BRANCH  14  17
ATOM     17  C   UNL     1      -0.185  -0.211   3.574  1.00  0.00     0.207 C 
BRANCH  17  18
ATOM     18  C   UNL     1       0.755   0.970   3.838  1.00  0.00     0.077 C 
BRANCH  18  19
ATOM     19  C   UNL     1       0.257   1.842   4.969  1.00  0.00    -0.043 A 
ATOM     20  C   UNL     1      -0.652   2.067   7.207  1.00  0.00     0.083 A 
ATOM     21  C   UNL     1      -0.147   1.265   6.183  1.00  0.00     0.028 A 
ATOM     22  C   UNL     1      -0.758   3.446   7.025  1.00  0.00     0.134 A 
ATOM     23  C   UNL     1      -0.362   4.031   5.828  1.00  0.00     0.048 A 
ATOM     24  C   UNL     1       0.143   3.230   4.801  1.00  0.00     0.008 A 
ATOM     25  Cl  UNL     1      -1.143   1.339   8.691  1.00  0.00    -0.080 Cl
BRANCH  22  26
ATOM     26  O   UNL     1      -1.257   4.272   7.996  1.00  0.00    -0.506 OA
ATOM     27  H   UNL     1      -0.754   5.106   7.940  1.00  0.00     0.293 HD
ENDBRANCH  22  26
ENDBRANCH  18  19
ENDBRANCH  17  18
BRANCH  17  28
ATOM     28  O   UNL     1       0.465  -1.151   2.703  1.00  0.00    -0.383 OA
ATOM     29  H   UNL     1      -0.212  -1.830   2.482  1.00  0.00     0.211 HD
ENDBRANCH  17  28
ENDBRANCH  14  17
ENDBRANCH  12  13
BRANCH  12  30
ATOM     30  C   UNL     1      -1.974   2.525  -0.020  1.00  0.00     0.018 C 
ATOM     31  C   UNL     1      -1.531   1.357  -0.915  1.00  0.00     0.010 C 
BRANCH  30  32
ATOM     32  C   UNL     1      -0.863   3.601   0.039  1.00  0.00     0.002 C 
ATOM     33  C   UNL     1       0.551   3.068   0.227  1.00  0.00     0.004 C 
ENDBRANCH  30  32
ENDBRANCH  12  30
ENDBRANCH  10  12
ENDBRANCH   1  10
BRANCH   5  34
ATOM     34  C   UNL     1      -5.801   4.839   1.901  1.00  0.00     0.242 C 
ATOM     35  O   UNL     1      -5.320   5.594   2.745  1.00  0.00    -0.273 OA
ATOM     36  N   UNL     1      -6.732   5.260   0.977  1.00  0.00    -0.354 N 
ATOM     37  H   UNL     1      -7.184   4.564   0.383  1.00  0.00     0.163 HD
BRANCH  36  38
ATOM     38  C   UNL     1      -7.015   6.662   0.750  1.00  0.00     0.116 C 
BRANCH  38  39
ATOM     39  C   UNL     1      -8.475   6.957   1.088  1.00  0.00     0.023 C 
BRANCH  39  40
ATOM     40  C   UNL     1      -8.975   8.243   0.440  1.00  0.00     0.026 C 
BRANCH  40  41
ATOM     41  C   UNL     1      -8.741   9.441   1.361  1.00  0.00     0.146 C 
BRANCH  41  42
ATOM     42  N   UNL     1      -7.501  10.111   0.992  1.00  0.00    -0.254 NA
ATOM     43  C   UNL     1      -7.520  11.354   0.687  1.00  0.00     0.185 C 
ATOM     44  N   UNL     1      -8.550  12.219   0.644  1.00  0.00    -0.370 N 
ATOM     45  N   UNL     1      -6.367  11.953   0.346  1.00  0.00    -0.370 N 
ATOM     46  H   UNL     1      -8.464  13.095   0.157  1.00  0.00     0.159 HD
ATOM     47  H   UNL     1      -9.494  11.936   0.887  1.00  0.00     0.159 HD
ATOM     48  H   UNL     1      -5.539  11.373   0.361  1.00  0.00     0.159 HD
ATOM     49  H   UNL     1      -6.257  12.951   0.327  1.00  0.00     0.159 HD
ENDBRANCH  41  42
ENDBRANCH  40  41
ENDBRANCH  39  40
ENDBRANCH  38  39
ENDBRANCH  36  38
ENDBRANCH   5  34
BRANCH   8  50
ATOM     50  O   UNL     1      -6.135   3.998   6.562  1.00  0.00    -0.245 OA
BRANCH  50  51
ATOM     51  S   UNL     1      -6.894   4.335   7.960  1.00  0.00     0.397 S 
ATOM     52  O   UNL     1      -6.112   3.775   9.039  1.00  0.00    -0.169 OA
ATOM     53  O   UNL     1      -8.309   4.058   7.824  1.00  0.00    -0.169 OA
BRANCH  51  54
ATOM     54  O   UNL     1      -6.709   5.929   8.067  1.00  0.00    -0.264 OA
ATOM     55  H   UNL     1      -7.481   6.348   7.636  1.00  0.00     0.236 HD
ENDBRANCH  51  54
ENDBRANCH  50  51
ENDBRANCH   8  50
TORSDOF 19
ENDMDL
MODEL 44
REMARK VINA RESULT:    -5.900     12.940     17.792
REMARK INTER + INTRA:         -16.176
REMARK INTER:                 -13.641
REMARK INTRA:                  -2.535
REMARK UNBOUND:                -4.239
REMARK SMILES CC[C@@H](C)[C@@H](NC(=O)[C@@H](O)Cc1ccc(O)c(Cl)c1)C(=O)N1[C@H](C(=O)NCCCCN=C(N)N)C[C@H]2CC[C@H](OS(=O)(=O)O)C[C@@H]21
REMARK SMILES IDX 22 1 36 2 46 3 35 4 23 5 45 6 37 7 39 8 38 9 20 10 21 11
REMARK SMILES IDX 5 12 6 13 7 14 8 15 9 17 11 18 12 19 17 20 19 21 15 22 14 23
REMARK SMILES IDX 13 24 18 25 16 26 10 28 3 30 4 31 2 32 1 33 24 34 25 35
REMARK SMILES IDX 26 36 27 38 28 39 29 40 30 41 31 42 32 43 33 44 34 45 40 50
REMARK SMILES IDX 41 51 42 52 43 53 44 54
REMARK H PARENT 6 16 16 27 10 29 26 37 33 46 33 47 34 48 34 49 44 55
ROOT
ATOM      1  N   UNL     1      -1.632   2.656  -0.911  1.00  0.00    -0.326 N 
ATOM      2  C   UNL     1      -1.871   2.146  -3.197  1.00  0.00     0.014 C 
ATOM      3  C   UNL     1      -2.582   2.812  -2.016  1.00  0.00     0.091 C 
ATOM      4  C   UNL     1      -1.119   1.003  -2.534  1.00  0.00     0.041 C 
ATOM      5  C   UNL     1      -0.540   1.732  -1.308  1.00  0.00     0.175 C 
ATOM      6  C   UNL     1      -2.985   4.226  -2.430  1.00  0.00     0.059 C 
ATOM      7  C   UNL     1      -2.847   1.844  -4.317  1.00  0.00     0.008 C 
ATOM      8  C   UNL     1      -3.318   4.363  -3.931  1.00  0.00     0.143 C 
ATOM      9  C   UNL     1      -3.805   3.033  -4.541  1.00  0.00     0.034 C 
ENDROOT
BRANCH   1  10
ATOM     10  C   UNL     1      -1.737   3.047   0.413  1.00  0.00     0.246 C 
ATOM     11  O   UNL     1      -1.020   3.963   0.828  1.00  0.00    -0.272 OA
BRANCH  10  12
ATOM     12  C   UNL     1      -2.783   2.356   1.335  1.00  0.00     0.174 C 
BRANCH  12  13
ATOM     13  N   UNL     1      -2.638   2.844   2.706  1.00  0.00    -0.342 N 
ATOM     14  C   UNL     1      -3.587   3.568   3.392  1.00  0.00     0.249 C 
ATOM     15  O   UNL     1      -4.684   3.862   2.933  1.00  0.00    -0.272 OA
ATOM     16  H   UNL     1      -1.727   2.813   3.158  1.00  0.00     0.164 HD
BRANCH  14  17
ATOM     17  C   UNL     1      -3.130   3.952   4.816  1.00  0.00     0.207 C 
BRANCH  17  18
ATOM     18  C   UNL     1      -2.060   2.976   5.316  1.00  0.00     0.077 C 
BRANCH  18  19
ATOM     19  C   UNL     1      -0.691   3.616   5.359  1.00  0.00    -0.043 A 
ATOM     20  C   UNL     1       1.684   3.536   4.870  1.00  0.00     0.083 A 
ATOM     21  C   UNL     1       0.413   2.966   4.786  1.00  0.00     0.028 A 
ATOM     22  C   UNL     1       1.860   4.754   5.527  1.00  0.00     0.134 A 
ATOM     23  C   UNL     1       0.775   5.409   6.099  1.00  0.00     0.048 A 
ATOM     24  C   UNL     1      -0.497   4.840   6.017  1.00  0.00     0.008 A 
ATOM     25  Cl  UNL     1       3.028   2.721   4.160  1.00  0.00    -0.080 Cl
BRANCH  22  26
ATOM     26  O   UNL     1       3.088   5.347   5.644  1.00  0.00    -0.506 OA
ATOM     27  H   UNL     1       3.732   4.742   5.232  1.00  0.00     0.293 HD
ENDBRANCH  22  26
ENDBRANCH  18  19
ENDBRANCH  17  18
BRANCH  17  28
ATOM     28  O   UNL     1      -4.237   3.957   5.731  1.00  0.00    -0.383 OA
ATOM     29  H   UNL     1      -4.468   4.903   5.874  1.00  0.00     0.211 HD
ENDBRANCH  17  28
ENDBRANCH  14  17
ENDBRANCH  12  13
BRANCH  12  30
ATOM     30  C   UNL     1      -2.729   0.807   1.249  1.00  0.00     0.018 C 
ATOM     31  C   UNL     1      -3.943   0.178   1.951  1.00  0.00     0.010 C 
BRANCH  30  32
ATOM     32  C   UNL     1      -1.419   0.199   1.806  1.00  0.00     0.002 C 
ATOM     33  C   UNL     1      -1.465  -0.216   3.270  1.00  0.00     0.004 C 
ENDBRANCH  30  32
ENDBRANCH  12  30
ENDBRANCH  10  12
ENDBRANCH   1  10
BRANCH   5  34
ATOM     34  C   UNL     1       0.746   2.524  -1.667  1.00  0.00     0.242 C 
ATOM     35  O   UNL     1       1.092   2.722  -2.832  1.00  0.00    -0.273 OA
ATOM     36  N   UNL     1       1.498   2.939  -0.591  1.00  0.00    -0.354 N 
ATOM     37  H   UNL     1       1.223   2.641   0.345  1.00  0.00     0.163 HD
BRANCH  36  38
ATOM     38  C   UNL     1       2.602   3.866  -0.732  1.00  0.00     0.116 C 
BRANCH  38  39
ATOM     39  C   UNL     1       3.925   3.128  -0.538  1.00  0.00     0.023 C 
BRANCH  39  40
ATOM     40  C   UNL     1       4.534   2.666  -1.858  1.00  0.00     0.026 C 
BRANCH  40  41
ATOM     41  C   UNL     1       5.433   3.752  -2.449  1.00  0.00     0.146 C 
BRANCH  41  42
ATOM     42  N   UNL     1       6.327   4.266  -1.420  1.00  0.00    -0.254 NA
ATOM     43  C   UNL     1       7.498   3.765  -1.290  1.00  0.00     0.185 C 
ATOM     44  N   UNL     1       8.099   2.780  -1.982  1.00  0.00    -0.370 N 
ATOM     45  N   UNL     1       8.305   4.250  -0.332  1.00  0.00    -0.370 N 
ATOM     46  H   UNL     1       8.919   2.325  -1.619  1.00  0.00     0.159 HD
ATOM     47  H   UNL     1       7.635   2.310  -2.753  1.00  0.00     0.159 HD
ATOM     48  H   UNL     1       7.931   5.002   0.230  1.00  0.00     0.159 HD
ATOM     49  H   UNL     1       9.296   4.084  -0.320  1.00  0.00     0.159 HD
ENDBRANCH  41  42
ENDBRANCH  40  41
ENDBRANCH  39  40
ENDBRANCH  38  39
ENDBRANCH  36  38
ENDBRANCH   5  34
BRANCH   8  50
ATOM     50  O   UNL     1      -2.164   4.797  -4.652  1.00  0.00    -0.245 OA
BRANCH  50  51
ATOM     51  S   UNL     1      -2.095   6.322  -5.214  1.00  0.00     0.397 S 
ATOM     52  O   UNL     1      -2.811   6.368  -6.469  1.00  0.00    -0.169 OA
ATOM     53  O   UNL     1      -0.741   6.823  -5.094  1.00  0.00    -0.169 OA
BRANCH  51  54
ATOM     54  O   UNL     1      -3.012   7.112  -4.157  1.00  0.00    -0.264 OA
ATOM     55  H   UNL     1      -3.381   7.897  -4.610  1.00  0.00     0.236 HD
ENDBRANCH  51  54
ENDBRANCH  50  51
ENDBRANCH   8  50
TORSDOF 19
ENDMDL
MODEL 45
REMARK VINA RESULT:    -5.897     13.640     18.327
REMARK INTER + INTRA:         -16.169
REMARK INTER:                 -13.858
REMARK INTRA:                  -2.311
REMARK UNBOUND:                -4.239
REMARK SMILES CC[C@@H](C)[C@@H](NC(=O)[C@@H](O)Cc1ccc(O)c(Cl)c1)C(=O)N1[C@H](C(=O)NCCCCN=C(N)N)C[C@H]2CC[C@H](OS(=O)(=O)O)C[C@@H]21
REMARK SMILES IDX 22 1 36 2 46 3 35 4 23 5 45 6 37 7 39 8 38 9 20 10 21 11
REMARK SMILES IDX 5 12 6 13 7 14 8 15 9 17 11 18 12 19 17 20 19 21 15 22 14 23
REMARK SMILES IDX 13 24 18 25 16 26 10 28 3 30 4 31 2 32 1 33 24 34 25 35
REMARK SMILES IDX 26 36 27 38 28 39 29 40 30 41 31 42 32 43 33 44 34 45 40 50
REMARK SMILES IDX 41 51 42 52 43 53 44 54
REMARK H PARENT 6 16 16 27 10 29 26 37 33 46 33 47 34 48 34 49 44 55
ROOT
ATOM      1  N   UNL     1      -2.276   3.020   3.310  1.00  0.00    -0.326 N 
ATOM      2  C   UNL     1      -4.125   1.764   2.573  1.00  0.00     0.014 C 
ATOM      3  C   UNL     1      -3.609   2.597   3.749  1.00  0.00     0.091 C 
ATOM      4  C   UNL     1      -2.862   1.093   2.057  1.00  0.00     0.041 C 
ATOM      5  C   UNL     1      -1.890   2.287   2.079  1.00  0.00     0.175 C 
ATOM      6  C   UNL     1      -4.642   3.675   4.068  1.00  0.00     0.059 C 
ATOM      7  C   UNL     1      -5.305   0.908   2.991  1.00  0.00     0.008 C 
ATOM      8  C   UNL     1      -6.098   3.245   3.783  1.00  0.00     0.143 C 
ATOM      9  C   UNL     1      -6.278   1.716   3.874  1.00  0.00     0.034 C 
ENDROOT
BRANCH   1  10
ATOM     10  C   UNL     1      -1.325   3.781   3.968  1.00  0.00     0.246 C 
ATOM     11  O   UNL     1      -1.428   5.012   3.958  1.00  0.00    -0.272 OA
BRANCH  10  12
ATOM     12  C   UNL     1      -0.174   3.072   4.740  1.00  0.00     0.174 C 
BRANCH  12  13
ATOM     13  N   UNL     1       0.950   2.820   3.839  1.00  0.00    -0.342 N 
ATOM     14  C   UNL     1       2.255   3.187   4.081  1.00  0.00     0.249 C 
ATOM     15  O   UNL     1       2.626   3.748   5.104  1.00  0.00    -0.272 OA
ATOM     16  H   UNL     1       0.773   2.506   2.888  1.00  0.00     0.164 HD
BRANCH  14  17
ATOM     17  C   UNL     1       3.207   2.797   2.930  1.00  0.00     0.207 C 
BRANCH  17  18
ATOM     18  C   UNL     1       2.433   2.672   1.614  1.00  0.00     0.077 C 
BRANCH  18  19
ATOM     19  C   UNL     1       3.344   2.788   0.413  1.00  0.00    -0.043 A 
ATOM     20  C   UNL     1       5.532   3.247  -0.529  1.00  0.00     0.083 A 
ATOM     21  C   UNL     1       4.704   3.091   0.583  1.00  0.00     0.028 A 
ATOM     22  C   UNL     1       5.008   3.103  -1.815  1.00  0.00     0.134 A 
ATOM     23  C   UNL     1       3.664   2.803  -1.997  1.00  0.00     0.048 A 
ATOM     24  C   UNL     1       2.832   2.648  -0.886  1.00  0.00     0.008 A 
ATOM     25  Cl  UNL     1       7.200   3.619  -0.300  1.00  0.00    -0.080 Cl
BRANCH  22  26
ATOM     26  O   UNL     1       5.778   3.256  -2.936  1.00  0.00    -0.506 OA
ATOM     27  H   UNL     1       6.609   2.771  -2.774  1.00  0.00     0.293 HD
ENDBRANCH  22  26
ENDBRANCH  18  19
ENDBRANCH  17  18
BRANCH  17  28
ATOM     28  O   UNL     1       3.875   1.556   3.210  1.00  0.00    -0.383 OA
ATOM     29  H   UNL     1       3.164   0.899   3.390  1.00  0.00     0.211 HD
ENDBRANCH  17  28
ENDBRANCH  14  17
ENDBRANCH  12  13
BRANCH  12  30
ATOM     30  C   UNL     1      -0.646   1.786   5.472  1.00  0.00     0.018 C 
ATOM     31  C   UNL     1      -0.766   2.032   6.984  1.00  0.00     0.010 C 
BRANCH  30  32
ATOM     32  C   UNL     1       0.251   0.553   5.202  1.00  0.00     0.002 C 
ATOM     33  C   UNL     1      -0.314  -0.460   4.215  1.00  0.00     0.004 C 
ENDBRANCH  30  32
ENDBRANCH  12  30
ENDBRANCH  10  12
ENDBRANCH   1  10
BRANCH   5  34
ATOM     34  C   UNL     1      -2.063   3.187   0.826  1.00  0.00     0.242 C 
ATOM     35  O   UNL     1      -2.187   4.409   0.907  1.00  0.00    -0.273 OA
ATOM     36  N   UNL     1      -2.121   2.516  -0.374  1.00  0.00    -0.354 N 
ATOM     37  H   UNL     1      -2.133   1.495  -0.366  1.00  0.00     0.163 HD
BRANCH  36  38
ATOM     38  C   UNL     1      -2.062   3.202  -1.648  1.00  0.00     0.116 C 
BRANCH  38  39
ATOM     39  C   UNL     1      -2.512   2.263  -2.764  1.00  0.00     0.023 C 
BRANCH  39  40
ATOM     40  C   UNL     1      -1.647   2.386  -4.014  1.00  0.00     0.026 C 
BRANCH  40  41
ATOM     41  C   UNL     1      -1.868   3.736  -4.695  1.00  0.00     0.146 C 
BRANCH  41  42
ATOM     42  N   UNL     1      -0.609   4.466  -4.763  1.00  0.00    -0.254 NA
ATOM     43  C   UNL     1      -0.620   5.745  -4.812  1.00  0.00     0.185 C 
ATOM     44  N   UNL     1      -1.658   6.602  -4.811  1.00  0.00    -0.370 N 
ATOM     45  N   UNL     1       0.551   6.399  -4.878  1.00  0.00    -0.370 N 
ATOM     46  H   UNL     1      -1.533   7.558  -5.098  1.00  0.00     0.159 HD
ATOM     47  H   UNL     1      -2.617   6.277  -4.751  1.00  0.00     0.159 HD
ATOM     48  H   UNL     1       1.385   5.827  -4.875  1.00  0.00     0.159 HD
ATOM     49  H   UNL     1       0.638   7.380  -4.682  1.00  0.00     0.159 HD
ENDBRANCH  41  42
ENDBRANCH  40  41
ENDBRANCH  39  40
ENDBRANCH  38  39
ENDBRANCH  36  38
ENDBRANCH   5  34
BRANCH   8  50
ATOM     50  O   UNL     1      -6.488   3.671   2.478  1.00  0.00    -0.245 OA
BRANCH  50  51
ATOM     51  S   UNL     1      -7.581   4.865   2.316  1.00  0.00     0.397 S 
ATOM     52  O   UNL     1      -7.051   6.046   2.959  1.00  0.00    -0.169 OA
ATOM     53  O   UNL     1      -8.902   4.359   2.626  1.00  0.00    -0.169 OA
BRANCH  51  54
ATOM     54  O   UNL     1      -7.522   5.162   0.736  1.00  0.00    -0.264 OA
ATOM     55  H   UNL     1      -6.734   4.706   0.376  1.00  0.00     0.236 HD
ENDBRANCH  51  54
ENDBRANCH  50  51
ENDBRANCH   8  50
TORSDOF 19
ENDMDL
MODEL 46
REMARK VINA RESULT:    -5.870      8.353     13.014
REMARK INTER + INTRA:         -16.115
REMARK INTER:                 -12.435
REMARK INTRA:                  -3.679
REMARK UNBOUND:                -4.239
REMARK SMILES CC[C@@H](C)[C@@H](NC(=O)[C@@H](O)Cc1ccc(O)c(Cl)c1)C(=O)N1[C@H](C(=O)NCCCCN=C(N)N)C[C@H]2CC[C@H](OS(=O)(=O)O)C[C@@H]21
REMARK SMILES IDX 22 1 36 2 46 3 35 4 23 5 45 6 37 7 39 8 38 9 20 10 21 11
REMARK SMILES IDX 5 12 6 13 7 14 8 15 9 17 11 18 12 19 17 20 19 21 15 22 14 23
REMARK SMILES IDX 13 24 18 25 16 26 10 28 3 30 4 31 2 32 1 33 24 34 25 35
REMARK SMILES IDX 26 36 27 38 28 39 29 40 30 41 31 42 32 43 33 44 34 45 40 50
REMARK SMILES IDX 41 51 42 52 43 53 44 54
REMARK H PARENT 6 16 16 27 10 29 26 37 33 46 33 47 34 48 34 49 44 55
ROOT
ATOM      1  N   UNL     1      -4.635  -5.699  -6.028  1.00  0.00    -0.326 N 
ATOM      2  C   UNL     1      -6.485  -4.245  -5.952  1.00  0.00     0.014 C 
ATOM      3  C   UNL     1      -5.537  -4.961  -6.918  1.00  0.00     0.091 C 
ATOM      4  C   UNL     1      -5.582  -3.924  -4.771  1.00  0.00     0.041 C 
ATOM      5  C   UNL     1      -4.838  -5.264  -4.624  1.00  0.00     0.175 C 
ATOM      6  C   UNL     1      -6.374  -5.753  -7.920  1.00  0.00     0.059 C 
ATOM      7  C   UNL     1      -7.224  -3.121  -6.651  1.00  0.00     0.008 C 
ATOM      8  C   UNL     1      -7.736  -5.101  -8.244  1.00  0.00     0.143 C 
ATOM      9  C   UNL     1      -7.709  -3.572  -8.045  1.00  0.00     0.034 C 
ENDROOT
BRANCH   1  10
ATOM     10  C   UNL     1      -3.558  -6.513  -6.333  1.00  0.00     0.246 C 
ATOM     11  O   UNL     1      -3.648  -7.729  -6.136  1.00  0.00    -0.272 OA
BRANCH  10  12
ATOM     12  C   UNL     1      -2.276  -5.887  -6.956  1.00  0.00     0.174 C 
BRANCH  12  13
ATOM     13  N   UNL     1      -2.599  -4.603  -7.577  1.00  0.00    -0.342 N 
ATOM     14  C   UNL     1      -2.294  -3.370  -7.047  1.00  0.00     0.249 C 
ATOM     15  O   UNL     1      -1.686  -3.211  -5.996  1.00  0.00    -0.272 OA
ATOM     16  H   UNL     1      -3.236  -4.573  -8.369  1.00  0.00     0.164 HD
BRANCH  14  17
ATOM     17  C   UNL     1      -2.783  -2.204  -7.931  1.00  0.00     0.207 C 
BRANCH  17  18
ATOM     18  C   UNL     1      -4.026  -2.618  -8.725  1.00  0.00     0.077 C 
BRANCH  18  19
ATOM     19  C   UNL     1      -4.901  -1.431  -9.060  1.00  0.00    -0.043 A 
ATOM     20  C   UNL     1      -5.832   0.729  -8.466  1.00  0.00     0.083 A 
ATOM     21  C   UNL     1      -4.986  -0.343  -8.177  1.00  0.00     0.028 A 
ATOM     22  C   UNL     1      -6.597   0.720  -9.633  1.00  0.00     0.134 A 
ATOM     23  C   UNL     1      -6.522  -0.351 -10.515  1.00  0.00     0.048 A 
ATOM     24  C   UNL     1      -5.678  -1.426 -10.229  1.00  0.00     0.008 A 
ATOM     25  Cl  UNL     1      -5.924   2.056  -7.369  1.00  0.00    -0.080 Cl
BRANCH  22  26
ATOM     26  O   UNL     1      -7.448   1.743  -9.953  1.00  0.00    -0.506 OA
ATOM     27  H   UNL     1      -7.414   1.843 -10.922  1.00  0.00     0.293 HD
ENDBRANCH  22  26
ENDBRANCH  18  19
ENDBRANCH  17  18
BRANCH  17  28
ATOM     28  O   UNL     1      -1.756  -1.779  -8.842  1.00  0.00    -0.383 OA
ATOM     29  H   UNL     1      -2.122  -1.001  -9.321  1.00  0.00     0.211 HD
ENDBRANCH  17  28
ENDBRANCH  14  17
ENDBRANCH  12  13
BRANCH  12  30
ATOM     30  C   UNL     1      -1.552  -6.852  -7.933  1.00  0.00     0.018 C 
ATOM     31  C   UNL     1      -0.105  -6.396  -8.181  1.00  0.00     0.010 C 
BRANCH  30  32
ATOM     32  C   UNL     1      -2.288  -7.039  -9.282  1.00  0.00     0.002 C 
ATOM     33  C   UNL     1      -2.717  -8.467  -9.598  1.00  0.00     0.004 C 
ENDBRANCH  30  32
ENDBRANCH  12  30
ENDBRANCH  10  12
ENDBRANCH   1  10
BRANCH   5  34
ATOM     34  C   UNL     1      -5.684  -6.304  -3.843  1.00  0.00     0.242 C 
ATOM     35  O   UNL     1      -5.633  -6.406  -2.617  1.00  0.00    -0.273 OA
ATOM     36  N   UNL     1      -6.452  -7.140  -4.623  1.00  0.00    -0.354 N 
ATOM     37  H   UNL     1      -6.360  -7.086  -5.638  1.00  0.00     0.163 HD
BRANCH  36  38
ATOM     38  C   UNL     1      -7.457  -8.017  -4.059  1.00  0.00     0.116 C 
BRANCH  38  39
ATOM     39  C   UNL     1      -8.850  -7.484  -4.381  1.00  0.00     0.023 C 
BRANCH  39  40
ATOM     40  C   UNL     1      -9.287  -6.378  -3.426  1.00  0.00     0.026 C 
BRANCH  40  41
ATOM     41  C   UNL     1      -9.536  -5.074  -4.185  1.00  0.00     0.146 C 
BRANCH  41  42
ATOM     42  N   UNL     1     -10.951  -4.733  -4.125  1.00  0.00    -0.254 NA
ATOM     43  C   UNL     1     -11.310  -3.505  -4.182  1.00  0.00     0.185 C 
ATOM     44  N   UNL     1     -10.564  -2.390  -4.295  1.00  0.00    -0.370 N 
ATOM     45  N   UNL     1     -12.619  -3.211  -4.121  1.00  0.00    -0.370 N 
ATOM     46  H   UNL     1     -10.955  -1.489  -4.082  1.00  0.00     0.159 HD
ATOM     47  H   UNL     1      -9.553  -2.431  -4.368  1.00  0.00     0.159 HD
ATOM     48  H   UNL     1     -13.251  -3.996  -4.043  1.00  0.00     0.159 HD
ATOM     49  H   UNL     1     -12.989  -2.318  -4.393  1.00  0.00     0.159 HD
ENDBRANCH  41  42
ENDBRANCH  40  41
ENDBRANCH  39  40
ENDBRANCH  38  39
ENDBRANCH  36  38
ENDBRANCH   5  34
BRANCH   8  50
ATOM     50  O   UNL     1      -8.754  -5.649  -7.405  1.00  0.00    -0.245 OA
BRANCH  50  51
ATOM     51  S   UNL     1      -9.806  -6.727  -8.019  1.00  0.00     0.397 S 
ATOM     52  O   UNL     1     -10.030  -6.391  -9.407  1.00  0.00    -0.169 OA
ATOM     53  O   UNL     1     -10.906  -6.912  -7.096  1.00  0.00    -0.169 OA
BRANCH  51  54
ATOM     54  O   UNL     1      -8.935  -8.078  -8.031  1.00  0.00    -0.264 OA
ATOM     55  H   UNL     1      -9.513  -8.809  -7.730  1.00  0.00     0.236 HD
ENDBRANCH  51  54
ENDBRANCH  50  51
ENDBRANCH   8  50
TORSDOF 19
ENDMDL
MODEL 47
REMARK VINA RESULT:    -5.864     13.412     17.162
REMARK INTER + INTRA:         -16.103
REMARK INTER:                 -12.117
REMARK INTRA:                  -3.986
REMARK UNBOUND:                -4.239
REMARK SMILES CC[C@@H](C)[C@@H](NC(=O)[C@@H](O)Cc1ccc(O)c(Cl)c1)C(=O)N1[C@H](C(=O)NCCCCN=C(N)N)C[C@H]2CC[C@H](OS(=O)(=O)O)C[C@@H]21
REMARK SMILES IDX 22 1 36 2 46 3 35 4 23 5 45 6 37 7 39 8 38 9 20 10 21 11
REMARK SMILES IDX 5 12 6 13 7 14 8 15 9 17 11 18 12 19 17 20 19 21 15 22 14 23
REMARK SMILES IDX 13 24 18 25 16 26 10 28 3 30 4 31 2 32 1 33 24 34 25 35
REMARK SMILES IDX 26 36 27 38 28 39 29 40 30 41 31 42 32 43 33 44 34 45 40 50
REMARK SMILES IDX 41 51 42 52 43 53 44 54
REMARK H PARENT 6 16 16 27 10 29 26 37 33 46 33 47 34 48 34 49 44 55
ROOT
ATOM      1  N   UNL     1      -2.233   3.030   0.066  1.00  0.00    -0.326 N 
ATOM      2  C   UNL     1      -1.674   1.476  -1.612  1.00  0.00     0.014 C 
ATOM      3  C   UNL     1      -2.294   2.858  -1.388  1.00  0.00     0.091 C 
ATOM      4  C   UNL     1      -2.128   0.703  -0.383  1.00  0.00     0.041 C 
ATOM      5  C   UNL     1      -1.855   1.749   0.713  1.00  0.00     0.175 C 
ATOM      6  C   UNL     1      -1.556   3.866  -2.268  1.00  0.00     0.059 C 
ATOM      7  C   UNL     1      -2.014   0.946  -2.991  1.00  0.00     0.008 C 
ATOM      8  C   UNL     1      -1.033   3.269  -3.592  1.00  0.00     0.143 C 
ATOM      9  C   UNL     1      -1.869   2.057  -4.052  1.00  0.00     0.034 C 
ENDROOT
BRANCH   1  10
ATOM     10  C   UNL     1      -2.665   4.083   0.855  1.00  0.00     0.246 C 
ATOM     11  O   UNL     1      -1.898   5.027   1.071  1.00  0.00    -0.272 OA
BRANCH  10  12
ATOM     12  C   UNL     1      -4.117   4.075   1.415  1.00  0.00     0.174 C 
BRANCH  12  13
ATOM     13  N   UNL     1      -4.101   3.734   2.837  1.00  0.00    -0.342 N 
ATOM     14  C   UNL     1      -4.041   4.645   3.868  1.00  0.00     0.249 C 
ATOM     15  O   UNL     1      -4.023   5.859   3.705  1.00  0.00    -0.272 OA
ATOM     16  H   UNL     1      -3.954   2.769   3.122  1.00  0.00     0.164 HD
BRANCH  14  17
ATOM     17  C   UNL     1      -4.022   3.973   5.257  1.00  0.00     0.207 C 
BRANCH  17  18
ATOM     18  C   UNL     1      -3.031   2.805   5.272  1.00  0.00     0.077 C 
BRANCH  18  19
ATOM     19  C   UNL     1      -1.599   3.284   5.354  1.00  0.00    -0.043 A 
ATOM     20  C   UNL     1       0.050   4.848   6.202  1.00  0.00     0.083 A 
ATOM     21  C   UNL     1      -1.263   4.378   6.167  1.00  0.00     0.028 A 
ATOM     22  C   UNL     1       1.034   4.232   5.427  1.00  0.00     0.134 A 
ATOM     23  C   UNL     1       0.715   3.147   4.618  1.00  0.00     0.048 A 
ATOM     24  C   UNL     1      -0.599   2.675   4.580  1.00  0.00     0.008 A 
ATOM     25  Cl  UNL     1       0.443   6.194   7.206  1.00  0.00    -0.080 Cl
BRANCH  22  26
ATOM     26  O   UNL     1       2.332   4.664   5.421  1.00  0.00    -0.506 OA
ATOM     27  H   UNL     1       2.645   4.597   4.499  1.00  0.00     0.293 HD
ENDBRANCH  22  26
ENDBRANCH  18  19
ENDBRANCH  17  18
BRANCH  17  28
ATOM     28  O   UNL     1      -5.327   3.495   5.619  1.00  0.00    -0.383 OA
ATOM     29  H   UNL     1      -5.406   2.596   5.227  1.00  0.00     0.211 HD
ENDBRANCH  17  28
ENDBRANCH  14  17
ENDBRANCH  12  13
BRANCH  12  30
ATOM     30  C   UNL     1      -5.071   3.163   0.598  1.00  0.00     0.018 C 
ATOM     31  C   UNL     1      -5.796   3.967  -0.492  1.00  0.00     0.010 C 
BRANCH  30  32
ATOM     32  C   UNL     1      -6.098   2.400   1.469  1.00  0.00     0.002 C 
ATOM     33  C   UNL     1      -7.550   2.819   1.280  1.00  0.00     0.004 C 
ENDBRANCH  30  32
ENDBRANCH  12  30
ENDBRANCH  10  12
ENDBRANCH   1  10
BRANCH   5  34
ATOM     34  C   UNL     1      -0.360   1.763   1.131  1.00  0.00     0.242 C 
ATOM     35  O   UNL     1       0.191   0.785   1.635  1.00  0.00    -0.273 OA
ATOM     36  N   UNL     1       0.288   2.964   0.947  1.00  0.00    -0.354 N 
ATOM     37  H   UNL     1      -0.253   3.772   0.638  1.00  0.00     0.163 HD
BRANCH  36  38
ATOM     38  C   UNL     1       1.724   3.095   1.078  1.00  0.00     0.116 C 
BRANCH  38  39
ATOM     39  C   UNL     1       2.311   3.676  -0.207  1.00  0.00     0.023 C 
BRANCH  39  40
ATOM     40  C   UNL     1       3.283   2.720  -0.888  1.00  0.00     0.026 C 
BRANCH  40  41
ATOM     41  C   UNL     1       4.668   3.355  -1.017  1.00  0.00     0.146 C 
BRANCH  41  42
ATOM     42  N   UNL     1       4.712   4.204  -2.199  1.00  0.00    -0.254 NA
ATOM     43  C   UNL     1       5.157   3.731  -3.302  1.00  0.00     0.185 C 
ATOM     44  N   UNL     1       5.624   2.503  -3.592  1.00  0.00    -0.370 N 
ATOM     45  N   UNL     1       5.193   4.532  -4.380  1.00  0.00    -0.370 N 
ATOM     46  H   UNL     1       6.163   2.342  -4.425  1.00  0.00     0.159 HD
ATOM     47  H   UNL     1       5.654   1.766  -2.893  1.00  0.00     0.159 HD
ATOM     48  H   UNL     1       4.850   5.474  -4.251  1.00  0.00     0.159 HD
ATOM     49  H   UNL     1       5.298   4.181  -5.315  1.00  0.00     0.159 HD
ENDBRANCH  41  42
ENDBRANCH  40  41
ENDBRANCH  39  40
ENDBRANCH  38  39
ENDBRANCH  36  38
ENDBRANCH   5  34
BRANCH   8  50
ATOM     50  O   UNL     1       0.324   2.851  -3.440  1.00  0.00    -0.245 OA
BRANCH  50  51
ATOM     51  S   UNL     1       1.467   3.462  -4.422  1.00  0.00     0.397 S 
ATOM     52  O   UNL     1       0.809   4.009  -5.587  1.00  0.00    -0.169 OA
ATOM     53  O   UNL     1       2.562   2.521  -4.539  1.00  0.00    -0.169 OA
BRANCH  51  54
ATOM     54  O   UNL     1       1.991   4.729  -3.581  1.00  0.00    -0.264 OA
ATOM     55  H   UNL     1       1.626   4.657  -2.675  1.00  0.00     0.236 HD
ENDBRANCH  51  54
ENDBRANCH  50  51
ENDBRANCH   8  50
TORSDOF 19
ENDMDL
MODEL 48
REMARK VINA RESULT:    -5.803     12.259     15.735
REMARK INTER + INTRA:         -15.979
REMARK INTER:                 -12.247
REMARK INTRA:                  -3.732
REMARK UNBOUND:                -4.239
REMARK SMILES CC[C@@H](C)[C@@H](NC(=O)[C@@H](O)Cc1ccc(O)c(Cl)c1)C(=O)N1[C@H](C(=O)NCCCCN=C(N)N)C[C@H]2CC[C@H](OS(=O)(=O)O)C[C@@H]21
REMARK SMILES IDX 22 1 36 2 46 3 35 4 23 5 45 6 37 7 39 8 38 9 20 10 21 11
REMARK SMILES IDX 5 12 6 13 7 14 8 15 9 17 11 18 12 19 17 20 19 21 15 22 14 23
REMARK SMILES IDX 13 24 18 25 16 26 10 28 3 30 4 31 2 32 1 33 24 34 25 35
REMARK SMILES IDX 26 36 27 38 28 39 29 40 30 41 31 42 32 43 33 44 34 45 40 50
REMARK SMILES IDX 41 51 42 52 43 53 44 54
REMARK H PARENT 6 16 16 27 10 29 26 37 33 46 33 47 34 48 34 49 44 55
ROOT
ATOM      1  N   UNL     1      -4.694   2.806   3.021  1.00  0.00    -0.326 N 
ATOM      2  C   UNL     1      -2.717   4.079   2.903  1.00  0.00     0.014 C 
ATOM      3  C   UNL     1      -3.683   3.416   3.889  1.00  0.00     0.091 C 
ATOM      4  C   UNL     1      -3.642   4.537   1.786  1.00  0.00     0.041 C 
ATOM      5  C   UNL     1      -4.519   3.281   1.626  1.00  0.00     0.175 C 
ATOM      6  C   UNL     1      -2.878   2.504   4.814  1.00  0.00     0.059 C 
ATOM      7  C   UNL     1      -1.840   5.097   3.605  1.00  0.00     0.008 C 
ATOM      8  C   UNL     1      -1.445   3.009   5.090  1.00  0.00     0.143 C 
ATOM      9  C   UNL     1      -1.334   4.541   4.953  1.00  0.00     0.034 C 
ENDROOT
BRANCH   1  10
ATOM     10  C   UNL     1      -5.829   2.085   3.350  1.00  0.00     0.246 C 
ATOM     11  O   UNL     1      -5.793   0.851   3.302  1.00  0.00    -0.272 OA
BRANCH  10  12
ATOM     12  C   UNL     1      -7.109   2.840   3.814  1.00  0.00     0.174 C 
BRANCH  12  13
ATOM     13  N   UNL     1      -7.859   3.312   2.650  1.00  0.00    -0.342 N 
ATOM     14  C   UNL     1      -9.184   3.032   2.398  1.00  0.00     0.249 C 
ATOM     15  O   UNL     1      -9.896   2.372   3.144  1.00  0.00    -0.272 OA
ATOM     16  H   UNL     1      -7.364   3.736   1.870  1.00  0.00     0.164 HD
BRANCH  14  17
ATOM     17  C   UNL     1      -9.683   3.660   1.079  1.00  0.00     0.207 C 
BRANCH  17  18
ATOM     18  C   UNL     1     -10.502   4.923   1.363  1.00  0.00     0.077 C 
BRANCH  18  19
ATOM     19  C   UNL     1      -9.624   6.150   1.470  1.00  0.00    -0.043 A 
ATOM     20  C   UNL     1      -9.243   8.398   2.298  1.00  0.00     0.083 A 
ATOM     21  C   UNL     1     -10.033   7.249   2.241  1.00  0.00     0.028 A 
ATOM     22  C   UNL     1      -8.045   8.457   1.586  1.00  0.00     0.134 A 
ATOM     23  C   UNL     1      -7.628   7.376   0.818  1.00  0.00     0.048 A 
ATOM     24  C   UNL     1      -8.417   6.225   0.758  1.00  0.00     0.008 A 
ATOM     25  Cl  UNL     1      -9.763   9.738   3.251  1.00  0.00    -0.080 Cl
BRANCH  22  26
ATOM     26  O   UNL     1      -7.243   9.566   1.602  1.00  0.00    -0.506 OA
ATOM     27  H   UNL     1      -7.189   9.860   2.530  1.00  0.00     0.293 HD
ENDBRANCH  22  26
ENDBRANCH  18  19
ENDBRANCH  17  18
BRANCH  17  28
ATOM     28  O   UNL     1     -10.486   2.729   0.335  1.00  0.00    -0.383 OA
ATOM     29  H   UNL     1     -11.413   3.052   0.406  1.00  0.00     0.211 HD
ENDBRANCH  17  28
ENDBRANCH  14  17
ENDBRANCH  12  13
BRANCH  12  30
ATOM     30  C   UNL     1      -6.801   3.980   4.822  1.00  0.00     0.018 C 
ATOM     31  C   UNL     1      -6.787   3.446   6.263  1.00  0.00     0.010 C 
BRANCH  30  32
ATOM     32  C   UNL     1      -7.767   5.185   4.712  1.00  0.00     0.002 C 
ATOM     33  C   UNL     1      -9.060   5.058   5.507  1.00  0.00     0.004 C 
ENDBRANCH  30  32
ENDBRANCH  12  30
ENDBRANCH  10  12
ENDBRANCH   1  10
BRANCH   5  34
ATOM     34  C   UNL     1      -3.818   2.200   0.761  1.00  0.00     0.242 C 
ATOM     35  O   UNL     1      -3.971   0.996   0.961  1.00  0.00    -0.273 OA
ATOM     36  N   UNL     1      -2.972   2.686  -0.211  1.00  0.00    -0.354 N 
ATOM     37  H   UNL     1      -2.793   3.691  -0.250  1.00  0.00     0.163 HD
BRANCH  36  38
ATOM     38  C   UNL     1      -2.407   1.837  -1.240  1.00  0.00     0.116 C 
BRANCH  38  39
ATOM     39  C   UNL     1      -0.904   1.685  -1.020  1.00  0.00     0.023 C 
BRANCH  39  40
ATOM     40  C   UNL     1      -0.412   2.463   0.196  1.00  0.00     0.026 C 
BRANCH  40  41
ATOM     41  C   UNL     1       1.044   2.893   0.012  1.00  0.00     0.146 C 
BRANCH  41  42
ATOM     42  N   UNL     1       1.812   2.553   1.202  1.00  0.00    -0.254 NA
ATOM     43  C   UNL     1       3.087   2.672   1.188  1.00  0.00     0.185 C 
ATOM     44  N   UNL     1       3.907   3.085   0.204  1.00  0.00    -0.370 N 
ATOM     45  N   UNL     1       3.778   2.349   2.293  1.00  0.00    -0.370 N 
ATOM     46  H   UNL     1       4.894   2.898   0.246  1.00  0.00     0.159 HD
ATOM     47  H   UNL     1       3.549   3.382  -0.699  1.00  0.00     0.159 HD
ATOM     48  H   UNL     1       3.234   2.035   3.086  1.00  0.00     0.159 HD
ATOM     49  H   UNL     1       4.729   2.633   2.443  1.00  0.00     0.159 HD
ENDBRANCH  41  42
ENDBRANCH  40  41
ENDBRANCH  39  40
ENDBRANCH  38  39
ENDBRANCH  36  38
ENDBRANCH   5  34
BRANCH   8  50
ATOM     50  O   UNL     1      -0.528   2.404   4.178  1.00  0.00    -0.245 OA
BRANCH  50  51
ATOM     51  S   UNL     1       0.932   1.921   4.709  1.00  0.00     0.397 S 
ATOM     52  O   UNL     1       0.736   1.160   5.922  1.00  0.00    -0.169 OA
ATOM     53  O   UNL     1       1.862   3.029   4.649  1.00  0.00    -0.169 OA
BRANCH  51  54
ATOM     54  O   UNL     1       1.361   0.853   3.586  1.00  0.00    -0.264 OA
ATOM     55  H   UNL     1       1.626   0.029   4.044  1.00  0.00     0.236 HD
ENDBRANCH  51  54
ENDBRANCH  50  51
ENDBRANCH   8  50
TORSDOF 19
ENDMDL
MODEL 49
REMARK VINA RESULT:    -5.761      4.190      6.923
REMARK INTER + INTRA:         -15.893
REMARK INTER:                 -12.184
REMARK INTRA:                  -3.710
REMARK UNBOUND:                -4.239
REMARK SMILES CC[C@@H](C)[C@@H](NC(=O)[C@@H](O)Cc1ccc(O)c(Cl)c1)C(=O)N1[C@H](C(=O)NCCCCN=C(N)N)C[C@H]2CC[C@H](OS(=O)(=O)O)C[C@@H]21
REMARK SMILES IDX 22 1 36 2 46 3 35 4 23 5 45 6 37 7 39 8 38 9 20 10 21 11
REMARK SMILES IDX 5 12 6 13 7 14 8 15 9 17 11 18 12 19 17 20 19 21 15 22 14 23
REMARK SMILES IDX 13 24 18 25 16 26 10 28 3 30 4 31 2 32 1 33 24 34 25 35
REMARK SMILES IDX 26 36 27 38 28 39 29 40 30 41 31 42 32 43 33 44 34 45 40 50
REMARK SMILES IDX 41 51 42 52 43 53 44 54
REMARK H PARENT 6 16 16 27 10 29 26 37 33 46 33 47 34 48 34 49 44 55
ROOT
ATOM      1  N   UNL     1     -18.476   2.531  -8.717  1.00  0.00    -0.326 N 
ATOM      2  C   UNL     1     -16.844   1.667  -7.257  1.00  0.00     0.014 C 
ATOM      3  C   UNL     1     -17.661   1.331  -8.507  1.00  0.00     0.091 C 
ATOM      4  C   UNL     1     -17.812   2.508  -6.439  1.00  0.00     0.041 C 
ATOM      5  C   UNL     1     -18.370   3.429  -7.540  1.00  0.00     0.175 C 
ATOM      6  C   UNL     1     -16.698   0.907  -9.615  1.00  0.00     0.059 C 
ATOM      7  C   UNL     1     -16.247   0.414  -6.646  1.00  0.00     0.008 C 
ATOM      8  C   UNL     1     -15.430   0.195  -9.096  1.00  0.00     0.143 C 
ATOM      9  C   UNL     1     -15.671  -0.505  -7.743  1.00  0.00     0.034 C 
ENDROOT
BRANCH   1  10
ATOM     10  C   UNL     1     -19.424   2.802  -9.688  1.00  0.00     0.246 C 
ATOM     11  O   UNL     1     -20.494   2.184  -9.673  1.00  0.00    -0.272 OA
BRANCH  10  12
ATOM     12  C   UNL     1     -19.142   3.905 -10.749  1.00  0.00     0.174 C 
BRANCH  12  13
ATOM     13  N   UNL     1     -17.709   3.966 -11.036  1.00  0.00    -0.342 N 
ATOM     14  C   UNL     1     -17.058   3.198 -11.975  1.00  0.00     0.249 C 
ATOM     15  O   UNL     1     -17.620   2.387 -12.702  1.00  0.00    -0.272 OA
ATOM     16  H   UNL     1     -17.091   4.475 -10.410  1.00  0.00     0.164 HD
BRANCH  14  17
ATOM     17  C   UNL     1     -15.542   3.482 -12.030  1.00  0.00     0.207 C 
BRANCH  17  18
ATOM     18  C   UNL     1     -15.151   4.042 -13.401  1.00  0.00     0.077 C 
BRANCH  18  19
ATOM     19  C   UNL     1     -14.921   5.536 -13.353  1.00  0.00    -0.043 A 
ATOM     20  C   UNL     1     -15.778   7.801 -13.493  1.00  0.00     0.083 A 
ATOM     21  C   UNL     1     -16.000   6.424 -13.488  1.00  0.00     0.028 A 
ATOM     22  C   UNL     1     -14.482   8.300 -13.364  1.00  0.00     0.134 A 
ATOM     23  C   UNL     1     -13.404   7.433 -13.229  1.00  0.00     0.048 A 
ATOM     24  C   UNL     1     -13.623   6.053 -13.226  1.00  0.00     0.008 A 
ATOM     25  Cl  UNL     1     -17.117   8.876 -13.660  1.00  0.00    -0.080 Cl
BRANCH  22  26
ATOM     26  O   UNL     1     -14.214   9.642 -13.374  1.00  0.00    -0.506 OA
ATOM     27  H   UNL     1     -14.201   9.932 -12.443  1.00  0.00     0.293 HD
ENDBRANCH  22  26
ENDBRANCH  18  19
ENDBRANCH  17  18
BRANCH  17  28
ATOM     28  O   UNL     1     -14.783   2.291 -11.767  1.00  0.00    -0.383 OA
ATOM     29  H   UNL     1     -13.924   2.593 -11.393  1.00  0.00     0.211 HD
ENDBRANCH  17  28
ENDBRANCH  14  17
ENDBRANCH  12  13
BRANCH  12  30
ATOM     30  C   UNL     1     -19.725   5.287 -10.348  1.00  0.00     0.018 C 
ATOM     31  C   UNL     1     -21.170   5.436 -10.848  1.00  0.00     0.010 C 
BRANCH  30  32
ATOM     32  C   UNL     1     -18.870   6.485 -10.826  1.00  0.00     0.002 C 
ATOM     33  C   UNL     1     -19.413   7.860 -10.460  1.00  0.00     0.004 C 
ENDBRANCH  30  32
ENDBRANCH  12  30
ENDBRANCH  10  12
ENDBRANCH   1  10
BRANCH   5  34
ATOM     34  C   UNL     1     -17.410   4.613  -7.835  1.00  0.00     0.242 C 
ATOM     35  O   UNL     1     -17.700   5.778  -7.565  1.00  0.00    -0.273 OA
ATOM     36  N   UNL     1     -16.237   4.271  -8.470  1.00  0.00    -0.354 N 
ATOM     37  H   UNL     1     -16.107   3.306  -8.777  1.00  0.00     0.163 HD
BRANCH  36  38
ATOM     38  C   UNL     1     -15.142   5.206  -8.627  1.00  0.00     0.116 C 
BRANCH  38  39
ATOM     39  C   UNL     1     -15.503   6.255  -9.676  1.00  0.00     0.023 C 
BRANCH  39  40
ATOM     40  C   UNL     1     -14.437   7.338  -9.807  1.00  0.00     0.026 C 
BRANCH  40  41
ATOM     41  C   UNL     1     -15.023   8.715  -9.496  1.00  0.00     0.146 C 
BRANCH  41  42
ATOM     42  N   UNL     1     -16.281   8.564  -8.778  1.00  0.00    -0.254 NA
ATOM     43  C   UNL     1     -16.384   9.005  -7.580  1.00  0.00     0.185 C 
ATOM     44  N   UNL     1     -15.477   9.629  -6.807  1.00  0.00    -0.370 N 
ATOM     45  N   UNL     1     -17.552   8.852  -6.934  1.00  0.00    -0.370 N 
ATOM     46  H   UNL     1     -15.612   9.699  -5.813  1.00  0.00     0.159 HD
ATOM     47  H   UNL     1     -14.542   9.837  -7.144  1.00  0.00     0.159 HD
ATOM     48  H   UNL     1     -18.294   8.399  -7.450  1.00  0.00     0.159 HD
ATOM     49  H   UNL     1     -17.786   9.368  -6.105  1.00  0.00     0.159 HD
ENDBRANCH  41  42
ENDBRANCH  40  41
ENDBRANCH  39  40
ENDBRANCH  38  39
ENDBRANCH  36  38
ENDBRANCH   5  34
BRANCH   8  50
ATOM     50  O   UNL     1     -14.369   1.137  -8.937  1.00  0.00    -0.245 OA
BRANCH  50  51
ATOM     51  S   UNL     1     -12.852   0.714  -9.344  1.00  0.00     0.397 S 
ATOM     52  O   UNL     1     -12.209   1.869  -9.930  1.00  0.00    -0.169 OA
ATOM     53  O   UNL     1     -12.869  -0.569 -10.017  1.00  0.00    -0.169 OA
BRANCH  51  54
ATOM     54  O   UNL     1     -12.163   0.511  -7.906  1.00  0.00    -0.264 OA
ATOM     55  H   UNL     1     -12.203   1.366  -7.432  1.00  0.00     0.236 HD
ENDBRANCH  51  54
ENDBRANCH  50  51
ENDBRANCH   8  50
TORSDOF 19
ENDMDL
MODEL 50
REMARK VINA RESULT:    -5.741      3.454      6.963
REMARK INTER + INTRA:         -15.854
REMARK INTER:                 -12.221
REMARK INTRA:                  -3.634
REMARK UNBOUND:                -4.239
REMARK SMILES CC[C@@H](C)[C@@H](NC(=O)[C@@H](O)Cc1ccc(O)c(Cl)c1)C(=O)N1[C@H](C(=O)NCCCCN=C(N)N)C[C@H]2CC[C@H](OS(=O)(=O)O)C[C@@H]21
REMARK SMILES IDX 22 1 36 2 46 3 35 4 23 5 45 6 37 7 39 8 38 9 20 10 21 11
REMARK SMILES IDX 5 12 6 13 7 14 8 15 9 17 11 18 12 19 17 20 19 21 15 22 14 23
REMARK SMILES IDX 13 24 18 25 16 26 10 28 3 30 4 31 2 32 1 33 24 34 25 35
REMARK SMILES IDX 26 36 27 38 28 39 29 40 30 41 31 42 32 43 33 44 34 45 40 50
REMARK SMILES IDX 41 51 42 52 43 53 44 54
REMARK H PARENT 6 16 16 27 10 29 26 37 33 46 33 47 34 48 34 49 44 55
ROOT
ATOM      1  N   UNL     1     -14.659   6.859 -10.682  1.00  0.00    -0.326 N 
ATOM      2  C   UNL     1     -13.446   7.457 -12.610  1.00  0.00     0.014 C 
ATOM      3  C   UNL     1     -14.290   8.038 -11.472  1.00  0.00     0.091 C 
ATOM      4  C   UNL     1     -14.110   6.113 -12.866  1.00  0.00     0.041 C 
ATOM      5  C   UNL     1     -14.300   5.622 -11.419  1.00  0.00     0.175 C 
ATOM      6  C   UNL     1     -13.486   9.144 -10.790  1.00  0.00     0.059 C 
ATOM      7  C   UNL     1     -13.313   8.449 -13.748  1.00  0.00     0.008 C 
ATOM      8  C   UNL     1     -12.539   9.902 -11.745  1.00  0.00     0.143 C 
ATOM      9  C   UNL     1     -13.037   9.867 -13.204  1.00  0.00     0.034 C 
ENDROOT
BRANCH   1  10
ATOM     10  C   UNL     1     -15.436   6.764  -9.540  1.00  0.00     0.246 C 
ATOM     11  O   UNL     1     -14.882   6.740  -8.436  1.00  0.00    -0.272 OA
BRANCH  10  12
ATOM     12  C   UNL     1     -16.987   6.732  -9.668  1.00  0.00     0.174 C 
BRANCH  12  13
ATOM     13  N   UNL     1     -17.414   5.451 -10.229  1.00  0.00    -0.342 N 
ATOM     14  C   UNL     1     -18.313   4.590  -9.640  1.00  0.00     0.249 C 
ATOM     15  O   UNL     1     -18.881   4.819  -8.579  1.00  0.00    -0.272 OA
ATOM     16  H   UNL     1     -16.914   5.056 -11.022  1.00  0.00     0.164 HD
BRANCH  14  17
ATOM     17  C   UNL     1     -18.545   3.310 -10.471  1.00  0.00     0.207 C 
BRANCH  17  18
ATOM     18  C   UNL     1     -17.408   3.112 -11.479  1.00  0.00     0.077 C 
BRANCH  18  19
ATOM     19  C   UNL     1     -16.343   2.179 -10.947  1.00  0.00    -0.043 A 
ATOM     20  C   UNL     1     -15.564   0.622  -9.259  1.00  0.00     0.083 A 
ATOM     21  C   UNL     1     -16.567   1.444  -9.773  1.00  0.00     0.028 A 
ATOM     22  C   UNL     1     -14.334   0.530  -9.911  1.00  0.00     0.134 A 
ATOM     23  C   UNL     1     -14.099   1.252 -11.075  1.00  0.00     0.048 A 
ATOM     24  C   UNL     1     -15.100   2.077 -11.592  1.00  0.00     0.008 A 
ATOM     25  Cl  UNL     1     -15.858  -0.272  -7.814  1.00  0.00    -0.080 Cl
BRANCH  22  26
ATOM     26  O   UNL     1     -13.316  -0.255  -9.439  1.00  0.00    -0.506 OA
ATOM     27  H   UNL     1     -13.723  -1.088  -9.137  1.00  0.00     0.293 HD
ENDBRANCH  22  26
ENDBRANCH  18  19
ENDBRANCH  17  18
BRANCH  17  28
ATOM     28  O   UNL     1     -19.798   3.369 -11.172  1.00  0.00    -0.383 OA
ATOM     29  H   UNL     1     -20.346   4.033 -10.695  1.00  0.00     0.211 HD
ENDBRANCH  17  28
ENDBRANCH  14  17
ENDBRANCH  12  13
BRANCH  12  30
ATOM     30  C   UNL     1     -17.549   7.943 -10.460  1.00  0.00     0.018 C 
ATOM     31  C   UNL     1     -18.790   8.522  -9.765  1.00  0.00     0.010 C 
BRANCH  30  32
ATOM     32  C   UNL     1     -17.869   7.623 -11.941  1.00  0.00     0.002 C 
ATOM     33  C   UNL     1     -17.549   8.735 -12.931  1.00  0.00     0.004 C 
ENDBRANCH  30  32
ENDBRANCH  12  30
ENDBRANCH  10  12
ENDBRANCH   1  10
BRANCH   5  34
ATOM     34  C   UNL     1     -12.997   5.001 -10.849  1.00  0.00     0.242 C 
ATOM     35  O   UNL     1     -11.932   5.025 -11.466  1.00  0.00    -0.273 OA
ATOM     36  N   UNL     1     -13.131   4.375  -9.630  1.00  0.00    -0.354 N 
ATOM     37  H   UNL     1     -14.063   4.283  -9.225  1.00  0.00     0.163 HD
BRANCH  36  38
ATOM     38  C   UNL     1     -11.988   3.934  -8.858  1.00  0.00     0.116 C 
BRANCH  38  39
ATOM     39  C   UNL     1     -11.551   5.041  -7.901  1.00  0.00     0.023 C 
BRANCH  39  40
ATOM     40  C   UNL     1     -10.737   4.508  -6.727  1.00  0.00     0.026 C 
BRANCH  40  41
ATOM     41  C   UNL     1      -9.294   4.232  -7.150  1.00  0.00     0.146 C 
BRANCH  41  42
ATOM     42  N   UNL     1      -8.631   5.485  -7.487  1.00  0.00    -0.254 NA
ATOM     43  C   UNL     1      -7.997   5.588  -8.594  1.00  0.00     0.185 C 
ATOM     44  N   UNL     1      -7.817   4.685  -9.575  1.00  0.00    -0.370 N 
ATOM     45  N   UNL     1      -7.389   6.750  -8.884  1.00  0.00    -0.370 N 
ATOM     46  H   UNL     1      -7.099   4.816 -10.268  1.00  0.00     0.159 HD
ATOM     47  H   UNL     1      -8.222   3.755  -9.525  1.00  0.00     0.159 HD
ATOM     48  H   UNL     1      -7.482   7.488  -8.199  1.00  0.00     0.159 HD
ATOM     49  H   UNL     1      -7.082   6.987  -9.811  1.00  0.00     0.159 HD
ENDBRANCH  41  42
ENDBRANCH  40  41
ENDBRANCH  39  40
ENDBRANCH  38  39
ENDBRANCH  36  38
ENDBRANCH   5  34
BRANCH   8  50
ATOM     50  O   UNL     1     -11.233   9.327 -11.698  1.00  0.00    -0.245 OA
BRANCH  50  51
ATOM     51  S   UNL     1     -10.075  10.035 -10.802  1.00  0.00     0.397 S 
ATOM     52  O   UNL     1     -10.723  10.865  -9.811  1.00  0.00    -0.169 OA
ATOM     53  O   UNL     1      -9.039  10.556 -11.669  1.00  0.00    -0.169 OA
BRANCH  51  54
ATOM     54  O   UNL     1      -9.464   8.786  -9.994  1.00  0.00    -0.264 OA
ATOM     55  H   UNL     1     -10.159   8.452  -9.391  1.00  0.00     0.236 HD
ENDBRANCH  51  54
ENDBRANCH  50  51
ENDBRANCH   8  50
TORSDOF 19
ENDMDL
