MODEL 1
REMARK VINA RESULT:    -6.743      0.000      0.000
REMARK INTER + INTRA:         -17.965
REMARK INTER:                 -13.641
REMARK INTRA:                  -4.324
REMARK UNBOUND:                -4.324
REMARK SMILES CC[C@@H](C)[C@@H](NC(=O)[C@@H](O)Cc1ccc(O)c(Cl)c1)C(=O)N1[C@H](C(=O)NCCCCN=C(N)N)C[C@H]2CC[C@H](OS(=O)(=O)O)C[C@@H]21
REMARK SMILES IDX 22 1 36 2 46 3 35 4 23 5 45 6 37 7 39 8 38 9 20 10 21 11
REMARK SMILES IDX 5 12 6 13 7 14 8 15 9 17 11 18 12 19 17 20 19 21 15 22 14 23
REMARK SMILES IDX 13 24 18 25 16 26 10 28 3 30 4 31 2 32 1 33 24 34 25 35
REMARK SMILES IDX 26 36 27 38 28 39 29 40 30 41 31 42 32 43 33 44 34 45 40 50
REMARK SMILES IDX 41 51 42 52 43 53 44 54
REMARK H PARENT 6 16 16 27 10 29 26 37 33 46 33 47 34 48 34 49 44 55
ROOT
ATOM      1  N   UNL     1      -1.527 -18.347   3.726  1.00  0.00    -0.326 N 
ATOM      2  C   UNL     1       0.130 -16.785   3.128  1.00  0.00     0.014 C 
ATOM      3  C   UNL     1      -1.359 -16.915   3.459  1.00  0.00     0.091 C 
ATOM      4  C   UNL     1       0.428 -18.091   2.407  1.00  0.00     0.041 C 
ATOM      5  C   UNL     1      -0.302 -19.084   3.330  1.00  0.00     0.175 C 
ATOM      6  C   UNL     1      -1.694 -15.926   4.574  1.00  0.00     0.059 C 
ATOM      7  C   UNL     1       0.418 -15.469   2.432  1.00  0.00     0.008 C 
ATOM      8  C   UNL     1      -0.844 -14.638   4.538  1.00  0.00     0.143 C 
ATOM      9  C   UNL     1      -0.343 -14.314   3.116  1.00  0.00     0.034 C 
ENDROOT
BRANCH   1  10
ATOM     10  C   UNL     1      -2.665 -19.060   4.060  1.00  0.00     0.246 C 
ATOM     11  O   UNL     1      -2.784 -19.500   5.208  1.00  0.00    -0.272 OA
BRANCH  10  12
ATOM     12  C   UNL     1      -3.787 -19.255   2.998  1.00  0.00     0.174 C 
BRANCH  12  13
ATOM     13  N   UNL     1      -3.307 -18.834   1.683  1.00  0.00    -0.342 N 
ATOM     14  C   UNL     1      -3.492 -19.536   0.512  1.00  0.00     0.249 C 
ATOM     15  O   UNL     1      -4.111 -20.590   0.440  1.00  0.00    -0.272 OA
ATOM     16  H   UNL     1      -2.646 -18.065   1.610  1.00  0.00     0.164 HD
BRANCH  14  17
ATOM     17  C   UNL     1      -2.851 -18.839  -0.707  1.00  0.00     0.207 C 
BRANCH  17  18
ATOM     18  C   UNL     1      -1.506 -18.214  -0.322  1.00  0.00     0.077 C 
BRANCH  18  19
ATOM     19  C   UNL     1      -1.471 -16.731  -0.617  1.00  0.00    -0.043 A 
ATOM     20  C   UNL     1      -2.148 -14.464  -0.084  1.00  0.00     0.083 A 
ATOM     21  C   UNL     1      -2.142 -15.826   0.220  1.00  0.00     0.028 A 
ATOM     22  C   UNL     1      -1.488 -13.999  -1.222  1.00  0.00     0.134 A 
ATOM     23  C   UNL     1      -0.820 -14.885  -2.059  1.00  0.00     0.048 A 
ATOM     24  C   UNL     1      -0.813 -16.249  -1.759  1.00  0.00     0.008 A 
ATOM     25  Cl  UNL     1      -2.979 -13.367   0.956  1.00  0.00    -0.080 Cl
BRANCH  22  26
ATOM     26  O   UNL     1      -1.476 -12.674  -1.566  1.00  0.00    -0.506 OA
ATOM     27  H   UNL     1      -1.003 -12.610  -2.416  1.00  0.00     0.293 HD
ENDBRANCH  22  26
ENDBRANCH  18  19
ENDBRANCH  17  18
BRANCH  17  28
ATOM     28  O   UNL     1      -3.716 -17.821  -1.235  1.00  0.00    -0.383 OA
ATOM     29  H   UNL     1      -3.859 -18.050  -2.182  1.00  0.00     0.211 HD
ENDBRANCH  17  28
ENDBRANCH  14  17
ENDBRANCH  12  13
BRANCH  12  30
ATOM     30  C   UNL     1      -5.116 -18.557   3.395  1.00  0.00     0.018 C 
ATOM     31  C   UNL     1      -6.324 -19.326   2.837  1.00  0.00     0.010 C 
BRANCH  30  32
ATOM     32  C   UNL     1      -5.188 -17.070   2.969  1.00  0.00     0.002 C 
ATOM     33  C   UNL     1      -5.956 -16.799   1.681  1.00  0.00     0.004 C 
ENDBRANCH  30  32
ENDBRANCH  12  30
ENDBRANCH  10  12
ENDBRANCH   1  10
BRANCH   5  34
ATOM     34  C   UNL     1       0.553 -19.441   4.576  1.00  0.00     0.242 C 
ATOM     35  O   UNL     1       0.406 -18.875   5.658  1.00  0.00    -0.273 OA
ATOM     36  N   UNL     1       1.521 -20.398   4.367  1.00  0.00    -0.354 N 
ATOM     37  H   UNL     1       1.674 -20.744   3.419  1.00  0.00     0.163 HD
BRANCH  36  38
ATOM     38  C   UNL     1       2.257 -21.003   5.457  1.00  0.00     0.116 C 
BRANCH  38  39
ATOM     39  C   UNL     1       3.757 -20.851   5.217  1.00  0.00     0.023 C 
BRANCH  39  40
ATOM     40  C   UNL     1       4.076 -20.379   3.802  1.00  0.00     0.026 C 
BRANCH  40  41
ATOM     41  C   UNL     1       4.740 -19.003   3.826  1.00  0.00     0.146 C 
BRANCH  41  42
ATOM     42  N   UNL     1       3.908 -18.067   4.570  1.00  0.00    -0.254 NA
ATOM     43  C   UNL     1       3.664 -16.909   4.081  1.00  0.00     0.185 C 
ATOM     44  N   UNL     1       4.064 -16.359   2.920  1.00  0.00    -0.370 N 
ATOM     45  N   UNL     1       2.897 -16.060   4.784  1.00  0.00    -0.370 N 
ATOM     46  H   UNL     1       4.003 -15.365   2.776  1.00  0.00     0.159 HD
ATOM     47  H   UNL     1       4.640 -16.870   2.258  1.00  0.00     0.159 HD
ATOM     48  H   UNL     1       2.547 -16.400   5.669  1.00  0.00     0.159 HD
ATOM     49  H   UNL     1       2.471 -15.246   4.376  1.00  0.00     0.159 HD
ENDBRANCH  41  42
ENDBRANCH  40  41
ENDBRANCH  39  40
ENDBRANCH  38  39
ENDBRANCH  36  38
ENDBRANCH   5  34
BRANCH   8  50
ATOM     50  O   UNL     1       0.288 -14.773   5.398  1.00  0.00    -0.245 OA
BRANCH  50  51
ATOM     51  S   UNL     1       0.569 -13.646   6.537  1.00  0.00     0.397 S 
ATOM     52  O   UNL     1       0.076 -14.153   7.798  1.00  0.00    -0.169 OA
ATOM     53  O   UNL     1       0.182 -12.343   6.039  1.00  0.00    -0.169 OA
BRANCH  51  54
ATOM     54  O   UNL     1       2.173 -13.677   6.650  1.00  0.00    -0.264 OA
ATOM     55  H   UNL     1       2.498 -14.412   6.090  1.00  0.00     0.236 HD
ENDBRANCH  51  54
ENDBRANCH  50  51
ENDBRANCH   8  50
TORSDOF 19
ENDMDL
MODEL 2
REMARK VINA RESULT:    -6.515     12.212     16.098
REMARK INTER + INTRA:         -17.504
REMARK INTER:                 -15.055
REMARK INTRA:                  -2.449
REMARK UNBOUND:                -4.324
REMARK SMILES CC[C@@H](C)[C@@H](NC(=O)[C@@H](O)Cc1ccc(O)c(Cl)c1)C(=O)N1[C@H](C(=O)NCCCCN=C(N)N)C[C@H]2CC[C@H](OS(=O)(=O)O)C[C@@H]21
REMARK SMILES IDX 22 1 36 2 46 3 35 4 23 5 45 6 37 7 39 8 38 9 20 10 21 11
REMARK SMILES IDX 5 12 6 13 7 14 8 15 9 17 11 18 12 19 17 20 19 21 15 22 14 23
REMARK SMILES IDX 13 24 18 25 16 26 10 28 3 30 4 31 2 32 1 33 24 34 25 35
REMARK SMILES IDX 26 36 27 38 28 39 29 40 30 41 31 42 32 43 33 44 34 45 40 50
REMARK SMILES IDX 41 51 42 52 43 53 44 54
REMARK H PARENT 6 16 16 27 10 29 26 37 33 46 33 47 34 48 34 49 44 55
ROOT
ATOM      1  N   UNL     1      -1.721  -8.430  11.127  1.00  0.00    -0.326 N 
ATOM      2  C   UNL     1      -3.415  -7.616   9.710  1.00  0.00     0.014 C 
ATOM      3  C   UNL     1      -2.605  -8.871  10.044  1.00  0.00     0.091 C 
ATOM      4  C   UNL     1      -2.409  -6.498   9.936  1.00  0.00     0.041 C 
ATOM      5  C   UNL     1      -1.788  -6.955  11.269  1.00  0.00     0.175 C 
ATOM      6  C   UNL     1      -3.578 -10.014  10.324  1.00  0.00     0.059 C 
ATOM      7  C   UNL     1      -4.088  -7.748   8.358  1.00  0.00     0.008 C 
ATOM      8  C   UNL     1      -4.890  -9.925   9.515  1.00  0.00     0.143 C 
ATOM      9  C   UNL     1      -4.704  -9.154   8.193  1.00  0.00     0.034 C 
ENDROOT
BRANCH   1  10
ATOM     10  C   UNL     1      -0.748  -9.131  11.820  1.00  0.00     0.246 C 
ATOM     11  O   UNL     1      -0.374 -10.226  11.389  1.00  0.00    -0.272 OA
BRANCH  10  12
ATOM     12  C   UNL     1      -0.118  -8.507  13.099  1.00  0.00     0.174 C 
BRANCH  12  13
ATOM     13  N   UNL     1       1.341  -8.525  12.996  1.00  0.00    -0.342 N 
ATOM     14  C   UNL     1       2.082  -7.744  12.138  1.00  0.00     0.249 C 
ATOM     15  O   UNL     1       1.596  -6.918  11.376  1.00  0.00    -0.272 OA
ATOM     16  H   UNL     1       1.868  -9.266  13.450  1.00  0.00     0.164 HD
BRANCH  14  17
ATOM     17  C   UNL     1       3.599  -8.007  12.253  1.00  0.00     0.207 C 
BRANCH  17  18
ATOM     18  C   UNL     1       4.386  -6.716  12.005  1.00  0.00     0.077 C 
BRANCH  18  19
ATOM     19  C   UNL     1       4.348  -5.795  13.204  1.00  0.00    -0.043 A 
ATOM     20  C   UNL     1       4.369  -3.556  14.136  1.00  0.00     0.083 A 
ATOM     21  C   UNL     1       4.354  -4.402  13.027  1.00  0.00     0.028 A 
ATOM     22  C   UNL     1       4.379  -4.092  15.424  1.00  0.00     0.134 A 
ATOM     23  C   UNL     1       4.372  -5.469  15.613  1.00  0.00     0.048 A 
ATOM     24  C   UNL     1       4.360  -6.319  14.505  1.00  0.00     0.008 A 
ATOM     25  Cl  UNL     1       4.377  -1.847  13.899  1.00  0.00    -0.080 Cl
BRANCH  22  26
ATOM     26  O   UNL     1       4.404  -3.302  16.541  1.00  0.00    -0.506 OA
ATOM     27  H   UNL     1       5.335  -3.248  16.826  1.00  0.00     0.293 HD
ENDBRANCH  22  26
ENDBRANCH  18  19
ENDBRANCH  17  18
BRANCH  17  28
ATOM     28  O   UNL     1       4.022  -9.011  11.318  1.00  0.00    -0.383 OA
ATOM     29  H   UNL     1       4.511  -8.534  10.609  1.00  0.00     0.211 HD
ENDBRANCH  17  28
ENDBRANCH  14  17
ENDBRANCH  12  13
BRANCH  12  30
ATOM     30  C   UNL     1      -0.628  -9.173  14.405  1.00  0.00     0.018 C 
ATOM     31  C   UNL     1      -2.011  -9.808  14.191  1.00  0.00     0.010 C 
BRANCH  30  32
ATOM     32  C   UNL     1      -0.666  -8.213  15.619  1.00  0.00     0.002 C 
ATOM     33  C   UNL     1      -1.965  -8.218  16.414  1.00  0.00     0.004 C 
ENDBRANCH  30  32
ENDBRANCH  12  30
ENDBRANCH  10  12
ENDBRANCH   1  10
BRANCH   5  34
ATOM     34  C   UNL     1      -2.676  -6.558  12.479  1.00  0.00     0.242 C 
ATOM     35  O   UNL     1      -3.749  -7.112  12.717  1.00  0.00    -0.273 OA
ATOM     36  N   UNL     1      -2.202  -5.507  13.232  1.00  0.00    -0.354 N 
ATOM     37  H   UNL     1      -1.369  -5.011  12.915  1.00  0.00     0.163 HD
BRANCH  36  38
ATOM     38  C   UNL     1      -2.784  -5.148  14.509  1.00  0.00     0.116 C 
BRANCH  38  39
ATOM     39  C   UNL     1      -3.183  -3.674  14.501  1.00  0.00     0.023 C 
BRANCH  39  40
ATOM     40  C   UNL     1      -4.459  -3.421  13.704  1.00  0.00     0.026 C 
BRANCH  40  41
ATOM     41  C   UNL     1      -4.148  -2.673  12.407  1.00  0.00     0.146 C 
BRANCH  41  42
ATOM     42  N   UNL     1      -5.061  -3.108  11.358  1.00  0.00    -0.254 NA
ATOM     43  C   UNL     1      -5.830  -2.254  10.794  1.00  0.00     0.185 C 
ATOM     44  N   UNL     1      -5.959  -0.932  11.007  1.00  0.00    -0.370 N 
ATOM     45  N   UNL     1      -6.667  -2.676   9.832  1.00  0.00    -0.370 N 
ATOM     46  H   UNL     1      -6.765  -0.434  10.670  1.00  0.00     0.159 HD
ATOM     47  H   UNL     1      -5.391  -0.445  11.694  1.00  0.00     0.159 HD
ATOM     48  H   UNL     1      -6.627  -3.660   9.603  1.00  0.00     0.159 HD
ATOM     49  H   UNL     1      -7.118  -2.049   9.190  1.00  0.00     0.159 HD
ENDBRANCH  41  42
ENDBRANCH  40  41
ENDBRANCH  39  40
ENDBRANCH  38  39
ENDBRANCH  36  38
ENDBRANCH   5  34
BRANCH   8  50
ATOM     50  O   UNL     1      -5.898  -9.269  10.285  1.00  0.00    -0.245 OA
BRANCH  50  51
ATOM     51  S   UNL     1      -6.613 -10.060  11.512  1.00  0.00     0.397 S 
ATOM     52  O   UNL     1      -6.053  -9.565  12.750  1.00  0.00    -0.169 OA
ATOM     53  O   UNL     1      -6.663 -11.477  11.214  1.00  0.00    -0.169 OA
BRANCH  51  54
ATOM     54  O   UNL     1      -8.115  -9.488  11.451  1.00  0.00    -0.264 OA
ATOM     55  H   UNL     1      -8.284  -9.003  12.285  1.00  0.00     0.236 HD
ENDBRANCH  51  54
ENDBRANCH  50  51
ENDBRANCH   8  50
TORSDOF 19
ENDMDL
MODEL 3
REMARK VINA RESULT:    -6.461     12.752     15.822
REMARK INTER + INTRA:         -17.395
REMARK INTER:                 -14.141
REMARK INTRA:                  -3.254
REMARK UNBOUND:                -4.324
REMARK SMILES CC[C@@H](C)[C@@H](NC(=O)[C@@H](O)Cc1ccc(O)c(Cl)c1)C(=O)N1[C@H](C(=O)NCCCCN=C(N)N)C[C@H]2CC[C@H](OS(=O)(=O)O)C[C@@H]21
REMARK SMILES IDX 22 1 36 2 46 3 35 4 23 5 45 6 37 7 39 8 38 9 20 10 21 11
REMARK SMILES IDX 5 12 6 13 7 14 8 15 9 17 11 18 12 19 17 20 19 21 15 22 14 23
REMARK SMILES IDX 13 24 18 25 16 26 10 28 3 30 4 31 2 32 1 33 24 34 25 35
REMARK SMILES IDX 26 36 27 38 28 39 29 40 30 41 31 42 32 43 33 44 34 45 40 50
REMARK SMILES IDX 41 51 42 52 43 53 44 54
REMARK H PARENT 6 16 16 27 10 29 26 37 33 46 33 47 34 48 34 49 44 55
ROOT
ATOM      1  N   UNL     1       2.579  -8.364  12.362  1.00  0.00    -0.326 N 
ATOM      2  C   UNL     1       4.880  -7.875  12.447  1.00  0.00     0.014 C 
ATOM      3  C   UNL     1       3.570  -7.457  11.775  1.00  0.00     0.091 C 
ATOM      4  C   UNL     1       4.710  -9.378  12.607  1.00  0.00     0.041 C 
ATOM      5  C   UNL     1       3.263  -9.434  13.130  1.00  0.00     0.175 C 
ATOM      6  C   UNL     1       3.383  -5.954  11.975  1.00  0.00     0.059 C 
ATOM      7  C   UNL     1       6.076  -7.340  11.684  1.00  0.00     0.008 C 
ATOM      8  C   UNL     1       4.709  -5.165  12.031  1.00  0.00     0.143 C 
ATOM      9  C   UNL     1       5.838  -5.875  11.259  1.00  0.00     0.034 C 
ENDROOT
BRANCH   1  10
ATOM     10  C   UNL     1       1.220  -8.470  12.122  1.00  0.00     0.246 C 
ATOM     11  O   UNL     1       0.430  -8.308  13.058  1.00  0.00    -0.272 OA
BRANCH  10  12
ATOM     12  C   UNL     1       0.716  -8.746  10.675  1.00  0.00     0.174 C 
BRANCH  12  13
ATOM     13  N   UNL     1      -0.549  -8.048  10.447  1.00  0.00    -0.342 N 
ATOM     14  C   UNL     1      -0.666  -6.739  10.034  1.00  0.00     0.249 C 
ATOM     15  O   UNL     1       0.289  -6.015   9.783  1.00  0.00    -0.272 OA
ATOM     16  H   UNL     1      -1.420  -8.467  10.762  1.00  0.00     0.164 HD
BRANCH  14  17
ATOM     17  C   UNL     1      -2.136  -6.287   9.900  1.00  0.00     0.207 C 
BRANCH  17  18
ATOM     18  C   UNL     1      -2.839  -6.341  11.260  1.00  0.00     0.077 C 
BRANCH  18  19
ATOM     19  C   UNL     1      -2.900  -4.980  11.916  1.00  0.00    -0.043 A 
ATOM     20  C   UNL     1      -3.065  -3.615  13.914  1.00  0.00     0.083 A 
ATOM     21  C   UNL     1      -2.959  -4.870  13.314  1.00  0.00     0.028 A 
ATOM     22  C   UNL     1      -3.115  -2.465  13.125  1.00  0.00     0.134 A 
ATOM     23  C   UNL     1      -3.057  -2.560  11.739  1.00  0.00     0.048 A 
ATOM     24  C   UNL     1      -2.952  -3.815  11.135  1.00  0.00     0.008 A 
ATOM     25  Cl  UNL     1      -3.137  -3.500  15.633  1.00  0.00    -0.080 Cl
BRANCH  22  26
ATOM     26  O   UNL     1      -3.229  -1.214  13.667  1.00  0.00    -0.506 OA
ATOM     27  H   UNL     1      -4.182  -1.044  13.781  1.00  0.00     0.293 HD
ENDBRANCH  22  26
ENDBRANCH  18  19
ENDBRANCH  17  18
BRANCH  17  28
ATOM     28  O   UNL     1      -2.847  -7.110   8.962  1.00  0.00    -0.383 OA
ATOM     29  H   UNL     1      -2.792  -8.029   9.310  1.00  0.00     0.211 HD
ENDBRANCH  17  28
ENDBRANCH  14  17
ENDBRANCH  12  13
BRANCH  12  30
ATOM     30  C   UNL     1       0.623 -10.261  10.351  1.00  0.00     0.018 C 
ATOM     31  C   UNL     1       1.993 -10.814   9.927  1.00  0.00     0.010 C 
BRANCH  30  32
ATOM     32  C   UNL     1      -0.443 -10.604   9.282  1.00  0.00     0.002 C 
ATOM     33  C   UNL     1       0.004 -11.589   8.210  1.00  0.00     0.004 C 
ENDBRANCH  30  32
ENDBRANCH  12  30
ENDBRANCH  10  12
ENDBRANCH   1  10
BRANCH   5  34
ATOM     34  C   UNL     1       3.194  -9.146  14.654  1.00  0.00     0.242 C 
ATOM     35  O   UNL     1       3.614  -9.942  15.493  1.00  0.00    -0.273 OA
ATOM     36  N   UNL     1       2.581  -7.963  14.999  1.00  0.00    -0.354 N 
ATOM     37  H   UNL     1       2.146  -7.402  14.266  1.00  0.00     0.163 HD
BRANCH  36  38
ATOM     38  C   UNL     1       2.620  -7.437  16.348  1.00  0.00     0.116 C 
BRANCH  38  39
ATOM     39  C   UNL     1       3.833  -6.525  16.513  1.00  0.00     0.023 C 
BRANCH  39  40
ATOM     40  C   UNL     1       4.228  -6.339  17.975  1.00  0.00     0.026 C 
BRANCH  40  41
ATOM     41  C   UNL     1       4.610  -4.885  18.252  1.00  0.00     0.146 C 
BRANCH  41  42
ATOM     42  N   UNL     1       3.453  -4.161  18.761  1.00  0.00    -0.254 NA
ATOM     43  C   UNL     1       2.983  -3.171  18.098  1.00  0.00     0.185 C 
ATOM     44  N   UNL     1       3.391  -2.640  16.931  1.00  0.00    -0.370 N 
ATOM     45  N   UNL     1       1.918  -2.514  18.586  1.00  0.00    -0.370 N 
ATOM     46  H   UNL     1       3.088  -1.723  16.651  1.00  0.00     0.159 HD
ATOM     47  H   UNL     1       4.178  -3.024  16.417  1.00  0.00     0.159 HD
ATOM     48  H   UNL     1       1.542  -2.857  19.460  1.00  0.00     0.159 HD
ATOM     49  H   UNL     1       1.356  -1.898  18.027  1.00  0.00     0.159 HD
ENDBRANCH  41  42
ENDBRANCH  40  41
ENDBRANCH  39  40
ENDBRANCH  38  39
ENDBRANCH  36  38
ENDBRANCH   5  34
BRANCH   8  50
ATOM     50  O   UNL     1       5.122  -4.997  13.387  1.00  0.00    -0.245 OA
BRANCH  50  51
ATOM     51  S   UNL     1       5.299  -3.498  13.993  1.00  0.00     0.397 S 
ATOM     52  O   UNL     1       5.760  -3.619  15.358  1.00  0.00    -0.169 OA
ATOM     53  O   UNL     1       4.143  -2.696  13.650  1.00  0.00    -0.169 OA
BRANCH  51  54
ATOM     54  O   UNL     1       6.554  -2.942  13.155  1.00  0.00    -0.264 OA
ATOM     55  H   UNL     1       6.663  -3.514  12.367  1.00  0.00     0.236 HD
ENDBRANCH  51  54
ENDBRANCH  50  51
ENDBRANCH   8  50
TORSDOF 19
ENDMDL
MODEL 4
REMARK VINA RESULT:    -6.371      2.378      5.866
REMARK INTER + INTRA:         -17.213
REMARK INTER:                 -13.111
REMARK INTRA:                  -4.101
REMARK UNBOUND:                -4.324
REMARK SMILES CC[C@@H](C)[C@@H](NC(=O)[C@@H](O)Cc1ccc(O)c(Cl)c1)C(=O)N1[C@H](C(=O)NCCCCN=C(N)N)C[C@H]2CC[C@H](OS(=O)(=O)O)C[C@@H]21
REMARK SMILES IDX 22 1 36 2 46 3 35 4 23 5 45 6 37 7 39 8 38 9 20 10 21 11
REMARK SMILES IDX 5 12 6 13 7 14 8 15 9 17 11 18 12 19 17 20 19 21 15 22 14 23
REMARK SMILES IDX 13 24 18 25 16 26 10 28 3 30 4 31 2 32 1 33 24 34 25 35
REMARK SMILES IDX 26 36 27 38 28 39 29 40 30 41 31 42 32 43 33 44 34 45 40 50
REMARK SMILES IDX 41 51 42 52 43 53 44 54
REMARK H PARENT 6 16 16 27 10 29 26 37 33 46 33 47 34 48 34 49 44 55
ROOT
ATOM      1  N   UNL     1      -2.224 -17.819   6.404  1.00  0.00    -0.326 N 
ATOM      2  C   UNL     1      -2.884 -15.815   7.450  1.00  0.00     0.014 C 
ATOM      3  C   UNL     1      -1.846 -16.940   7.515  1.00  0.00     0.091 C 
ATOM      4  C   UNL     1      -4.137 -16.542   6.987  1.00  0.00     0.041 C 
ATOM      5  C   UNL     1      -3.547 -17.416   5.865  1.00  0.00     0.175 C 
ATOM      6  C   UNL     1      -0.453 -16.313   7.500  1.00  0.00     0.059 C 
ATOM      7  C   UNL     1      -2.916 -15.032   8.747  1.00  0.00     0.008 C 
ATOM      8  C   UNL     1      -0.388 -14.928   8.180  1.00  0.00     0.143 C 
ATOM      9  C   UNL     1      -1.484 -14.757   9.252  1.00  0.00     0.034 C 
ENDROOT
BRANCH   1  10
ATOM     10  C   UNL     1      -1.658 -19.010   5.983  1.00  0.00     0.246 C 
ATOM     11  O   UNL     1      -2.273 -20.066   6.166  1.00  0.00    -0.272 OA
BRANCH  10  12
ATOM     12  C   UNL     1      -0.285 -18.990   5.252  1.00  0.00     0.174 C 
BRANCH  12  13
ATOM     13  N   UNL     1      -0.192 -17.807   4.396  1.00  0.00    -0.342 N 
ATOM     14  C   UNL     1       0.927 -17.018   4.258  1.00  0.00     0.249 C 
ATOM     15  O   UNL     1       1.992 -17.239   4.822  1.00  0.00    -0.272 OA
ATOM     16  H   UNL     1      -1.037 -17.412   3.991  1.00  0.00     0.164 HD
BRANCH  14  17
ATOM     17  C   UNL     1       0.704 -15.832   3.295  1.00  0.00     0.207 C 
BRANCH  17  18
ATOM     18  C   UNL     1       0.413 -16.338   1.879  1.00  0.00     0.077 C 
BRANCH  18  19
ATOM     19  C   UNL     1      -0.478 -15.386   1.114  1.00  0.00    -0.043 A 
ATOM     20  C   UNL     1      -1.998 -13.496   1.080  1.00  0.00     0.083 A 
ATOM     21  C   UNL     1      -1.137 -14.342   1.781  1.00  0.00     0.028 A 
ATOM     22  C   UNL     1      -2.206 -13.687  -0.286  1.00  0.00     0.134 A 
ATOM     23  C   UNL     1      -1.560 -14.718  -0.959  1.00  0.00     0.048 A 
ATOM     24  C   UNL     1      -0.699 -15.567  -0.260  1.00  0.00     0.008 A 
ATOM     25  Cl  UNL     1      -2.798 -12.218   1.918  1.00  0.00    -0.080 Cl
BRANCH  22  26
ATOM     26  O   UNL     1      -3.048 -12.890  -1.013  1.00  0.00    -0.506 OA
ATOM     27  H   UNL     1      -3.397 -13.439  -1.739  1.00  0.00     0.293 HD
ENDBRANCH  22  26
ENDBRANCH  18  19
ENDBRANCH  17  18
BRANCH  17  28
ATOM     28  O   UNL     1       1.851 -14.967   3.266  1.00  0.00    -0.383 OA
ATOM     29  H   UNL     1       2.224 -15.040   2.358  1.00  0.00     0.211 HD
ENDBRANCH  17  28
ENDBRANCH  14  17
ENDBRANCH  12  13
BRANCH  12  30
ATOM     30  C   UNL     1       0.002 -20.304   4.477  1.00  0.00     0.018 C 
ATOM     31  C   UNL     1       1.465 -20.737   4.658  1.00  0.00     0.010 C 
BRANCH  30  32
ATOM     32  C   UNL     1      -0.348 -20.228   2.971  1.00  0.00     0.002 C 
ATOM     33  C   UNL     1       0.797 -20.549   2.019  1.00  0.00     0.004 C 
ENDBRANCH  30  32
ENDBRANCH  12  30
ENDBRANCH  10  12
ENDBRANCH   1  10
BRANCH   5  34
ATOM     34  C   UNL     1      -3.382 -16.617   4.545  1.00  0.00     0.242 C 
ATOM     35  O   UNL     1      -2.480 -15.796   4.381  1.00  0.00    -0.273 OA
ATOM     36  N   UNL     1      -4.348 -16.853   3.593  1.00  0.00    -0.354 N 
ATOM     37  H   UNL     1      -5.138 -17.454   3.832  1.00  0.00     0.163 HD
BRANCH  36  38
ATOM     38  C   UNL     1      -4.232 -16.363   2.235  1.00  0.00     0.116 C 
BRANCH  38  39
ATOM     39  C   UNL     1      -4.352 -17.525   1.252  1.00  0.00     0.023 C 
BRANCH  39  40
ATOM     40  C   UNL     1      -2.998 -17.978   0.717  1.00  0.00     0.026 C 
BRANCH  40  41
ATOM     41  C   UNL     1      -3.171 -18.848  -0.528  1.00  0.00     0.146 C 
BRANCH  41  42
ATOM     42  N   UNL     1      -4.578 -19.183  -0.704  1.00  0.00    -0.254 NA
ATOM     43  C   UNL     1      -4.908 -20.373  -1.040  1.00  0.00     0.185 C 
ATOM     44  N   UNL     1      -4.138 -21.450  -1.278  1.00  0.00    -0.370 N 
ATOM     45  N   UNL     1      -6.211 -20.660  -1.201  1.00  0.00    -0.370 N 
ATOM     46  H   UNL     1      -4.508 -22.247  -1.768  1.00  0.00     0.159 HD
ATOM     47  H   UNL     1      -3.127 -21.413  -1.189  1.00  0.00     0.159 HD
ATOM     48  H   UNL     1      -6.861 -19.905  -1.032  1.00  0.00     0.159 HD
ATOM     49  H   UNL     1      -6.561 -21.601  -1.228  1.00  0.00     0.159 HD
ENDBRANCH  41  42
ENDBRANCH  40  41
ENDBRANCH  39  40
ENDBRANCH  38  39
ENDBRANCH  36  38
ENDBRANCH   5  34
BRANCH   8  50
ATOM     50  O   UNL     1      -0.543 -13.896   7.205  1.00  0.00    -0.245 OA
BRANCH  50  51
ATOM     51  S   UNL     1       0.675 -12.850   6.944  1.00  0.00     0.397 S 
ATOM     52  O   UNL     1       1.447 -12.749   8.162  1.00  0.00    -0.169 OA
ATOM     53  O   UNL     1       0.170 -11.675   6.265  1.00  0.00    -0.169 OA
BRANCH  51  54
ATOM     54  O   UNL     1       1.598 -13.662   5.907  1.00  0.00    -0.264 OA
ATOM     55  H   UNL     1       2.515 -13.331   6.001  1.00  0.00     0.236 HD
ENDBRANCH  51  54
ENDBRANCH  50  51
ENDBRANCH   8  50
TORSDOF 19
ENDMDL
MODEL 5
REMARK VINA RESULT:    -6.334      1.528      2.079
REMARK INTER + INTRA:         -17.138
REMARK INTER:                 -12.264
REMARK INTRA:                  -4.874
REMARK UNBOUND:                -4.324
REMARK SMILES CC[C@@H](C)[C@@H](NC(=O)[C@@H](O)Cc1ccc(O)c(Cl)c1)C(=O)N1[C@H](C(=O)NCCCCN=C(N)N)C[C@H]2CC[C@H](OS(=O)(=O)O)C[C@@H]21
REMARK SMILES IDX 22 1 36 2 46 3 35 4 23 5 45 6 37 7 39 8 38 9 20 10 21 11
REMARK SMILES IDX 5 12 6 13 7 14 8 15 9 17 11 18 12 19 17 20 19 21 15 22 14 23
REMARK SMILES IDX 13 24 18 25 16 26 10 28 3 30 4 31 2 32 1 33 24 34 25 35
REMARK SMILES IDX 26 36 27 38 28 39 29 40 30 41 31 42 32 43 33 44 34 45 40 50
REMARK SMILES IDX 41 51 42 52 43 53 44 54
REMARK H PARENT 6 16 16 27 10 29 26 37 33 46 33 47 34 48 34 49 44 55
ROOT
ATOM      1  N   UNL     1      -1.277 -18.806   4.221  1.00  0.00    -0.326 N 
ATOM      2  C   UNL     1      -0.154 -16.814   3.663  1.00  0.00     0.014 C 
ATOM      3  C   UNL     1      -1.397 -17.354   4.376  1.00  0.00     0.091 C 
ATOM      4  C   UNL     1       0.027 -17.797   2.517  1.00  0.00     0.041 C 
ATOM      5  C   UNL     1      -0.193 -19.127   3.260  1.00  0.00     0.175 C 
ATOM      6  C   UNL     1      -1.432 -16.776   5.790  1.00  0.00     0.059 C 
ATOM      7  C   UNL     1      -0.302 -15.336   3.359  1.00  0.00     0.008 C 
ATOM      8  C   UNL     1      -0.820 -15.363   5.899  1.00  0.00     0.143 C 
ATOM      9  C   UNL     1      -0.906 -14.590   4.568  1.00  0.00     0.034 C 
ENDROOT
BRANCH   1  10
ATOM     10  C   UNL     1      -2.122 -19.817   4.647  1.00  0.00     0.246 C 
ATOM     11  O   UNL     1      -1.789 -20.512   5.613  1.00  0.00    -0.272 OA
BRANCH  10  12
ATOM     12  C   UNL     1      -3.488 -20.028   3.931  1.00  0.00     0.174 C 
BRANCH  12  13
ATOM     13  N   UNL     1      -3.757 -18.908   3.030  1.00  0.00    -0.342 N 
ATOM     14  C   UNL     1      -3.882 -19.006   1.663  1.00  0.00     0.249 C 
ATOM     15  O   UNL     1      -3.809 -20.062   1.045  1.00  0.00    -0.272 OA
ATOM     16  H   UNL     1      -3.687 -17.955   3.377  1.00  0.00     0.164 HD
BRANCH  14  17
ATOM     17  C   UNL     1      -4.147 -17.643   0.989  1.00  0.00     0.207 C 
BRANCH  17  18
ATOM     18  C   UNL     1      -3.551 -16.507   1.827  1.00  0.00     0.077 C 
BRANCH  18  19
ATOM     19  C   UNL     1      -2.978 -15.410   0.958  1.00  0.00    -0.043 A 
ATOM     20  C   UNL     1      -1.537 -14.705  -0.861  1.00  0.00     0.083 A 
ATOM     21  C   UNL     1      -2.103 -15.723  -0.093  1.00  0.00     0.028 A 
ATOM     22  C   UNL     1      -1.839 -13.371  -0.584  1.00  0.00     0.134 A 
ATOM     23  C   UNL     1      -2.704 -13.047   0.455  1.00  0.00     0.048 A 
ATOM     24  C   UNL     1      -3.270 -14.064   1.226  1.00  0.00     0.008 A 
ATOM     25  Cl  UNL     1      -0.464 -15.110  -2.149  1.00  0.00    -0.080 Cl
BRANCH  22  26
ATOM     26  O   UNL     1      -1.300 -12.338  -1.302  1.00  0.00    -0.506 OA
ATOM     27  H   UNL     1      -2.009 -11.678  -1.418  1.00  0.00     0.293 HD
ENDBRANCH  22  26
ENDBRANCH  18  19
ENDBRANCH  17  18
BRANCH  17  28
ATOM     28  O   UNL     1      -5.555 -17.418   0.814  1.00  0.00    -0.383 OA
ATOM     29  H   UNL     1      -6.001 -17.903   1.545  1.00  0.00     0.211 HD
ENDBRANCH  17  28
ENDBRANCH  14  17
ENDBRANCH  12  13
BRANCH  12  30
ATOM     30  C   UNL     1      -4.653 -20.282   4.925  1.00  0.00     0.018 C 
ATOM     31  C   UNL     1      -5.824 -20.989   4.224  1.00  0.00     0.010 C 
BRANCH  30  32
ATOM     32  C   UNL     1      -5.153 -19.002   5.636  1.00  0.00     0.002 C 
ATOM     33  C   UNL     1      -4.741 -18.865   7.096  1.00  0.00     0.004 C 
ENDBRANCH  30  32
ENDBRANCH  12  30
ENDBRANCH  10  12
ENDBRANCH   1  10
BRANCH   5  34
ATOM     34  C   UNL     1       1.088 -19.583   4.008  1.00  0.00     0.242 C 
ATOM     35  O   UNL     1       1.340 -19.227   5.159  1.00  0.00    -0.273 OA
ATOM     36  N   UNL     1       1.946 -20.371   3.273  1.00  0.00    -0.354 N 
ATOM     37  H   UNL     1       1.741 -20.533   2.286  1.00  0.00     0.163 HD
BRANCH  36  38
ATOM     38  C   UNL     1       3.071 -21.058   3.873  1.00  0.00     0.116 C 
BRANCH  38  39
ATOM     39  C   UNL     1       4.365 -20.637   3.180  1.00  0.00     0.023 C 
BRANCH  39  40
ATOM     40  C   UNL     1       5.352 -19.981   4.139  1.00  0.00     0.026 C 
BRANCH  40  41
ATOM     41  C   UNL     1       4.781 -18.678   4.698  1.00  0.00     0.146 C 
BRANCH  41  42
ATOM     42  N   UNL     1       4.383 -17.805   3.602  1.00  0.00    -0.254 NA
ATOM     43  C   UNL     1       3.589 -16.826   3.829  1.00  0.00     0.185 C 
ATOM     44  N   UNL     1       3.013 -16.427   4.978  1.00  0.00    -0.370 N 
ATOM     45  N   UNL     1       3.230 -16.035   2.804  1.00  0.00    -0.370 N 
ATOM     46  H   UNL     1       2.226 -15.800   4.966  1.00  0.00     0.159 HD
ATOM     47  H   UNL     1       3.186 -16.907   5.856  1.00  0.00     0.159 HD
ATOM     48  H   UNL     1       3.628 -16.262   1.903  1.00  0.00     0.159 HD
ATOM     49  H   UNL     1       2.815 -15.130   2.935  1.00  0.00     0.159 HD
ENDBRANCH  41  42
ENDBRANCH  40  41
ENDBRANCH  39  40
ENDBRANCH  38  39
ENDBRANCH  36  38
ENDBRANCH   5  34
BRANCH   8  50
ATOM     50  O   UNL     1       0.552 -15.451   6.284  1.00  0.00    -0.245 OA
BRANCH  50  51
ATOM     51  S   UNL     1       1.283 -14.161   6.953  1.00  0.00     0.397 S 
ATOM     52  O   UNL     1       2.368 -14.641   7.779  1.00  0.00    -0.169 OA
ATOM     53  O   UNL     1       0.284 -13.248   7.466  1.00  0.00    -0.169 OA
BRANCH  51  54
ATOM     54  O   UNL     1       1.977 -13.470   5.677  1.00  0.00    -0.264 OA
ATOM     55  H   UNL     1       2.911 -13.289   5.907  1.00  0.00     0.236 HD
ENDBRANCH  51  54
ENDBRANCH  50  51
ENDBRANCH   8  50
TORSDOF 19
ENDMDL
MODEL 6
REMARK VINA RESULT:    -6.189     12.419     15.365
REMARK INTER + INTRA:         -16.845
REMARK INTER:                 -14.544
REMARK INTRA:                  -2.301
REMARK UNBOUND:                -4.324
REMARK SMILES CC[C@@H](C)[C@@H](NC(=O)[C@@H](O)Cc1ccc(O)c(Cl)c1)C(=O)N1[C@H](C(=O)NCCCCN=C(N)N)C[C@H]2CC[C@H](OS(=O)(=O)O)C[C@@H]21
REMARK SMILES IDX 22 1 36 2 46 3 35 4 23 5 45 6 37 7 39 8 38 9 20 10 21 11
REMARK SMILES IDX 5 12 6 13 7 14 8 15 9 17 11 18 12 19 17 20 19 21 15 22 14 23
REMARK SMILES IDX 13 24 18 25 16 26 10 28 3 30 4 31 2 32 1 33 24 34 25 35
REMARK SMILES IDX 26 36 27 38 28 39 29 40 30 41 31 42 32 43 33 44 34 45 40 50
REMARK SMILES IDX 41 51 42 52 43 53 44 54
REMARK H PARENT 6 16 16 27 10 29 26 37 33 46 33 47 34 48 34 49 44 55
ROOT
ATOM      1  N   UNL     1       4.254  -7.002  12.682  1.00  0.00    -0.326 N 
ATOM      2  C   UNL     1       4.687  -4.727  13.103  1.00  0.00     0.014 C 
ATOM      3  C   UNL     1       4.348  -6.051  13.793  1.00  0.00     0.091 C 
ATOM      4  C   UNL     1       3.924  -4.828  11.791  1.00  0.00     0.041 C 
ATOM      5  C   UNL     1       4.266  -6.275  11.389  1.00  0.00     0.175 C 
ATOM      6  C   UNL     1       5.390  -6.310  14.881  1.00  0.00     0.059 C 
ATOM      7  C   UNL     1       4.426  -3.553  14.026  1.00  0.00     0.008 C 
ATOM      8  C   UNL     1       5.944  -5.022  15.529  1.00  0.00     0.143 C 
ATOM      9  C   UNL     1       4.939  -3.855  15.450  1.00  0.00     0.034 C 
ENDROOT
BRANCH   1  10
ATOM     10  C   UNL     1       3.953  -8.354  12.693  1.00  0.00     0.246 C 
ATOM     11  O   UNL     1       4.867  -9.174  12.555  1.00  0.00    -0.272 OA
BRANCH  10  12
ATOM     12  C   UNL     1       2.483  -8.810  12.921  1.00  0.00     0.174 C 
BRANCH  12  13
ATOM     13  N   UNL     1       1.561  -7.817  12.371  1.00  0.00    -0.342 N 
ATOM     14  C   UNL     1       0.927  -7.917  11.153  1.00  0.00     0.249 C 
ATOM     15  O   UNL     1       1.046  -8.874  10.399  1.00  0.00    -0.272 OA
ATOM     16  H   UNL     1       1.486  -6.902  12.810  1.00  0.00     0.164 HD
BRANCH  14  17
ATOM     17  C   UNL     1       0.030  -6.698  10.848  1.00  0.00     0.207 C 
BRANCH  17  18
ATOM     18  C   UNL     1      -1.427  -6.999  11.215  1.00  0.00     0.077 C 
BRANCH  18  19
ATOM     19  C   UNL     1      -2.134  -5.777  11.755  1.00  0.00    -0.043 A 
ATOM     20  C   UNL     1      -3.017  -4.516  13.630  1.00  0.00     0.083 A 
ATOM     21  C   UNL     1      -2.320  -5.620  13.138  1.00  0.00     0.028 A 
ATOM     22  C   UNL     1      -3.532  -3.565  12.748  1.00  0.00     0.134 A 
ATOM     23  C   UNL     1      -3.356  -3.709  11.376  1.00  0.00     0.048 A 
ATOM     24  C   UNL     1      -2.660  -4.814  10.881  1.00  0.00     0.008 A 
ATOM     25  Cl  UNL     1      -3.235  -4.340  15.331  1.00  0.00    -0.080 Cl
BRANCH  22  26
ATOM     26  O   UNL     1      -4.232  -2.472  13.182  1.00  0.00    -0.506 OA
ATOM     27  H   UNL     1      -3.907  -2.270  14.080  1.00  0.00     0.293 HD
ENDBRANCH  22  26
ENDBRANCH  18  19
ENDBRANCH  17  18
BRANCH  17  28
ATOM     28  O   UNL     1       0.106  -6.335   9.460  1.00  0.00    -0.383 OA
ATOM     29  H   UNL     1       0.921  -5.791   9.365  1.00  0.00     0.211 HD
ENDBRANCH  17  28
ENDBRANCH  14  17
ENDBRANCH  12  13
BRANCH  12  30
ATOM     30  C   UNL     1       2.181  -9.139  14.408  1.00  0.00     0.018 C 
ATOM     31  C   UNL     1       2.499 -10.611  14.717  1.00  0.00     0.010 C 
BRANCH  30  32
ATOM     32  C   UNL     1       0.731  -8.807  14.837  1.00  0.00     0.002 C 
ATOM     33  C   UNL     1      -0.220  -9.995  14.893  1.00  0.00     0.004 C 
ENDBRANCH  30  32
ENDBRANCH  12  30
ENDBRANCH  10  12
ENDBRANCH   1  10
BRANCH   5  34
ATOM     34  C   UNL     1       5.663  -6.367  10.719  1.00  0.00     0.242 C 
ATOM     35  O   UNL     1       6.487  -5.456  10.788  1.00  0.00    -0.273 OA
ATOM     36  N   UNL     1       5.891  -7.517   9.997  1.00  0.00    -0.354 N 
ATOM     37  H   UNL     1       5.126  -8.182   9.876  1.00  0.00     0.163 HD
BRANCH  36  38
ATOM     38  C   UNL     1       7.203  -7.865   9.491  1.00  0.00     0.116 C 
BRANCH  38  39
ATOM     39  C   UNL     1       7.187  -9.293   8.949  1.00  0.00     0.023 C 
BRANCH  39  40
ATOM     40  C   UNL     1       7.141 -10.337  10.060  1.00  0.00     0.026 C 
BRANCH  40  41
ATOM     41  C   UNL     1       7.316 -11.744   9.489  1.00  0.00     0.146 C 
BRANCH  41  42
ATOM     42  N   UNL     1       8.642 -12.249   9.821  1.00  0.00    -0.254 NA
ATOM     43  C   UNL     1       9.402 -12.692   8.891  1.00  0.00     0.185 C 
ATOM     44  N   UNL     1       9.186 -12.783   7.566  1.00  0.00    -0.370 N 
ATOM     45  N   UNL     1      10.619 -13.157   9.219  1.00  0.00    -0.370 N 
ATOM     46  H   UNL     1       9.765 -13.371   6.991  1.00  0.00     0.159 HD
ATOM     47  H   UNL     1       8.320 -12.462   7.144  1.00  0.00     0.159 HD
ATOM     48  H   UNL     1      10.866 -13.117  10.199  1.00  0.00     0.159 HD
ATOM     49  H   UNL     1      11.349 -13.295   8.543  1.00  0.00     0.159 HD
ENDBRANCH  41  42
ENDBRANCH  40  41
ENDBRANCH  39  40
ENDBRANCH  38  39
ENDBRANCH  36  38
ENDBRANCH   5  34
BRANCH   8  50
ATOM     50  O   UNL     1       7.151  -4.626  14.878  1.00  0.00    -0.245 OA
BRANCH  50  51
ATOM     51  S   UNL     1       8.579  -4.861  15.620  1.00  0.00     0.397 S 
ATOM     52  O   UNL     1       9.422  -3.722  15.336  1.00  0.00    -0.169 OA
ATOM     53  O   UNL     1       9.029  -6.218  15.389  1.00  0.00    -0.169 OA
BRANCH  51  54
ATOM     54  O   UNL     1       8.175  -4.731  17.172  1.00  0.00    -0.264 OA
ATOM     55  H   UNL     1       8.033  -5.634  17.520  1.00  0.00     0.236 HD
ENDBRANCH  51  54
ENDBRANCH  50  51
ENDBRANCH   8  50
TORSDOF 19
ENDMDL
MODEL 7
REMARK VINA RESULT:    -6.146      2.260      3.925
REMARK INTER + INTRA:         -16.757
REMARK INTER:                 -13.277
REMARK INTRA:                  -3.480
REMARK UNBOUND:                -4.324
REMARK SMILES CC[C@@H](C)[C@@H](NC(=O)[C@@H](O)Cc1ccc(O)c(Cl)c1)C(=O)N1[C@H](C(=O)NCCCCN=C(N)N)C[C@H]2CC[C@H](OS(=O)(=O)O)C[C@@H]21
REMARK SMILES IDX 22 1 36 2 46 3 35 4 23 5 45 6 37 7 39 8 38 9 20 10 21 11
REMARK SMILES IDX 5 12 6 13 7 14 8 15 9 17 11 18 12 19 17 20 19 21 15 22 14 23
REMARK SMILES IDX 13 24 18 25 16 26 10 28 3 30 4 31 2 32 1 33 24 34 25 35
REMARK SMILES IDX 26 36 27 38 28 39 29 40 30 41 31 42 32 43 33 44 34 45 40 50
REMARK SMILES IDX 41 51 42 52 43 53 44 54
REMARK H PARENT 6 16 16 27 10 29 26 37 33 46 33 47 34 48 34 49 44 55
ROOT
ATOM      1  N   UNL     1      -2.164 -20.150   3.217  1.00  0.00    -0.326 N 
ATOM      2  C   UNL     1      -0.520 -19.607   4.813  1.00  0.00     0.014 C 
ATOM      3  C   UNL     1      -0.712 -19.988   3.342  1.00  0.00     0.091 C 
ATOM      4  C   UNL     1      -1.612 -20.404   5.510  1.00  0.00     0.041 C 
ATOM      5  C   UNL     1      -2.794 -20.136   4.560  1.00  0.00     0.175 C 
ATOM      6  C   UNL     1      -0.024 -18.934   2.476  1.00  0.00     0.059 C 
ATOM      7  C   UNL     1       0.923 -19.794   5.237  1.00  0.00     0.008 C 
ATOM      8  C   UNL     1       1.225 -18.309   3.134  1.00  0.00     0.143 C 
ATOM      9  C   UNL     1       1.883 -19.263   4.152  1.00  0.00     0.034 C 
ENDROOT
BRANCH   1  10
ATOM     10  C   UNL     1      -2.925 -20.510   2.118  1.00  0.00     0.246 C 
ATOM     11  O   UNL     1      -3.108 -21.708   1.880  1.00  0.00    -0.272 OA
BRANCH  10  12
ATOM     12  C   UNL     1      -3.568 -19.402   1.234  1.00  0.00     0.174 C 
BRANCH  12  13
ATOM     13  N   UNL     1      -2.564 -18.399   0.883  1.00  0.00    -0.342 N 
ATOM     14  C   UNL     1      -2.149 -18.110  -0.397  1.00  0.00     0.249 C 
ATOM     15  O   UNL     1      -2.602 -18.650  -1.399  1.00  0.00    -0.272 OA
ATOM     16  H   UNL     1      -1.990 -17.983   1.613  1.00  0.00     0.164 HD
BRANCH  14  17
ATOM     17  C   UNL     1      -1.063 -17.014  -0.439  1.00  0.00     0.207 C 
BRANCH  17  18
ATOM     18  C   UNL     1      -1.406 -15.959  -1.496  1.00  0.00     0.077 C 
BRANCH  18  19
ATOM     19  C   UNL     1      -1.481 -14.571  -0.900  1.00  0.00    -0.043 A 
ATOM     20  C   UNL     1      -1.762 -13.120   1.024  1.00  0.00     0.083 A 
ATOM     21  C   UNL     1      -1.644 -14.402   0.484  1.00  0.00     0.028 A 
ATOM     22  C   UNL     1      -1.720 -12.004   0.188  1.00  0.00     0.134 A 
ATOM     23  C   UNL     1      -1.559 -12.157  -1.184  1.00  0.00     0.048 A 
ATOM     24  C   UNL     1      -1.442 -13.438  -1.728  1.00  0.00     0.008 A 
ATOM     25  Cl  UNL     1      -1.961 -12.933   2.726  1.00  0.00    -0.080 Cl
BRANCH  22  26
ATOM     26  O   UNL     1      -1.842 -10.729   0.670  1.00  0.00    -0.506 OA
ATOM     27  H   UNL     1      -1.098 -10.217   0.301  1.00  0.00     0.293 HD
ENDBRANCH  22  26
ENDBRANCH  18  19
ENDBRANCH  17  18
BRANCH  17  28
ATOM     28  O   UNL     1       0.228 -17.575  -0.728  1.00  0.00    -0.383 OA
ATOM     29  H   UNL     1       0.223 -17.786  -1.689  1.00  0.00     0.211 HD
ENDBRANCH  17  28
ENDBRANCH  14  17
ENDBRANCH  12  13
BRANCH  12  30
ATOM     30  C   UNL     1      -4.831 -18.774   1.884  1.00  0.00     0.018 C 
ATOM     31  C   UNL     1      -6.021 -19.744   1.813  1.00  0.00     0.010 C 
BRANCH  30  32
ATOM     32  C   UNL     1      -5.224 -17.404   1.280  1.00  0.00     0.002 C 
ATOM     33  C   UNL     1      -4.607 -16.190   1.963  1.00  0.00     0.004 C 
ENDBRANCH  30  32
ENDBRANCH  12  30
ENDBRANCH  10  12
ENDBRANCH   1  10
BRANCH   5  34
ATOM     34  C   UNL     1      -3.455 -18.760   4.843  1.00  0.00     0.242 C 
ATOM     35  O   UNL     1      -4.664 -18.640   5.039  1.00  0.00    -0.273 OA
ATOM     36  N   UNL     1      -2.601 -17.681   4.806  1.00  0.00    -0.354 N 
ATOM     37  H   UNL     1      -1.632 -17.831   4.520  1.00  0.00     0.163 HD
BRANCH  36  38
ATOM     38  C   UNL     1      -3.000 -16.363   5.254  1.00  0.00     0.116 C 
BRANCH  38  39
ATOM     39  C   UNL     1      -1.888 -15.744   6.098  1.00  0.00     0.023 C 
BRANCH  39  40
ATOM     40  C   UNL     1      -1.288 -16.736   7.089  1.00  0.00     0.026 C 
BRANCH  40  41
ATOM     41  C   UNL     1      -0.098 -16.117   7.822  1.00  0.00     0.146 C 
BRANCH  41  42
ATOM     42  N   UNL     1       0.284 -14.868   7.175  1.00  0.00    -0.254 NA
ATOM     43  C   UNL     1       1.497 -14.690   6.810  1.00  0.00     0.185 C 
ATOM     44  N   UNL     1       2.563 -15.503   6.922  1.00  0.00    -0.370 N 
ATOM     45  N   UNL     1       1.830 -13.530   6.220  1.00  0.00    -0.370 N 
ATOM     46  H   UNL     1       3.496 -15.143   6.817  1.00  0.00     0.159 HD
ATOM     47  H   UNL     1       2.487 -16.428   7.333  1.00  0.00     0.159 HD
ATOM     48  H   UNL     1       1.082 -12.863   6.089  1.00  0.00     0.159 HD
ATOM     49  H   UNL     1       2.681 -13.408   5.701  1.00  0.00     0.159 HD
ENDBRANCH  41  42
ENDBRANCH  40  41
ENDBRANCH  39  40
ENDBRANCH  38  39
ENDBRANCH  36  38
ENDBRANCH   5  34
BRANCH   8  50
ATOM     50  O   UNL     1       0.871 -17.101   3.808  1.00  0.00    -0.245 OA
BRANCH  50  51
ATOM     51  S   UNL     1       1.238 -15.667   3.132  1.00  0.00     0.397 S 
ATOM     52  O   UNL     1       0.380 -14.664   3.722  1.00  0.00    -0.169 OA
ATOM     53  O   UNL     1       1.351 -15.822   1.697  1.00  0.00    -0.169 OA
BRANCH  51  54
ATOM     54  O   UNL     1       2.708 -15.386   3.718  1.00  0.00    -0.264 OA
ATOM     55  H   UNL     1       2.627 -15.271   4.687  1.00  0.00     0.236 HD
ENDBRANCH  51  54
ENDBRANCH  50  51
ENDBRANCH   8  50
TORSDOF 19
ENDMDL
MODEL 8
REMARK VINA RESULT:    -6.069     13.402     16.526
REMARK INTER + INTRA:         -16.603
REMARK INTER:                 -12.875
REMARK INTRA:                  -3.728
REMARK UNBOUND:                -4.324
REMARK SMILES CC[C@@H](C)[C@@H](NC(=O)[C@@H](O)Cc1ccc(O)c(Cl)c1)C(=O)N1[C@H](C(=O)NCCCCN=C(N)N)C[C@H]2CC[C@H](OS(=O)(=O)O)C[C@@H]21
REMARK SMILES IDX 22 1 36 2 46 3 35 4 23 5 45 6 37 7 39 8 38 9 20 10 21 11
REMARK SMILES IDX 5 12 6 13 7 14 8 15 9 17 11 18 12 19 17 20 19 21 15 22 14 23
REMARK SMILES IDX 13 24 18 25 16 26 10 28 3 30 4 31 2 32 1 33 24 34 25 35
REMARK SMILES IDX 26 36 27 38 28 39 29 40 30 41 31 42 32 43 33 44 34 45 40 50
REMARK SMILES IDX 41 51 42 52 43 53 44 54
REMARK H PARENT 6 16 16 27 10 29 26 37 33 46 33 47 34 48 34 49 44 55
ROOT
ATOM      1  N   UNL     1       4.270  -7.333  12.899  1.00  0.00    -0.326 N 
ATOM      2  C   UNL     1       4.616  -5.330  14.087  1.00  0.00     0.014 C 
ATOM      3  C   UNL     1       4.147  -6.778  14.251  1.00  0.00     0.091 C 
ATOM      4  C   UNL     1       4.124  -4.974  12.692  1.00  0.00     0.041 C 
ATOM      5  C   UNL     1       4.535  -6.245  11.926  1.00  0.00     0.175 C 
ATOM      6  C   UNL     1       4.955  -7.424  15.375  1.00  0.00     0.059 C 
ATOM      7  C   UNL     1       4.183  -4.483  15.267  1.00  0.00     0.008 C 
ATOM      8  C   UNL     1       5.375  -6.436  16.485  1.00  0.00     0.143 C 
ATOM      9  C   UNL     1       4.407  -5.240  16.592  1.00  0.00     0.034 C 
ENDROOT
BRANCH   1  10
ATOM     10  C   UNL     1       3.970  -8.600  12.430  1.00  0.00     0.246 C 
ATOM     11  O   UNL     1       4.892  -9.346  12.081  1.00  0.00    -0.272 OA
BRANCH  10  12
ATOM     12  C   UNL     1       2.488  -9.074  12.392  1.00  0.00     0.174 C 
BRANCH  12  13
ATOM     13  N   UNL     1       1.622  -7.970  11.977  1.00  0.00    -0.342 N 
ATOM     14  C   UNL     1       0.712  -8.025  10.946  1.00  0.00     0.249 C 
ATOM     15  O   UNL     1       0.504  -9.026  10.272  1.00  0.00    -0.272 OA
ATOM     16  H   UNL     1       1.791  -7.035  12.338  1.00  0.00     0.164 HD
BRANCH  14  17
ATOM     17  C   UNL     1      -0.039  -6.691  10.743  1.00  0.00     0.207 C 
BRANCH  17  18
ATOM     18  C   UNL     1      -1.539  -6.878  10.987  1.00  0.00     0.077 C 
BRANCH  18  19
ATOM     19  C   UNL     1      -2.154  -5.672  11.660  1.00  0.00    -0.043 A 
ATOM     20  C   UNL     1      -2.867  -4.525  13.675  1.00  0.00     0.083 A 
ATOM     21  C   UNL     1      -2.254  -5.617  13.059  1.00  0.00     0.028 A 
ATOM     22  C   UNL     1      -3.382  -3.485  12.901  1.00  0.00     0.134 A 
ATOM     23  C   UNL     1      -3.289  -3.527  11.515  1.00  0.00     0.048 A 
ATOM     24  C   UNL     1      -2.679  -4.619  10.895  1.00  0.00     0.008 A 
ATOM     25  Cl  UNL     1      -2.981  -4.475  15.395  1.00  0.00    -0.080 Cl
BRANCH  22  26
ATOM     26  O   UNL     1      -4.000  -2.399  13.459  1.00  0.00    -0.506 OA
ATOM     27  H   UNL     1      -3.804  -2.425  14.414  1.00  0.00     0.293 HD
ENDBRANCH  22  26
ENDBRANCH  18  19
ENDBRANCH  17  18
BRANCH  17  28
ATOM     28  O   UNL     1       0.169  -6.178   9.417  1.00  0.00    -0.383 OA
ATOM     29  H   UNL     1      -0.622  -5.630   9.211  1.00  0.00     0.211 HD
ENDBRANCH  17  28
ENDBRANCH  14  17
ENDBRANCH  12  13
BRANCH  12  30
ATOM     30  C   UNL     1       2.029  -9.717  13.728  1.00  0.00     0.018 C 
ATOM     31  C   UNL     1       1.376 -11.086  13.480  1.00  0.00     0.010 C 
BRANCH  30  32
ATOM     32  C   UNL     1       1.080  -8.817  14.557  1.00  0.00     0.002 C 
ATOM     33  C   UNL     1      -0.370  -9.277  14.613  1.00  0.00     0.004 C 
ENDBRANCH  30  32
ENDBRANCH  12  30
ENDBRANCH  10  12
ENDBRANCH   1  10
BRANCH   5  34
ATOM     34  C   UNL     1       6.036  -6.215  11.531  1.00  0.00     0.242 C 
ATOM     35  O   UNL     1       6.463  -5.500  10.625  1.00  0.00    -0.273 OA
ATOM     36  N   UNL     1       6.843  -7.084  12.230  1.00  0.00    -0.354 N 
ATOM     37  H   UNL     1       6.411  -7.737  12.885  1.00  0.00     0.163 HD
BRANCH  36  38
ATOM     38  C   UNL     1       8.288  -7.035  12.145  1.00  0.00     0.116 C 
BRANCH  38  39
ATOM     39  C   UNL     1       8.867  -6.496  13.451  1.00  0.00     0.023 C 
BRANCH  39  40
ATOM     40  C   UNL     1       9.485  -5.112  13.287  1.00  0.00     0.026 C 
BRANCH  40  41
ATOM     41  C   UNL     1       8.422  -4.023  13.428  1.00  0.00     0.146 C 
BRANCH  41  42
ATOM     42  N   UNL     1       8.971  -2.893  14.166  1.00  0.00    -0.254 NA
ATOM     43  C   UNL     1       8.424  -2.529  15.265  1.00  0.00     0.185 C 
ATOM     44  N   UNL     1       7.360  -3.038  15.912  1.00  0.00    -0.370 N 
ATOM     45  N   UNL     1       8.942  -1.482  15.928  1.00  0.00    -0.370 N 
ATOM     46  H   UNL     1       6.895  -2.508  16.630  1.00  0.00     0.159 HD
ATOM     47  H   UNL     1       6.855  -3.843  15.556  1.00  0.00     0.159 HD
ATOM     48  H   UNL     1       9.754  -1.045  15.512  1.00  0.00     0.159 HD
ATOM     49  H   UNL     1       8.729  -1.288  16.890  1.00  0.00     0.159 HD
ENDBRANCH  41  42
ENDBRANCH  40  41
ENDBRANCH  39  40
ENDBRANCH  38  39
ENDBRANCH  36  38
ENDBRANCH   5  34
BRANCH   8  50
ATOM     50  O   UNL     1       6.686  -5.935  16.226  1.00  0.00    -0.245 OA
BRANCH  50  51
ATOM     51  S   UNL     1       7.909  -6.332  17.223  1.00  0.00     0.397 S 
ATOM     52  O   UNL     1       9.021  -5.454  16.937  1.00  0.00    -0.169 OA
ATOM     53  O   UNL     1       8.065  -7.772  17.252  1.00  0.00    -0.169 OA
BRANCH  51  54
ATOM     54  O   UNL     1       7.340  -5.866  18.653  1.00  0.00    -0.264 OA
ATOM     55  H   UNL     1       6.481  -6.315  18.793  1.00  0.00     0.236 HD
ENDBRANCH  51  54
ENDBRANCH  50  51
ENDBRANCH   8  50
TORSDOF 19
ENDMDL
MODEL 9
REMARK VINA RESULT:    -5.957     10.839     14.830
REMARK INTER + INTRA:         -16.374
REMARK INTER:                 -12.641
REMARK INTRA:                  -3.733
REMARK UNBOUND:                -4.324
REMARK SMILES CC[C@@H](C)[C@@H](NC(=O)[C@@H](O)Cc1ccc(O)c(Cl)c1)C(=O)N1[C@H](C(=O)NCCCCN=C(N)N)C[C@H]2CC[C@H](OS(=O)(=O)O)C[C@@H]21
REMARK SMILES IDX 22 1 36 2 46 3 35 4 23 5 45 6 37 7 39 8 38 9 20 10 21 11
REMARK SMILES IDX 5 12 6 13 7 14 8 15 9 17 11 18 12 19 17 20 19 21 15 22 14 23
REMARK SMILES IDX 13 24 18 25 16 26 10 28 3 30 4 31 2 32 1 33 24 34 25 35
REMARK SMILES IDX 26 36 27 38 28 39 29 40 30 41 31 42 32 43 33 44 34 45 40 50
REMARK SMILES IDX 41 51 42 52 43 53 44 54
REMARK H PARENT 6 16 16 27 10 29 26 37 33 46 33 47 34 48 34 49 44 55
ROOT
ATOM      1  N   UNL     1      -0.580  -9.050  12.234  1.00  0.00    -0.326 N 
ATOM      2  C   UNL     1       1.322  -9.410  10.894  1.00  0.00     0.014 C 
ATOM      3  C   UNL     1       0.291 -10.132  11.766  1.00  0.00     0.091 C 
ATOM      4  C   UNL     1       1.493  -8.079  11.611  1.00  0.00     0.041 C 
ATOM      5  C   UNL     1       0.020  -7.735  11.900  1.00  0.00     0.175 C 
ATOM      6  C   UNL     1      -0.332 -11.259  10.943  1.00  0.00     0.059 C 
ATOM      7  C   UNL     1       2.536 -10.285  10.653  1.00  0.00     0.008 C 
ATOM      8  C   UNL     1       0.633 -11.881   9.911  1.00  0.00     0.143 C 
ATOM      9  C   UNL     1       2.108 -11.733  10.334  1.00  0.00     0.034 C 
ENDROOT
BRANCH   1  10
ATOM     10  C   UNL     1      -1.681  -9.096  13.072  1.00  0.00     0.246 C 
ATOM     11  O   UNL     1      -2.813  -9.127  12.577  1.00  0.00    -0.272 OA
BRANCH  10  12
ATOM     12  C   UNL     1      -1.470  -9.151  14.613  1.00  0.00     0.174 C 
BRANCH  12  13
ATOM     13  N   UNL     1      -1.706  -7.831  15.196  1.00  0.00    -0.342 N 
ATOM     14  C   UNL     1      -2.682  -7.540  16.123  1.00  0.00     0.249 C 
ATOM     15  O   UNL     1      -3.452  -8.372  16.587  1.00  0.00    -0.272 OA
ATOM     16  H   UNL     1      -1.252  -7.015  14.795  1.00  0.00     0.164 HD
BRANCH  14  17
ATOM     17  C   UNL     1      -2.689  -6.052  16.532  1.00  0.00     0.207 C 
BRANCH  17  18
ATOM     18  C   UNL     1      -3.888  -5.331  15.908  1.00  0.00     0.077 C 
BRANCH  18  19
ATOM     19  C   UNL     1      -3.537  -4.707  14.576  1.00  0.00    -0.043 A 
ATOM     20  C   UNL     1      -2.880  -2.772  13.269  1.00  0.00     0.083 A 
ATOM     21  C   UNL     1      -3.155  -3.358  14.505  1.00  0.00     0.028 A 
ATOM     22  C   UNL     1      -2.985  -3.526  12.100  1.00  0.00     0.134 A 
ATOM     23  C   UNL     1      -3.362  -4.863  12.156  1.00  0.00     0.048 A 
ATOM     24  C   UNL     1      -3.640  -5.452  13.392  1.00  0.00     0.008 A 
ATOM     25  Cl  UNL     1      -2.413  -1.113  13.201  1.00  0.00    -0.080 Cl
BRANCH  22  26
ATOM     26  O   UNL     1      -2.736  -2.992  10.864  1.00  0.00    -0.506 OA
ATOM     27  H   UNL     1      -3.593  -2.941  10.403  1.00  0.00     0.293 HD
ENDBRANCH  22  26
ENDBRANCH  18  19
ENDBRANCH  17  18
BRANCH  17  28
ATOM     28  O   UNL     1      -1.476  -5.398  16.128  1.00  0.00    -0.383 OA
ATOM     29  H   UNL     1      -1.713  -4.840  15.352  1.00  0.00     0.211 HD
ENDBRANCH  17  28
ENDBRANCH  14  17
ENDBRANCH  12  13
BRANCH  12  30
ATOM     30  C   UNL     1      -0.086  -9.735  15.008  1.00  0.00     0.018 C 
ATOM     31  C   UNL     1      -0.247 -10.902  15.995  1.00  0.00     0.010 C 
BRANCH  30  32
ATOM     32  C   UNL     1       0.891  -8.681  15.585  1.00  0.00     0.002 C 
ATOM     33  C   UNL     1       2.330  -8.793  15.099  1.00  0.00     0.004 C 
ENDBRANCH  30  32
ENDBRANCH  12  30
ENDBRANCH  10  12
ENDBRANCH   1  10
BRANCH   5  34
ATOM     34  C   UNL     1      -0.675  -7.111  10.661  1.00  0.00     0.242 C 
ATOM     35  O   UNL     1      -0.160  -6.207  10.002  1.00  0.00    -0.273 OA
ATOM     36  N   UNL     1      -1.932  -7.602  10.385  1.00  0.00    -0.354 N 
ATOM     37  H   UNL     1      -2.354  -8.264  11.037  1.00  0.00     0.163 HD
BRANCH  36  38
ATOM     38  C   UNL     1      -2.629  -7.294   9.154  1.00  0.00     0.116 C 
BRANCH  38  39
ATOM     39  C   UNL     1      -4.111  -7.635   9.298  1.00  0.00     0.023 C 
BRANCH  39  40
ATOM     40  C   UNL     1      -4.463  -8.978   8.668  1.00  0.00     0.026 C 
BRANCH  40  41
ATOM     41  C   UNL     1      -4.683 -10.041   9.744  1.00  0.00     0.146 C 
BRANCH  41  42
ATOM     42  N   UNL     1      -6.093 -10.093  10.105  1.00  0.00    -0.254 NA
ATOM     43  C   UNL     1      -6.432 -10.056  11.339  1.00  0.00     0.185 C 
ATOM     44  N   UNL     1      -5.670  -9.972  12.444  1.00  0.00    -0.370 N 
ATOM     45  N   UNL     1      -7.738 -10.109  11.651  1.00  0.00    -0.370 N 
ATOM     46  H   UNL     1      -6.049 -10.199  13.348  1.00  0.00     0.159 HD
ATOM     47  H   UNL     1      -4.658  -9.910  12.390  1.00  0.00     0.159 HD
ATOM     48  H   UNL     1      -8.383 -10.165  10.875  1.00  0.00     0.159 HD
ATOM     49  H   UNL     1      -8.092  -9.851  12.555  1.00  0.00     0.159 HD
ENDBRANCH  41  42
ENDBRANCH  40  41
ENDBRANCH  39  40
ENDBRANCH  38  39
ENDBRANCH  36  38
ENDBRANCH   5  34
BRANCH   8  50
ATOM     50  O   UNL     1       0.461 -11.254   8.639  1.00  0.00    -0.245 OA
BRANCH  50  51
ATOM     51  S   UNL     1      -0.607 -11.869   7.578  1.00  0.00     0.397 S 
ATOM     52  O   UNL     1      -1.708 -10.940   7.463  1.00  0.00    -0.169 OA
ATOM     53  O   UNL     1      -0.823 -13.272   7.865  1.00  0.00    -0.169 OA
BRANCH  51  54
ATOM     54  O   UNL     1       0.201 -11.766   6.191  1.00  0.00    -0.264 OA
ATOM     55  H   UNL     1      -0.287 -11.149   5.608  1.00  0.00     0.236 HD
ENDBRANCH  51  54
ENDBRANCH  50  51
ENDBRANCH   8  50
TORSDOF 19
ENDMDL
MODEL 10
REMARK VINA RESULT:    -5.923     12.833     15.794
REMARK INTER + INTRA:         -16.307
REMARK INTER:                 -12.434
REMARK INTRA:                  -3.873
REMARK UNBOUND:                -4.324
REMARK SMILES CC[C@@H](C)[C@@H](NC(=O)[C@@H](O)Cc1ccc(O)c(Cl)c1)C(=O)N1[C@H](C(=O)NCCCCN=C(N)N)C[C@H]2CC[C@H](OS(=O)(=O)O)C[C@@H]21
REMARK SMILES IDX 22 1 36 2 46 3 35 4 23 5 45 6 37 7 39 8 38 9 20 10 21 11
REMARK SMILES IDX 5 12 6 13 7 14 8 15 9 17 11 18 12 19 17 20 19 21 15 22 14 23
REMARK SMILES IDX 13 24 18 25 16 26 10 28 3 30 4 31 2 32 1 33 24 34 25 35
REMARK SMILES IDX 26 36 27 38 28 39 29 40 30 41 31 42 32 43 33 44 34 45 40 50
REMARK SMILES IDX 41 51 42 52 43 53 44 54
REMARK H PARENT 6 16 16 27 10 29 26 37 33 46 33 47 34 48 34 49 44 55
ROOT
ATOM      1  N   UNL     1       2.025  -9.064  14.415  1.00  0.00    -0.326 N 
ATOM      2  C   UNL     1       4.289  -9.188  13.781  1.00  0.00     0.014 C 
ATOM      3  C   UNL     1       2.892  -8.850  13.253  1.00  0.00     0.091 C 
ATOM      4  C   UNL     1       4.011 -10.313  14.766  1.00  0.00     0.041 C 
ATOM      5  C   UNL     1       2.784  -9.738  15.497  1.00  0.00     0.175 C 
ATOM      6  C   UNL     1       2.936  -7.456  12.629  1.00  0.00     0.059 C 
ATOM      7  C   UNL     1       5.258  -9.422  12.639  1.00  0.00     0.008 C 
ATOM      8  C   UNL     1       4.297  -7.103  11.991  1.00  0.00     0.143 C 
ATOM      9  C   UNL     1       5.066  -8.360  11.536  1.00  0.00     0.034 C 
ENDROOT
BRANCH   1  10
ATOM     10  C   UNL     1       0.652  -8.932  14.535  1.00  0.00     0.246 C 
ATOM     11  O   UNL     1       0.173  -8.591  15.622  1.00  0.00    -0.272 OA
BRANCH  10  12
ATOM     12  C   UNL     1      -0.253  -9.175  13.292  1.00  0.00     0.174 C 
BRANCH  12  13
ATOM     13  N   UNL     1      -0.424  -7.927  12.549  1.00  0.00    -0.342 N 
ATOM     14  C   UNL     1      -0.505  -7.829  11.178  1.00  0.00     0.249 C 
ATOM     15  O   UNL     1      -0.470  -8.792  10.422  1.00  0.00    -0.272 OA
ATOM     16  H   UNL     1      -0.312  -7.037  13.027  1.00  0.00     0.164 HD
BRANCH  14  17
ATOM     17  C   UNL     1      -0.667  -6.372  10.694  1.00  0.00     0.207 C 
BRANCH  17  18
ATOM     18  C   UNL     1      -2.150  -6.006  10.582  1.00  0.00     0.077 C 
BRANCH  18  19
ATOM     19  C   UNL     1      -2.524  -4.882  11.522  1.00  0.00    -0.043 A 
ATOM     20  C   UNL     1      -2.877  -4.055  13.775  1.00  0.00     0.083 A 
ATOM     21  C   UNL     1      -2.484  -5.078  12.912  1.00  0.00     0.028 A 
ATOM     22  C   UNL     1      -3.312  -2.834  13.258  1.00  0.00     0.134 A 
ATOM     23  C   UNL     1      -3.356  -2.626  11.885  1.00  0.00     0.048 A 
ATOM     24  C   UNL     1      -2.965  -3.649  11.018  1.00  0.00     0.008 A 
ATOM     25  Cl  UNL     1      -2.821  -4.314  15.479  1.00  0.00    -0.080 Cl
BRANCH  22  26
ATOM     26  O   UNL     1      -3.717  -1.805  14.065  1.00  0.00    -0.506 OA
ATOM     27  H   UNL     1      -2.908  -1.358  14.376  1.00  0.00     0.293 HD
ENDBRANCH  22  26
ENDBRANCH  18  19
ENDBRANCH  17  18
BRANCH  17  28
ATOM     28  O   UNL     1      -0.031  -6.177   9.420  1.00  0.00    -0.383 OA
ATOM     29  H   UNL     1       0.873  -6.559   9.506  1.00  0.00     0.211 HD
ENDBRANCH  17  28
ENDBRANCH  14  17
ENDBRANCH  12  13
BRANCH  12  30
ATOM     30  C   UNL     1      -1.608  -9.838  13.658  1.00  0.00     0.018 C 
ATOM     31  C   UNL     1      -1.925 -10.998  12.701  1.00  0.00     0.010 C 
BRANCH  30  32
ATOM     32  C   UNL     1      -2.795  -8.844  13.699  1.00  0.00     0.002 C 
ATOM     33  C   UNL     1      -3.803  -8.985  12.566  1.00  0.00     0.004 C 
ENDBRANCH  30  32
ENDBRANCH  12  30
ENDBRANCH  10  12
ENDBRANCH   1  10
BRANCH   5  34
ATOM     34  C   UNL     1       3.197  -8.722  16.595  1.00  0.00     0.242 C 
ATOM     35  O   UNL     1       2.851  -7.541  16.563  1.00  0.00    -0.273 OA
ATOM     36  N   UNL     1       4.023  -9.223  17.577  1.00  0.00    -0.354 N 
ATOM     37  H   UNL     1       4.373 -10.177  17.484  1.00  0.00     0.163 HD
BRANCH  36  38
ATOM     38  C   UNL     1       4.328  -8.483  18.783  1.00  0.00     0.116 C 
BRANCH  38  39
ATOM     39  C   UNL     1       5.802  -8.086  18.790  1.00  0.00     0.023 C 
BRANCH  39  40
ATOM     40  C   UNL     1       6.146  -7.101  17.678  1.00  0.00     0.026 C 
BRANCH  40  41
ATOM     41  C   UNL     1       6.019  -5.660  18.173  1.00  0.00     0.146 C 
BRANCH  41  42
ATOM     42  N   UNL     1       5.656  -4.788  17.064  1.00  0.00    -0.254 NA
ATOM     43  C   UNL     1       4.434  -4.441  16.906  1.00  0.00     0.185 C 
ATOM     44  N   UNL     1       3.344  -4.756  17.630  1.00  0.00    -0.370 N 
ATOM     45  N   UNL     1       4.118  -3.641  15.874  1.00  0.00    -0.370 N 
ATOM     46  H   UNL     1       2.421  -4.616  17.255  1.00  0.00     0.159 HD
ATOM     47  H   UNL     1       3.405  -5.343  18.456  1.00  0.00     0.159 HD
ATOM     48  H   UNL     1       4.884  -3.349  15.282  1.00  0.00     0.159 HD
ATOM     49  H   UNL     1       3.249  -3.141  15.820  1.00  0.00     0.159 HD
ENDBRANCH  41  42
ENDBRANCH  40  41
ENDBRANCH  39  40
ENDBRANCH  38  39
ENDBRANCH  36  38
ENDBRANCH   5  34
BRANCH   8  50
ATOM     50  O   UNL     1       5.106  -6.390  12.926  1.00  0.00    -0.245 OA
BRANCH  50  51
ATOM     51  S   UNL     1       5.504  -4.841  12.627  1.00  0.00     0.397 S 
ATOM     52  O   UNL     1       4.292  -4.054  12.667  1.00  0.00    -0.169 OA
ATOM     53  O   UNL     1       6.412  -4.781  11.501  1.00  0.00    -0.169 OA
BRANCH  51  54
ATOM     54  O   UNL     1       6.327  -4.445  13.950  1.00  0.00    -0.264 OA
ATOM     55  H   UNL     1       6.430  -5.254  14.491  1.00  0.00     0.236 HD
ENDBRANCH  51  54
ENDBRANCH  50  51
ENDBRANCH   8  50
TORSDOF 19
ENDMDL
