MODEL 1
REMARK VINA RESULT:    -8.597      0.000      0.000
REMARK INTER + INTRA:         -20.068
REMARK INTER:                 -17.392
REMARK INTRA:                  -2.676
REMARK UNBOUND:                -2.676
REMARK SMILES CC[C@@H](C)[C@@H](NC(=O)[C@@H](O)Cc1ccc(O)c(Cl)c1)C(=O)N1[C@H](C(=O)NCCCCN=C(N)N)C[C@H]2CC[C@H](OS(=O)(=O)O)C[C@@H]21
REMARK SMILES IDX 22 1 36 2 46 3 35 4 23 5 45 6 37 7 39 8 38 9 20 10 21 11
REMARK SMILES IDX 5 12 6 13 7 14 8 15 9 17 11 18 12 19 17 20 19 21 15 22 14 23
REMARK SMILES IDX 13 24 18 25 16 26 10 28 3 30 4 31 2 32 1 33 24 34 25 35
REMARK SMILES IDX 26 36 27 38 28 39 29 40 30 41 31 42 32 43 33 44 34 45 40 50
REMARK SMILES IDX 41 51 42 52 43 53 44 54
REMARK H PARENT 6 16 16 27 10 29 26 37 33 46 33 47 34 48 34 49 44 55
ROOT
ATOM      1  N   UNL     1      -4.053  -5.198   7.337  1.00  0.00    -0.326 N 
ATOM      2  C   UNL     1      -4.821  -7.236   8.232  1.00  0.00     0.014 C 
ATOM      3  C   UNL     1      -4.588  -5.764   8.580  1.00  0.00     0.091 C 
ATOM      4  C   UNL     1      -3.677  -7.540   7.276  1.00  0.00     0.041 C 
ATOM      5  C   UNL     1      -3.729  -6.287   6.383  1.00  0.00     0.175 C 
ATOM      6  C   UNL     1      -5.888  -5.187   9.137  1.00  0.00     0.059 C 
ATOM      7  C   UNL     1      -4.983  -8.071   9.487  1.00  0.00     0.008 C 
ATOM      8  C   UNL     1      -6.743  -6.216   9.909  1.00  0.00     0.143 C 
ATOM      9  C   UNL     1      -5.886  -7.348  10.508  1.00  0.00     0.034 C 
ENDROOT
BRANCH   1  10
ATOM     10  C   UNL     1      -3.639  -3.908   7.056  1.00  0.00     0.246 C 
ATOM     11  O   UNL     1      -3.246  -3.638   5.916  1.00  0.00    -0.272 OA
BRANCH  10  12
ATOM     12  C   UNL     1      -3.717  -2.818   8.164  1.00  0.00     0.174 C 
BRANCH  12  13
ATOM     13  N   UNL     1      -4.923  -2.011   7.986  1.00  0.00    -0.342 N 
ATOM     14  C   UNL     1      -5.102  -1.063   7.004  1.00  0.00     0.249 C 
ATOM     15  O   UNL     1      -4.269  -0.807   6.143  1.00  0.00    -0.272 OA
ATOM     16  H   UNL     1      -5.634  -2.000   8.713  1.00  0.00     0.164 HD
BRANCH  14  17
ATOM     17  C   UNL     1      -6.478  -0.368   7.090  1.00  0.00     0.207 C 
BRANCH  17  18
ATOM     18  C   UNL     1      -7.506  -1.294   7.746  1.00  0.00     0.077 C 
BRANCH  18  19
ATOM     19  C   UNL     1      -8.135  -0.661   8.967  1.00  0.00    -0.043 A 
ATOM     20  C   UNL     1      -8.621  -0.701  11.343  1.00  0.00     0.083 A 
ATOM     21  C   UNL     1      -7.997  -1.261  10.228  1.00  0.00     0.028 A 
ATOM     22  C   UNL     1      -9.385   0.459  11.206  1.00  0.00     0.134 A 
ATOM     23  C   UNL     1      -9.530   1.064   9.964  1.00  0.00     0.048 A 
ATOM     24  C   UNL     1      -8.909   0.504   8.845  1.00  0.00     0.008 A 
ATOM     25  Cl  UNL     1      -8.439  -1.453  12.884  1.00  0.00    -0.080 Cl
BRANCH  22  26
ATOM     26  O   UNL     1     -10.024   1.039  12.269  1.00  0.00    -0.506 OA
ATOM     27  H   UNL     1     -10.909   0.632  12.320  1.00  0.00     0.293 HD
ENDBRANCH  22  26
ENDBRANCH  18  19
ENDBRANCH  17  18
BRANCH  17  28
ATOM     28  O   UNL     1      -6.946   0.017   5.787  1.00  0.00    -0.383 OA
ATOM     29  H   UNL     1      -6.200  -0.155   5.168  1.00  0.00     0.211 HD
ENDBRANCH  17  28
ENDBRANCH  14  17
ENDBRANCH  12  13
BRANCH  12  30
ATOM     30  C   UNL     1      -2.431  -1.952   8.244  1.00  0.00     0.018 C 
ATOM     31  C   UNL     1      -1.193  -2.831   8.477  1.00  0.00     0.010 C 
BRANCH  30  32
ATOM     32  C   UNL     1      -2.500  -0.836   9.315  1.00  0.00     0.002 C 
ATOM     33  C   UNL     1      -2.081   0.549   8.840  1.00  0.00     0.004 C 
ENDBRANCH  30  32
ENDBRANCH  12  30
ENDBRANCH  10  12
ENDBRANCH   1  10
BRANCH   5  34
ATOM     34  C   UNL     1      -4.826  -6.407   5.292  1.00  0.00     0.242 C 
ATOM     35  O   UNL     1      -5.304  -7.491   4.956  1.00  0.00    -0.273 OA
ATOM     36  N   UNL     1      -5.186  -5.222   4.690  1.00  0.00    -0.354 N 
ATOM     37  H   UNL     1      -4.670  -4.374   4.926  1.00  0.00     0.163 HD
BRANCH  36  38
ATOM     38  C   UNL     1      -6.335  -5.117   3.814  1.00  0.00     0.116 C 
BRANCH  38  39
ATOM     39  C   UNL     1      -5.909  -4.534   2.469  1.00  0.00     0.023 C 
BRANCH  39  40
ATOM     40  C   UNL     1      -5.225  -3.178   2.612  1.00  0.00     0.026 C 
BRANCH  40  41
ATOM     41  C   UNL     1      -6.147  -2.177   3.309  1.00  0.00     0.146 C 
BRANCH  41  42
ATOM     42  N   UNL     1      -6.529  -1.127   2.374  1.00  0.00    -0.254 NA
ATOM     43  C   UNL     1      -6.014   0.039   2.486  1.00  0.00     0.185 C 
ATOM     44  N   UNL     1      -5.117   0.507   3.374  1.00  0.00    -0.370 N 
ATOM     45  N   UNL     1      -6.383   0.995   1.617  1.00  0.00    -0.370 N 
ATOM     46  H   UNL     1      -4.987   1.497   3.498  1.00  0.00     0.159 HD
ATOM     47  H   UNL     1      -4.721  -0.087   4.095  1.00  0.00     0.159 HD
ATOM     48  H   UNL     1      -7.051   0.723   0.909  1.00  0.00     0.159 HD
ATOM     49  H   UNL     1      -5.862   1.844   1.489  1.00  0.00     0.159 HD
ENDBRANCH  41  42
ENDBRANCH  40  41
ENDBRANCH  39  40
ENDBRANCH  38  39
ENDBRANCH  36  38
ENDBRANCH   5  34
BRANCH   8  50
ATOM     50  O   UNL     1      -7.716  -6.795   9.039  1.00  0.00    -0.245 OA
BRANCH  50  51
ATOM     51  S   UNL     1      -9.286  -6.777   9.465  1.00  0.00     0.397 S 
ATOM     52  O   UNL     1     -10.076  -6.781   8.254  1.00  0.00    -0.169 OA
ATOM     53  O   UNL     1      -9.496  -5.792  10.506  1.00  0.00    -0.169 OA
BRANCH  51  54
ATOM     54  O   UNL     1      -9.474  -8.235  10.116  1.00  0.00    -0.264 OA
ATOM     55  H   UNL     1      -9.945  -8.794   9.464  1.00  0.00     0.236 HD
ENDBRANCH  51  54
ENDBRANCH  50  51
ENDBRANCH   8  50
TORSDOF 19
ENDMDL
MODEL 2
REMARK VINA RESULT:    -8.590      3.729      6.714
REMARK INTER + INTRA:         -20.054
REMARK INTER:                 -16.545
REMARK INTRA:                  -3.509
REMARK UNBOUND:                -2.676
REMARK SMILES CC[C@@H](C)[C@@H](NC(=O)[C@@H](O)Cc1ccc(O)c(Cl)c1)C(=O)N1[C@H](C(=O)NCCCCN=C(N)N)C[C@H]2CC[C@H](OS(=O)(=O)O)C[C@@H]21
REMARK SMILES IDX 22 1 36 2 46 3 35 4 23 5 45 6 37 7 39 8 38 9 20 10 21 11
REMARK SMILES IDX 5 12 6 13 7 14 8 15 9 17 11 18 12 19 17 20 19 21 15 22 14 23
REMARK SMILES IDX 13 24 18 25 16 26 10 28 3 30 4 31 2 32 1 33 24 34 25 35
REMARK SMILES IDX 26 36 27 38 28 39 29 40 30 41 31 42 32 43 33 44 34 45 40 50
REMARK SMILES IDX 41 51 42 52 43 53 44 54
REMARK H PARENT 6 16 16 27 10 29 26 37 33 46 33 47 34 48 34 49 44 55
ROOT
ATOM      1  N   UNL     1      -1.802  -2.928   7.719  1.00  0.00    -0.326 N 
ATOM      2  C   UNL     1      -0.534  -4.897   7.967  1.00  0.00     0.014 C 
ATOM      3  C   UNL     1      -0.696  -3.474   8.511  1.00  0.00     0.091 C 
ATOM      4  C   UNL     1      -0.868  -4.732   6.493  1.00  0.00     0.041 C 
ATOM      5  C   UNL     1      -2.121  -3.843   6.595  1.00  0.00     0.175 C 
ATOM      6  C   UNL     1      -0.860  -3.553  10.028  1.00  0.00     0.059 C 
ATOM      7  C   UNL     1       0.807  -5.480   8.365  1.00  0.00     0.008 C 
ATOM      8  C   UNL     1      -0.099  -4.730  10.675  1.00  0.00     0.143 C 
ATOM      9  C   UNL     1       1.125  -5.158   9.840  1.00  0.00     0.034 C 
ENDROOT
BRANCH   1  10
ATOM     10  C   UNL     1      -2.382  -1.672   7.753  1.00  0.00     0.246 C 
ATOM     11  O   UNL     1      -1.847  -0.746   7.135  1.00  0.00    -0.272 OA
BRANCH  10  12
ATOM     12  C   UNL     1      -3.714  -1.463   8.530  1.00  0.00     0.174 C 
BRANCH  12  13
ATOM     13  N   UNL     1      -4.780  -1.089   7.601  1.00  0.00    -0.342 N 
ATOM     14  C   UNL     1      -6.118  -1.360   7.783  1.00  0.00     0.249 C 
ATOM     15  O   UNL     1      -6.571  -1.926   8.770  1.00  0.00    -0.272 OA
ATOM     16  H   UNL     1      -4.543  -0.756   6.670  1.00  0.00     0.164 HD
BRANCH  14  17
ATOM     17  C   UNL     1      -6.992  -0.853   6.616  1.00  0.00     0.207 C 
BRANCH  17  18
ATOM     18  C   UNL     1      -6.156  -0.013   5.645  1.00  0.00     0.077 C 
BRANCH  18  19
ATOM     19  C   UNL     1      -6.104  -0.633   4.267  1.00  0.00    -0.043 A 
ATOM     20  C   UNL     1      -5.574  -2.509   2.824  1.00  0.00     0.083 A 
ATOM     21  C   UNL     1      -5.667  -1.957   4.101  1.00  0.00     0.028 A 
ATOM     22  C   UNL     1      -5.915  -1.746   1.706  1.00  0.00     0.134 A 
ATOM     23  C   UNL     1      -6.350  -0.435   1.856  1.00  0.00     0.048 A 
ATOM     24  C   UNL     1      -6.442   0.122   3.134  1.00  0.00     0.008 A 
ATOM     25  Cl  UNL     1      -5.033  -4.137   2.640  1.00  0.00    -0.080 Cl
BRANCH  22  26
ATOM     26  O   UNL     1      -5.830  -2.241   0.433  1.00  0.00    -0.506 OA
ATOM     27  H   UNL     1      -4.937  -2.623   0.340  1.00  0.00     0.293 HD
ENDBRANCH  22  26
ENDBRANCH  18  19
ENDBRANCH  17  18
BRANCH  17  28
ATOM     28  O   UNL     1      -8.094  -0.066   7.099  1.00  0.00    -0.383 OA
ATOM     29  H   UNL     1      -7.696   0.669   7.619  1.00  0.00     0.211 HD
ENDBRANCH  17  28
ENDBRANCH  14  17
ENDBRANCH  12  13
BRANCH  12  30
ATOM     30  C   UNL     1      -3.572  -0.457   9.704  1.00  0.00     0.018 C 
ATOM     31  C   UNL     1      -2.406   0.512   9.455  1.00  0.00     0.010 C 
BRANCH  30  32
ATOM     32  C   UNL     1      -3.416  -1.134  11.087  1.00  0.00     0.002 C 
ATOM     33  C   UNL     1      -4.584  -0.937  12.045  1.00  0.00     0.004 C 
ENDBRANCH  30  32
ENDBRANCH  12  30
ENDBRANCH  10  12
ENDBRANCH   1  10
BRANCH   5  34
ATOM     34  C   UNL     1      -3.391  -4.678   6.909  1.00  0.00     0.242 C 
ATOM     35  O   UNL     1      -3.696  -5.006   8.055  1.00  0.00    -0.273 OA
ATOM     36  N   UNL     1      -4.121  -5.070   5.809  1.00  0.00    -0.354 N 
ATOM     37  H   UNL     1      -3.753  -4.869   4.878  1.00  0.00     0.163 HD
BRANCH  36  38
ATOM     38  C   UNL     1      -5.437  -5.663   5.925  1.00  0.00     0.116 C 
BRANCH  38  39
ATOM     39  C   UNL     1      -5.331  -7.183   5.824  1.00  0.00     0.023 C 
BRANCH  39  40
ATOM     40  C   UNL     1      -6.252  -7.898   6.807  1.00  0.00     0.026 C 
BRANCH  40  41
ATOM     41  C   UNL     1      -6.153  -7.271   8.197  1.00  0.00     0.146 C 
BRANCH  41  42
ATOM     42  N   UNL     1      -5.780  -8.288   9.171  1.00  0.00    -0.254 NA
ATOM     43  C   UNL     1      -4.763  -8.099   9.926  1.00  0.00     0.185 C 
ATOM     44  N   UNL     1      -3.915  -7.056   9.990  1.00  0.00    -0.370 N 
ATOM     45  N   UNL     1      -4.433  -9.051  10.814  1.00  0.00    -0.370 N 
ATOM     46  H   UNL     1      -3.026  -7.146  10.452  1.00  0.00     0.159 HD
ATOM     47  H   UNL     1      -4.027  -6.241   9.395  1.00  0.00     0.159 HD
ATOM     48  H   UNL     1      -5.027  -9.868  10.837  1.00  0.00     0.159 HD
ATOM     49  H   UNL     1      -3.813  -8.882  11.586  1.00  0.00     0.159 HD
ENDBRANCH  41  42
ENDBRANCH  40  41
ENDBRANCH  39  40
ENDBRANCH  38  39
ENDBRANCH  36  38
ENDBRANCH   5  34
BRANCH   8  50
ATOM     50  O   UNL     1      -0.966  -5.855  10.817  1.00  0.00    -0.245 OA
BRANCH  50  51
ATOM     51  S   UNL     1      -0.734  -6.898  12.043  1.00  0.00     0.397 S 
ATOM     52  O   UNL     1      -0.373  -6.135  13.217  1.00  0.00    -0.169 OA
ATOM     53  O   UNL     1       0.069  -8.014  11.586  1.00  0.00    -0.169 OA
BRANCH  51  54
ATOM     54  O   UNL     1      -2.224  -7.438  12.312  1.00  0.00    -0.264 OA
ATOM     55  H   UNL     1      -2.750  -7.280  11.501  1.00  0.00     0.236 HD
ENDBRANCH  51  54
ENDBRANCH  50  51
ENDBRANCH   8  50
TORSDOF 19
ENDMDL
MODEL 3
REMARK VINA RESULT:    -8.557      4.058      7.631
REMARK INTER + INTRA:         -19.988
REMARK INTER:                 -15.700
REMARK INTRA:                  -4.288
REMARK UNBOUND:                -2.676
REMARK SMILES CC[C@@H](C)[C@@H](NC(=O)[C@@H](O)Cc1ccc(O)c(Cl)c1)C(=O)N1[C@H](C(=O)NCCCCN=C(N)N)C[C@H]2CC[C@H](OS(=O)(=O)O)C[C@@H]21
REMARK SMILES IDX 22 1 36 2 46 3 35 4 23 5 45 6 37 7 39 8 38 9 20 10 21 11
REMARK SMILES IDX 5 12 6 13 7 14 8 15 9 17 11 18 12 19 17 20 19 21 15 22 14 23
REMARK SMILES IDX 13 24 18 25 16 26 10 28 3 30 4 31 2 32 1 33 24 34 25 35
REMARK SMILES IDX 26 36 27 38 28 39 29 40 30 41 31 42 32 43 33 44 34 45 40 50
REMARK SMILES IDX 41 51 42 52 43 53 44 54
REMARK H PARENT 6 16 16 27 10 29 26 37 33 46 33 47 34 48 34 49 44 55
ROOT
ATOM      1  N   UNL     1      -3.553  -2.516   6.807  1.00  0.00    -0.326 N 
ATOM      2  C   UNL     1      -5.476  -2.673   5.457  1.00  0.00     0.014 C 
ATOM      3  C   UNL     1      -4.099  -3.300   5.695  1.00  0.00     0.091 C 
ATOM      4  C   UNL     1      -5.232  -1.204   5.764  1.00  0.00     0.041 C 
ATOM      5  C   UNL     1      -4.407  -1.329   7.059  1.00  0.00     0.175 C 
ATOM      6  C   UNL     1      -4.280  -4.804   5.890  1.00  0.00     0.059 C 
ATOM      7  C   UNL     1      -6.024  -3.068   4.100  1.00  0.00     0.008 C 
ATOM      8  C   UNL     1      -5.462  -5.397   5.091  1.00  0.00     0.143 C 
ATOM      9  C   UNL     1      -5.781  -4.568   3.830  1.00  0.00     0.034 C 
ENDROOT
BRANCH   1  10
ATOM     10  C   UNL     1      -2.328  -2.613   7.444  1.00  0.00     0.246 C 
ATOM     11  O   UNL     1      -1.379  -1.940   7.028  1.00  0.00    -0.272 OA
BRANCH  10  12
ATOM     12  C   UNL     1      -2.183  -3.531   8.692  1.00  0.00     0.174 C 
BRANCH  12  13
ATOM     13  N   UNL     1      -1.256  -2.929   9.650  1.00  0.00    -0.342 N 
ATOM     14  C   UNL     1      -1.595  -1.982  10.590  1.00  0.00     0.249 C 
ATOM     15  O   UNL     1      -2.731  -1.555  10.748  1.00  0.00    -0.272 OA
ATOM     16  H   UNL     1      -0.255  -3.068   9.536  1.00  0.00     0.164 HD
BRANCH  14  17
ATOM     17  C   UNL     1      -0.389  -1.530  11.441  1.00  0.00     0.207 C 
BRANCH  17  18
ATOM     18  C   UNL     1       0.629  -2.667  11.574  1.00  0.00     0.077 C 
BRANCH  18  19
ATOM     19  C   UNL     1       2.042  -2.188  11.325  1.00  0.00    -0.043 A 
ATOM     20  C   UNL     1       3.784  -0.527  11.630  1.00  0.00     0.083 A 
ATOM     21  C   UNL     1       2.496  -0.991  11.902  1.00  0.00     0.028 A 
ATOM     22  C   UNL     1       4.623  -1.251  10.782  1.00  0.00     0.134 A 
ATOM     23  C   UNL     1       4.186  -2.437  10.204  1.00  0.00     0.048 A 
ATOM     24  C   UNL     1       2.897  -2.904  10.473  1.00  0.00     0.008 A 
ATOM     25  Cl  UNL     1       4.324   0.945  12.348  1.00  0.00    -0.080 Cl
BRANCH  22  26
ATOM     26  O   UNL     1       5.889  -0.830  10.478  1.00  0.00    -0.506 OA
ATOM     27  H   UNL     1       5.817  -0.286   9.672  1.00  0.00     0.293 HD
ENDBRANCH  22  26
ENDBRANCH  18  19
ENDBRANCH  17  18
BRANCH  17  28
ATOM     28  O   UNL     1      -0.808  -1.110  12.749  1.00  0.00    -0.383 OA
ATOM     29  H   UNL     1      -0.401  -0.225  12.894  1.00  0.00     0.211 HD
ENDBRANCH  17  28
ENDBRANCH  14  17
ENDBRANCH  12  13
BRANCH  12  30
ATOM     30  C   UNL     1      -1.792  -4.987   8.324  1.00  0.00     0.018 C 
ATOM     31  C   UNL     1      -2.634  -5.998   9.119  1.00  0.00     0.010 C 
BRANCH  30  32
ATOM     32  C   UNL     1      -0.284  -5.291   8.506  1.00  0.00     0.002 C 
ATOM     33  C   UNL     1       0.546  -5.253   7.230  1.00  0.00     0.004 C 
ENDBRANCH  30  32
ENDBRANCH  12  30
ENDBRANCH  10  12
ENDBRANCH   1  10
BRANCH   5  34
ATOM     34  C   UNL     1      -5.316  -1.558   8.296  1.00  0.00     0.242 C 
ATOM     35  O   UNL     1      -5.352  -2.631   8.897  1.00  0.00    -0.273 OA
ATOM     36  N   UNL     1      -6.117  -0.492   8.639  1.00  0.00    -0.354 N 
ATOM     37  H   UNL     1      -6.131   0.328   8.031  1.00  0.00     0.163 HD
BRANCH  36  38
ATOM     38  C   UNL     1      -6.861  -0.451   9.881  1.00  0.00     0.116 C 
BRANCH  38  39
ATOM     39  C   UNL     1      -8.029   0.524   9.755  1.00  0.00     0.023 C 
BRANCH  39  40
ATOM     40  C   UNL     1      -9.376  -0.186   9.681  1.00  0.00     0.026 C 
BRANCH  40  41
ATOM     41  C   UNL     1      -9.185  -1.697   9.549  1.00  0.00     0.146 C 
BRANCH  41  42
ATOM     42  N   UNL     1      -9.289  -2.086   8.148  1.00  0.00    -0.254 NA
ATOM     43  C   UNL     1      -8.668  -3.125   7.732  1.00  0.00     0.185 C 
ATOM     44  N   UNL     1      -7.881  -3.989   8.400  1.00  0.00    -0.370 N 
ATOM     45  N   UNL     1      -8.773  -3.464   6.436  1.00  0.00    -0.370 N 
ATOM     46  H   UNL     1      -7.267  -4.612   7.904  1.00  0.00     0.159 HD
ATOM     47  H   UNL     1      -7.705  -3.889   9.395  1.00  0.00     0.159 HD
ATOM     48  H   UNL     1      -9.356  -2.870   5.863  1.00  0.00     0.159 HD
ATOM     49  H   UNL     1      -8.521  -4.373   6.090  1.00  0.00     0.159 HD
ENDBRANCH  41  42
ENDBRANCH  40  41
ENDBRANCH  39  40
ENDBRANCH  38  39
ENDBRANCH  36  38
ENDBRANCH   5  34
BRANCH   8  50
ATOM     50  O   UNL     1      -6.631  -5.446   5.910  1.00  0.00    -0.245 OA
BRANCH  50  51
ATOM     51  S   UNL     1      -7.108  -6.866   6.543  1.00  0.00     0.397 S 
ATOM     52  O   UNL     1      -8.362  -6.651   7.229  1.00  0.00    -0.169 OA
ATOM     53  O   UNL     1      -5.986  -7.509   7.196  1.00  0.00    -0.169 OA
BRANCH  51  54
ATOM     54  O   UNL     1      -7.468  -7.717   5.227  1.00  0.00    -0.264 OA
ATOM     55  H   UNL     1      -8.434  -7.649   5.083  1.00  0.00     0.236 HD
ENDBRANCH  51  54
ENDBRANCH  50  51
ENDBRANCH   8  50
TORSDOF 19
ENDMDL
MODEL 4
REMARK VINA RESULT:    -8.509      3.620      6.508
REMARK INTER + INTRA:         -19.891
REMARK INTER:                 -16.349
REMARK INTRA:                  -3.542
REMARK UNBOUND:                -2.676
REMARK SMILES CC[C@@H](C)[C@@H](NC(=O)[C@@H](O)Cc1ccc(O)c(Cl)c1)C(=O)N1[C@H](C(=O)NCCCCN=C(N)N)C[C@H]2CC[C@H](OS(=O)(=O)O)C[C@@H]21
REMARK SMILES IDX 22 1 36 2 46 3 35 4 23 5 45 6 37 7 39 8 38 9 20 10 21 11
REMARK SMILES IDX 5 12 6 13 7 14 8 15 9 17 11 18 12 19 17 20 19 21 15 22 14 23
REMARK SMILES IDX 13 24 18 25 16 26 10 28 3 30 4 31 2 32 1 33 24 34 25 35
REMARK SMILES IDX 26 36 27 38 28 39 29 40 30 41 31 42 32 43 33 44 34 45 40 50
REMARK SMILES IDX 41 51 42 52 43 53 44 54
REMARK H PARENT 6 16 16 27 10 29 26 37 33 46 33 47 34 48 34 49 44 55
ROOT
ATOM      1  N   UNL     1      -3.496  -3.678   8.262  1.00  0.00    -0.326 N 
ATOM      2  C   UNL     1      -1.199  -4.143   8.484  1.00  0.00     0.014 C 
ATOM      3  C   UNL     1      -2.413  -3.605   9.247  1.00  0.00     0.091 C 
ATOM      4  C   UNL     1      -1.446  -3.647   7.068  1.00  0.00     0.041 C 
ATOM      5  C   UNL     1      -2.942  -3.981   6.919  1.00  0.00     0.175 C 
ATOM      6  C   UNL     1      -2.559  -4.399  10.544  1.00  0.00     0.059 C 
ATOM      7  C   UNL     1       0.092  -3.772   9.187  1.00  0.00     0.008 C 
ATOM      8  C   UNL     1      -1.216  -4.885  11.130  1.00  0.00     0.143 C 
ATOM      9  C   UNL     1      -0.040  -3.979  10.711  1.00  0.00     0.034 C 
ENDROOT
BRANCH   1  10
ATOM     10  C   UNL     1      -4.825  -3.308   8.375  1.00  0.00     0.246 C 
ATOM     11  O   UNL     1      -5.704  -4.142   8.135  1.00  0.00    -0.272 OA
BRANCH  10  12
ATOM     12  C   UNL     1      -5.183  -1.867   8.842  1.00  0.00     0.174 C 
BRANCH  12  13
ATOM     13  N   UNL     1      -5.898  -1.161   7.779  1.00  0.00    -0.342 N 
ATOM     14  C   UNL     1      -7.267  -1.047   7.688  1.00  0.00     0.249 C 
ATOM     15  O   UNL     1      -8.046  -1.506   8.514  1.00  0.00    -0.272 OA
ATOM     16  H   UNL     1      -5.396  -0.866   6.945  1.00  0.00     0.164 HD
BRANCH  14  17
ATOM     17  C   UNL     1      -7.717  -0.257   6.441  1.00  0.00     0.207 C 
BRANCH  17  18
ATOM     18  C   UNL     1      -6.501   0.279   5.679  1.00  0.00     0.077 C 
BRANCH  18  19
ATOM     19  C   UNL     1      -6.352  -0.378   4.325  1.00  0.00    -0.043 A 
ATOM     20  C   UNL     1      -5.929  -2.354   2.982  1.00  0.00     0.083 A 
ATOM     21  C   UNL     1      -6.115  -1.759   4.230  1.00  0.00     0.028 A 
ATOM     22  C   UNL     1      -5.976  -1.577   1.824  1.00  0.00     0.134 A 
ATOM     23  C   UNL     1      -6.210  -0.209   1.903  1.00  0.00     0.048 A 
ATOM     24  C   UNL     1      -6.395   0.390   3.151  1.00  0.00     0.008 A 
ATOM     25  Cl  UNL     1      -5.638  -4.051   2.886  1.00  0.00    -0.080 Cl
BRANCH  22  26
ATOM     26  O   UNL     1      -5.789  -2.114   0.579  1.00  0.00    -0.506 OA
ATOM     27  H   UNL     1      -4.825  -2.158   0.435  1.00  0.00     0.293 HD
ENDBRANCH  22  26
ENDBRANCH  18  19
ENDBRANCH  17  18
BRANCH  17  28
ATOM     28  O   UNL     1      -8.573   0.839   6.803  1.00  0.00    -0.383 OA
ATOM     29  H   UNL     1      -9.495   0.519   6.672  1.00  0.00     0.211 HD
ENDBRANCH  17  28
ENDBRANCH  14  17
ENDBRANCH  12  13
BRANCH  12  30
ATOM     30  C   UNL     1      -3.947  -1.077   9.350  1.00  0.00     0.018 C 
ATOM     31  C   UNL     1      -4.339  -0.124  10.490  1.00  0.00     0.010 C 
BRANCH  30  32
ATOM     32  C   UNL     1      -3.207  -0.297   8.236  1.00  0.00     0.002 C 
ATOM     33  C   UNL     1      -1.928   0.406   8.673  1.00  0.00     0.004 C 
ENDBRANCH  30  32
ENDBRANCH  12  30
ENDBRANCH  10  12
ENDBRANCH   1  10
BRANCH   5  34
ATOM     34  C   UNL     1      -3.161  -5.475   6.558  1.00  0.00     0.242 C 
ATOM     35  O   UNL     1      -2.311  -6.337   6.781  1.00  0.00    -0.273 OA
ATOM     36  N   UNL     1      -4.350  -5.756   5.923  1.00  0.00    -0.354 N 
ATOM     37  H   UNL     1      -4.960  -4.982   5.658  1.00  0.00     0.163 HD
BRANCH  36  38
ATOM     38  C   UNL     1      -4.811  -7.112   5.710  1.00  0.00     0.116 C 
BRANCH  38  39
ATOM     39  C   UNL     1      -6.337  -7.146   5.710  1.00  0.00     0.023 C 
BRANCH  39  40
ATOM     40  C   UNL     1      -6.893  -8.366   6.437  1.00  0.00     0.026 C 
BRANCH  40  41
ATOM     41  C   UNL     1      -7.279  -8.012   7.873  1.00  0.00     0.146 C 
BRANCH  41  42
ATOM     42  N   UNL     1      -6.473  -8.788   8.805  1.00  0.00    -0.254 NA
ATOM     43  C   UNL     1      -5.473  -8.239   9.387  1.00  0.00     0.185 C 
ATOM     44  N   UNL     1      -4.997  -6.985   9.288  1.00  0.00    -0.370 N 
ATOM     45  N   UNL     1      -4.739  -8.973  10.239  1.00  0.00    -0.370 N 
ATOM     46  H   UNL     1      -4.070  -6.762   9.608  1.00  0.00     0.159 HD
ATOM     47  H   UNL     1      -5.441  -6.291   8.695  1.00  0.00     0.159 HD
ATOM     48  H   UNL     1      -5.036  -9.929  10.378  1.00  0.00     0.159 HD
ATOM     49  H   UNL     1      -4.103  -8.564  10.901  1.00  0.00     0.159 HD
ENDBRANCH  41  42
ENDBRANCH  40  41
ENDBRANCH  39  40
ENDBRANCH  38  39
ENDBRANCH  36  38
ENDBRANCH   5  34
BRANCH   8  50
ATOM     50  O   UNL     1      -0.942  -6.216  10.690  1.00  0.00    -0.245 OA
BRANCH  50  51
ATOM     51  S   UNL     1      -1.024  -7.445  11.752  1.00  0.00     0.397 S 
ATOM     52  O   UNL     1       0.248  -8.133  11.737  1.00  0.00    -0.169 OA
ATOM     53  O   UNL     1      -2.274  -8.155  11.579  1.00  0.00    -0.169 OA
BRANCH  51  54
ATOM     54  O   UNL     1      -1.085  -6.669  13.159  1.00  0.00    -0.264 OA
ATOM     55  H   UNL     1      -0.631  -7.223  13.826  1.00  0.00     0.236 HD
ENDBRANCH  51  54
ENDBRANCH  50  51
ENDBRANCH   8  50
TORSDOF 19
ENDMDL
MODEL 5
REMARK VINA RESULT:    -8.464      2.490      5.818
REMARK INTER + INTRA:         -19.799
REMARK INTER:                 -15.892
REMARK INTRA:                  -3.907
REMARK UNBOUND:                -2.676
REMARK SMILES CC[C@@H](C)[C@@H](NC(=O)[C@@H](O)Cc1ccc(O)c(Cl)c1)C(=O)N1[C@H](C(=O)NCCCCN=C(N)N)C[C@H]2CC[C@H](OS(=O)(=O)O)C[C@@H]21
REMARK SMILES IDX 22 1 36 2 46 3 35 4 23 5 45 6 37 7 39 8 38 9 20 10 21 11
REMARK SMILES IDX 5 12 6 13 7 14 8 15 9 17 11 18 12 19 17 20 19 21 15 22 14 23
REMARK SMILES IDX 13 24 18 25 16 26 10 28 3 30 4 31 2 32 1 33 24 34 25 35
REMARK SMILES IDX 26 36 27 38 28 39 29 40 30 41 31 42 32 43 33 44 34 45 40 50
REMARK SMILES IDX 41 51 42 52 43 53 44 54
REMARK H PARENT 6 16 16 27 10 29 26 37 33 46 33 47 34 48 34 49 44 55
ROOT
ATOM      1  N   UNL     1      -4.832  -2.205   7.496  1.00  0.00    -0.326 N 
ATOM      2  C   UNL     1      -7.186  -2.218   7.456  1.00  0.00     0.014 C 
ATOM      3  C   UNL     1      -5.982  -2.381   8.388  1.00  0.00     0.091 C 
ATOM      4  C   UNL     1      -6.688  -2.828   6.156  1.00  0.00     0.041 C 
ATOM      5  C   UNL     1      -5.283  -2.203   6.082  1.00  0.00     0.175 C 
ATOM      6  C   UNL     1      -6.144  -1.414   9.560  1.00  0.00     0.059 C 
ATOM      7  C   UNL     1      -8.447  -2.763   8.099  1.00  0.00     0.008 C 
ATOM      8  C   UNL     1      -7.614  -1.155   9.954  1.00  0.00     0.143 C 
ATOM      9  C   UNL     1      -8.530  -2.337   9.580  1.00  0.00     0.034 C 
ENDROOT
BRANCH   1  10
ATOM     10  C   UNL     1      -3.477  -2.265   7.773  1.00  0.00     0.246 C 
ATOM     11  O   UNL     1      -2.949  -1.335   8.392  1.00  0.00    -0.272 OA
BRANCH  10  12
ATOM     12  C   UNL     1      -2.659  -3.515   7.337  1.00  0.00     0.174 C 
BRANCH  12  13
ATOM     13  N   UNL     1      -3.562  -4.636   7.080  1.00  0.00    -0.342 N 
ATOM     14  C   UNL     1      -3.424  -5.542   6.052  1.00  0.00     0.249 C 
ATOM     15  O   UNL     1      -2.502  -5.524   5.246  1.00  0.00    -0.272 OA
ATOM     16  H   UNL     1      -4.453  -4.688   7.567  1.00  0.00     0.164 HD
BRANCH  14  17
ATOM     17  C   UNL     1      -4.547  -6.600   6.036  1.00  0.00     0.207 C 
BRANCH  17  18
ATOM     18  C   UNL     1      -4.736  -7.202   7.432  1.00  0.00     0.077 C 
BRANCH  18  19
ATOM     19  C   UNL     1      -6.175  -7.119   7.890  1.00  0.00    -0.043 A 
ATOM     20  C   UNL     1      -7.968  -7.876   9.338  1.00  0.00     0.083 A 
ATOM     21  C   UNL     1      -6.628  -7.918   8.951  1.00  0.00     0.028 A 
ATOM     22  C   UNL     1      -8.862  -7.039   8.669  1.00  0.00     0.134 A 
ATOM     23  C   UNL     1      -8.427  -6.242   7.617  1.00  0.00     0.048 A 
ATOM     24  C   UNL     1      -7.087  -6.283   7.226  1.00  0.00     0.008 A 
ATOM     25  Cl  UNL     1      -8.506  -8.865  10.644  1.00  0.00    -0.080 Cl
BRANCH  22  26
ATOM     26  O   UNL     1     -10.187  -6.971   9.006  1.00  0.00    -0.506 OA
ATOM     27  H   UNL     1     -10.680  -7.419   8.294  1.00  0.00     0.293 HD
ENDBRANCH  22  26
ENDBRANCH  18  19
ENDBRANCH  17  18
BRANCH  17  28
ATOM     28  O   UNL     1      -4.255  -7.651   5.100  1.00  0.00    -0.383 OA
ATOM     29  H   UNL     1      -4.903  -8.368   5.286  1.00  0.00     0.211 HD
ENDBRANCH  17  28
ENDBRANCH  14  17
ENDBRANCH  12  13
BRANCH  12  30
ATOM     30  C   UNL     1      -1.535  -3.877   8.344  1.00  0.00     0.018 C 
ATOM     31  C   UNL     1      -0.214  -4.159   7.611  1.00  0.00     0.010 C 
BRANCH  30  32
ATOM     32  C   UNL     1      -1.892  -5.064   9.273  1.00  0.00     0.002 C 
ATOM     33  C   UNL     1      -2.226  -4.689  10.711  1.00  0.00     0.004 C 
ENDBRANCH  30  32
ENDBRANCH  12  30
ENDBRANCH  10  12
ENDBRANCH   1  10
BRANCH   5  34
ATOM     34  C   UNL     1      -5.328  -0.757   5.522  1.00  0.00     0.242 C 
ATOM     35  O   UNL     1      -4.552   0.120   5.900  1.00  0.00    -0.273 OA
ATOM     36  N   UNL     1      -6.333  -0.513   4.613  1.00  0.00    -0.354 N 
ATOM     37  H   UNL     1      -7.019  -1.246   4.429  1.00  0.00     0.163 HD
BRANCH  36  38
ATOM     38  C   UNL     1      -6.391   0.707   3.833  1.00  0.00     0.116 C 
BRANCH  38  39
ATOM     39  C   UNL     1      -6.103   0.399   2.366  1.00  0.00     0.023 C 
BRANCH  39  40
ATOM     40  C   UNL     1      -7.007  -0.697   1.812  1.00  0.00     0.026 C 
BRANCH  40  41
ATOM     41  C   UNL     1      -6.178  -1.843   1.233  1.00  0.00     0.146 C 
BRANCH  41  42
ATOM     42  N   UNL     1      -5.763  -2.741   2.304  1.00  0.00    -0.254 NA
ATOM     43  C   UNL     1      -4.770  -3.528   2.121  1.00  0.00     0.185 C 
ATOM     44  N   UNL     1      -3.982  -3.690   1.043  1.00  0.00    -0.370 N 
ATOM     45  N   UNL     1      -4.406  -4.351   3.118  1.00  0.00    -0.370 N 
ATOM     46  H   UNL     1      -3.402  -4.507   0.949  1.00  0.00     0.159 HD
ATOM     47  H   UNL     1      -4.109  -3.137   0.201  1.00  0.00     0.159 HD
ATOM     48  H   UNL     1      -4.945  -4.286   3.972  1.00  0.00     0.159 HD
ATOM     49  H   UNL     1      -3.516  -4.814   3.143  1.00  0.00     0.159 HD
ENDBRANCH  41  42
ENDBRANCH  40  41
ENDBRANCH  39  40
ENDBRANCH  38  39
ENDBRANCH  36  38
ENDBRANCH   5  34
BRANCH   8  50
ATOM     50  O   UNL     1      -8.098   0.018   9.299  1.00  0.00    -0.245 OA
BRANCH  50  51
ATOM     51  S   UNL     1      -9.031   1.068  10.119  1.00  0.00     0.397 S 
ATOM     52  O   UNL     1      -8.636   2.406   9.742  1.00  0.00    -0.169 OA
ATOM     53  O   UNL     1      -9.115   0.663  11.507  1.00  0.00    -0.169 OA
BRANCH  51  54
ATOM     54  O   UNL     1     -10.473   0.831   9.447  1.00  0.00    -0.264 OA
ATOM     55  H   UNL     1     -11.139   0.822  10.164  1.00  0.00     0.236 HD
ENDBRANCH  51  54
ENDBRANCH  50  51
ENDBRANCH   8  50
TORSDOF 19
ENDMDL
MODEL 6
REMARK VINA RESULT:    -8.452      3.612      5.865
REMARK INTER + INTRA:         -19.775
REMARK INTER:                 -15.929
REMARK INTRA:                  -3.845
REMARK UNBOUND:                -2.676
REMARK SMILES CC[C@@H](C)[C@@H](NC(=O)[C@@H](O)Cc1ccc(O)c(Cl)c1)C(=O)N1[C@H](C(=O)NCCCCN=C(N)N)C[C@H]2CC[C@H](OS(=O)(=O)O)C[C@@H]21
REMARK SMILES IDX 22 1 36 2 46 3 35 4 23 5 45 6 37 7 39 8 38 9 20 10 21 11
REMARK SMILES IDX 5 12 6 13 7 14 8 15 9 17 11 18 12 19 17 20 19 21 15 22 14 23
REMARK SMILES IDX 13 24 18 25 16 26 10 28 3 30 4 31 2 32 1 33 24 34 25 35
REMARK SMILES IDX 26 36 27 38 28 39 29 40 30 41 31 42 32 43 33 44 34 45 40 50
REMARK SMILES IDX 41 51 42 52 43 53 44 54
REMARK H PARENT 6 16 16 27 10 29 26 37 33 46 33 47 34 48 34 49 44 55
ROOT
ATOM      1  N   UNL     1      -1.671  -3.594   8.350  1.00  0.00    -0.326 N 
ATOM      2  C   UNL     1      -0.824  -5.494   9.452  1.00  0.00     0.014 C 
ATOM      3  C   UNL     1      -1.595  -4.192   9.686  1.00  0.00     0.091 C 
ATOM      4  C   UNL     1       0.152  -5.112   8.350  1.00  0.00     0.041 C 
ATOM      5  C   UNL     1      -0.788  -4.331   7.413  1.00  0.00     0.175 C 
ATOM      6  C   UNL     1      -2.901  -4.526  10.405  1.00  0.00     0.059 C 
ATOM      7  C   UNL     1      -0.291  -6.050  10.757  1.00  0.00     0.008 C 
ATOM      8  C   UNL     1      -2.796  -5.743  11.349  1.00  0.00     0.143 C 
ATOM      9  C   UNL     1      -1.359  -5.953  11.867  1.00  0.00     0.034 C 
ENDROOT
BRANCH   1  10
ATOM     10  C   UNL     1      -2.238  -2.398   7.943  1.00  0.00     0.246 C 
ATOM     11  O   UNL     1      -1.776  -1.819   6.954  1.00  0.00    -0.272 OA
BRANCH  10  12
ATOM     12  C   UNL     1      -3.467  -1.832   8.711  1.00  0.00     0.174 C 
BRANCH  12  13
ATOM     13  N   UNL     1      -4.572  -1.597   7.781  1.00  0.00    -0.342 N 
ATOM     14  C   UNL     1      -5.845  -2.102   7.923  1.00  0.00     0.249 C 
ATOM     15  O   UNL     1      -6.205  -2.789   8.871  1.00  0.00    -0.272 OA
ATOM     16  H   UNL     1      -4.385  -1.179   6.873  1.00  0.00     0.164 HD
BRANCH  14  17
ATOM     17  C   UNL     1      -6.781  -1.690   6.766  1.00  0.00     0.207 C 
BRANCH  17  18
ATOM     18  C   UNL     1      -6.113  -0.626   5.890  1.00  0.00     0.077 C 
BRANCH  18  19
ATOM     19  C   UNL     1      -6.069  -1.041   4.436  1.00  0.00    -0.043 A 
ATOM     20  C   UNL     1      -5.773  -2.758   2.748  1.00  0.00     0.083 A 
ATOM     21  C   UNL     1      -5.862  -2.386   4.090  1.00  0.00     0.028 A 
ATOM     22  C   UNL     1      -5.889  -1.793   1.747  1.00  0.00     0.134 A 
ATOM     23  C   UNL     1      -6.095  -0.458   2.076  1.00  0.00     0.048 A 
ATOM     24  C   UNL     1      -6.182  -0.082   3.418  1.00  0.00     0.008 A 
ATOM     25  Cl  UNL     1      -5.517  -4.414   2.342  1.00  0.00    -0.080 Cl
BRANCH  22  26
ATOM     26  O   UNL     1      -5.798  -2.108   0.418  1.00  0.00    -0.506 OA
ATOM     27  H   UNL     1      -6.462  -1.564  -0.045  1.00  0.00     0.293 HD
ENDBRANCH  22  26
ENDBRANCH  18  19
ENDBRANCH  17  18
BRANCH  17  28
ATOM     28  O   UNL     1      -8.028  -1.182   7.266  1.00  0.00    -0.383 OA
ATOM     29  H   UNL     1      -8.169  -0.318   6.817  1.00  0.00     0.211 HD
ENDBRANCH  17  28
ENDBRANCH  14  17
ENDBRANCH  12  13
BRANCH  12  30
ATOM     30  C   UNL     1      -3.122  -0.572   9.550  1.00  0.00     0.018 C 
ATOM     31  C   UNL     1      -1.768  -0.741  10.256  1.00  0.00     0.010 C 
BRANCH  30  32
ATOM     32  C   UNL     1      -4.215  -0.193  10.580  1.00  0.00     0.002 C 
ATOM     33  C   UNL     1      -4.358  -1.147  11.758  1.00  0.00     0.004 C 
ENDBRANCH  30  32
ENDBRANCH  12  30
ENDBRANCH  10  12
ENDBRANCH   1  10
BRANCH   5  34
ATOM     34  C   UNL     1      -1.616  -5.283   6.509  1.00  0.00     0.242 C 
ATOM     35  O   UNL     1      -1.247  -6.428   6.247  1.00  0.00    -0.273 OA
ATOM     36  N   UNL     1      -2.764  -4.738   5.980  1.00  0.00    -0.354 N 
ATOM     37  H   UNL     1      -2.955  -3.747   6.137  1.00  0.00     0.163 HD
BRANCH  36  38
ATOM     38  C   UNL     1      -3.759  -5.540   5.299  1.00  0.00     0.116 C 
BRANCH  38  39
ATOM     39  C   UNL     1      -5.133  -5.297   5.917  1.00  0.00     0.023 C 
BRANCH  39  40
ATOM     40  C   UNL     1      -6.203  -6.217   5.340  1.00  0.00     0.026 C 
BRANCH  40  41
ATOM     41  C   UNL     1      -7.250  -6.563   6.398  1.00  0.00     0.146 C 
BRANCH  41  42
ATOM     42  N   UNL     1      -6.945  -7.860   6.987  1.00  0.00    -0.254 NA
ATOM     43  C   UNL     1      -7.378  -8.141   8.159  1.00  0.00     0.185 C 
ATOM     44  N   UNL     1      -8.118  -7.405   9.008  1.00  0.00    -0.370 N 
ATOM     45  N   UNL     1      -7.082  -9.341   8.686  1.00  0.00    -0.370 N 
ATOM     46  H   UNL     1      -8.178  -7.650   9.981  1.00  0.00     0.159 HD
ATOM     47  H   UNL     1      -8.442  -6.474   8.763  1.00  0.00     0.159 HD
ATOM     48  H   UNL     1      -6.534  -9.962   8.107  1.00  0.00     0.159 HD
ATOM     49  H   UNL     1      -7.570  -9.723   9.476  1.00  0.00     0.159 HD
ENDBRANCH  41  42
ENDBRANCH  40  41
ENDBRANCH  39  40
ENDBRANCH  38  39
ENDBRANCH  36  38
ENDBRANCH   5  34
BRANCH   8  50
ATOM     50  O   UNL     1      -3.210  -6.928  10.668  1.00  0.00    -0.245 OA
BRANCH  50  51
ATOM     51  S   UNL     1      -4.533  -7.726  11.177  1.00  0.00     0.397 S 
ATOM     52  O   UNL     1      -5.690  -6.922  10.856  1.00  0.00    -0.169 OA
ATOM     53  O   UNL     1      -4.309  -8.236  12.514  1.00  0.00    -0.169 OA
BRANCH  51  54
ATOM     54  O   UNL     1      -4.577  -8.979  10.170  1.00  0.00    -0.264 OA
ATOM     55  H   UNL     1      -3.662  -9.310  10.065  1.00  0.00     0.236 HD
ENDBRANCH  51  54
ENDBRANCH  50  51
ENDBRANCH   8  50
TORSDOF 19
ENDMDL
MODEL 7
REMARK VINA RESULT:    -8.387      3.229      5.756
REMARK INTER + INTRA:         -19.644
REMARK INTER:                 -16.210
REMARK INTRA:                  -3.434
REMARK UNBOUND:                -2.676
REMARK SMILES CC[C@@H](C)[C@@H](NC(=O)[C@@H](O)Cc1ccc(O)c(Cl)c1)C(=O)N1[C@H](C(=O)NCCCCN=C(N)N)C[C@H]2CC[C@H](OS(=O)(=O)O)C[C@@H]21
REMARK SMILES IDX 22 1 36 2 46 3 35 4 23 5 45 6 37 7 39 8 38 9 20 10 21 11
REMARK SMILES IDX 5 12 6 13 7 14 8 15 9 17 11 18 12 19 17 20 19 21 15 22 14 23
REMARK SMILES IDX 13 24 18 25 16 26 10 28 3 30 4 31 2 32 1 33 24 34 25 35
REMARK SMILES IDX 26 36 27 38 28 39 29 40 30 41 31 42 32 43 33 44 34 45 40 50
REMARK SMILES IDX 41 51 42 52 43 53 44 54
REMARK H PARENT 6 16 16 27 10 29 26 37 33 46 33 47 34 48 34 49 44 55
ROOT
ATOM      1  N   UNL     1      -3.664  -3.813   7.161  1.00  0.00    -0.326 N 
ATOM      2  C   UNL     1      -4.000  -6.108   6.755  1.00  0.00     0.014 C 
ATOM      3  C   UNL     1      -3.782  -5.087   7.876  1.00  0.00     0.091 C 
ATOM      4  C   UNL     1      -3.157  -5.545   5.621  1.00  0.00     0.041 C 
ATOM      5  C   UNL     1      -3.549  -4.058   5.702  1.00  0.00     0.175 C 
ATOM      6  C   UNL     1      -4.906  -5.244   8.897  1.00  0.00     0.059 C 
ATOM      7  C   UNL     1      -3.738  -7.518   7.246  1.00  0.00     0.008 C 
ATOM      8  C   UNL     1      -5.432  -6.690   9.026  1.00  0.00     0.143 C 
ATOM      9  C   UNL     1      -4.361  -7.732   8.642  1.00  0.00     0.034 C 
ENDROOT
BRANCH   1  10
ATOM     10  C   UNL     1      -3.439  -2.538   7.651  1.00  0.00     0.246 C 
ATOM     11  O   UNL     1      -4.397  -1.769   7.790  1.00  0.00    -0.272 OA
BRANCH  10  12
ATOM     12  C   UNL     1      -1.998  -2.115   8.056  1.00  0.00     0.174 C 
BRANCH  12  13
ATOM     13  N   UNL     1      -1.182  -3.303   8.308  1.00  0.00    -0.342 N 
ATOM     14  C   UNL     1      -0.357  -3.905   7.385  1.00  0.00     0.249 C 
ATOM     15  O   UNL     1      -0.193  -3.491   6.244  1.00  0.00    -0.272 OA
ATOM     16  H   UNL     1      -1.332  -3.847   9.154  1.00  0.00     0.164 HD
BRANCH  14  17
ATOM     17  C   UNL     1       0.358  -5.151   7.949  1.00  0.00     0.207 C 
BRANCH  17  18
ATOM     18  C   UNL     1       1.225  -4.772   9.154  1.00  0.00     0.077 C 
BRANCH  18  19
ATOM     19  C   UNL     1       0.759  -5.458  10.419  1.00  0.00    -0.043 A 
ATOM     20  C   UNL     1      -0.939  -6.682  11.644  1.00  0.00     0.083 A 
ATOM     21  C   UNL     1      -0.492  -6.094  10.460  1.00  0.00     0.028 A 
ATOM     22  C   UNL     1      -0.144  -6.638  12.790  1.00  0.00     0.134 A 
ATOM     23  C   UNL     1       1.096  -6.012  12.762  1.00  0.00     0.048 A 
ATOM     24  C   UNL     1       1.546  -5.420  11.580  1.00  0.00     0.008 A 
ATOM     25  Cl  UNL     1      -2.479  -7.459  11.675  1.00  0.00    -0.080 Cl
BRANCH  22  26
ATOM     26  O   UNL     1      -0.545  -7.192  13.975  1.00  0.00    -0.506 OA
ATOM     27  H   UNL     1      -1.389  -7.648  13.800  1.00  0.00     0.293 HD
ENDBRANCH  22  26
ENDBRANCH  18  19
ENDBRANCH  17  18
BRANCH  17  28
ATOM     28  O   UNL     1       1.179  -5.774   6.948  1.00  0.00    -0.383 OA
ATOM     29  H   UNL     1       0.768  -6.649   6.764  1.00  0.00     0.211 HD
ENDBRANCH  17  28
ENDBRANCH  14  17
ENDBRANCH  12  13
BRANCH  12  30
ATOM     30  C   UNL     1      -1.977  -1.119   9.247  1.00  0.00     0.018 C 
ATOM     31  C   UNL     1      -1.917   0.332   8.744  1.00  0.00     0.010 C 
BRANCH  30  32
ATOM     32  C   UNL     1      -0.832  -1.380  10.256  1.00  0.00     0.002 C 
ATOM     33  C   UNL     1      -1.272  -1.878  11.626  1.00  0.00     0.004 C 
ENDBRANCH  30  32
ENDBRANCH  12  30
ENDBRANCH  10  12
ENDBRANCH   1  10
BRANCH   5  34
ATOM     34  C   UNL     1      -4.901  -3.783   4.990  1.00  0.00     0.242 C 
ATOM     35  O   UNL     1      -5.944  -3.583   5.612  1.00  0.00    -0.273 OA
ATOM     36  N   UNL     1      -4.858  -3.832   3.614  1.00  0.00    -0.354 N 
ATOM     37  H   UNL     1      -3.992  -4.121   3.159  1.00  0.00     0.163 HD
BRANCH  36  38
ATOM     38  C   UNL     1      -5.965  -3.393   2.791  1.00  0.00     0.116 C 
BRANCH  38  39
ATOM     39  C   UNL     1      -5.561  -2.152   1.998  1.00  0.00     0.023 C 
BRANCH  39  40
ATOM     40  C   UNL     1      -6.688  -1.130   1.899  1.00  0.00     0.026 C 
BRANCH  40  41
ATOM     41  C   UNL     1      -6.208   0.251   2.346  1.00  0.00     0.146 C 
BRANCH  41  42
ATOM     42  N   UNL     1      -5.341   0.118   3.509  1.00  0.00    -0.254 NA
ATOM     43  C   UNL     1      -5.847   0.159   4.684  1.00  0.00     0.185 C 
ATOM     44  N   UNL     1      -7.127   0.311   5.071  1.00  0.00    -0.370 N 
ATOM     45  N   UNL     1      -5.030   0.039   5.744  1.00  0.00    -0.370 N 
ATOM     46  H   UNL     1      -7.350   0.569   6.017  1.00  0.00     0.159 HD
ATOM     47  H   UNL     1      -7.880   0.402   4.396  1.00  0.00     0.159 HD
ATOM     48  H   UNL     1      -4.048  -0.088   5.540  1.00  0.00     0.159 HD
ATOM     49  H   UNL     1      -5.363  -0.176   6.667  1.00  0.00     0.159 HD
ENDBRANCH  41  42
ENDBRANCH  40  41
ENDBRANCH  39  40
ENDBRANCH  38  39
ENDBRANCH  36  38
ENDBRANCH   5  34
BRANCH   8  50
ATOM     50  O   UNL     1      -6.569  -6.876   8.183  1.00  0.00    -0.245 OA
BRANCH  50  51
ATOM     51  S   UNL     1      -7.517  -8.181   8.390  1.00  0.00     0.397 S 
ATOM     52  O   UNL     1      -7.401  -8.604   9.767  1.00  0.00    -0.169 OA
ATOM     53  O   UNL     1      -7.320  -9.105   7.292  1.00  0.00    -0.169 OA
BRANCH  51  54
ATOM     54  O   UNL     1      -8.990  -7.551   8.248  1.00  0.00    -0.264 OA
ATOM     55  H   UNL     1      -9.583  -8.251   7.909  1.00  0.00     0.236 HD
ENDBRANCH  51  54
ENDBRANCH  50  51
ENDBRANCH   8  50
TORSDOF 19
ENDMDL
MODEL 8
REMARK VINA RESULT:    -8.339      2.978      6.213
REMARK INTER + INTRA:         -19.546
REMARK INTER:                 -14.929
REMARK INTRA:                  -4.617
REMARK UNBOUND:                -2.676
REMARK SMILES CC[C@@H](C)[C@@H](NC(=O)[C@@H](O)Cc1ccc(O)c(Cl)c1)C(=O)N1[C@H](C(=O)NCCCCN=C(N)N)C[C@H]2CC[C@H](OS(=O)(=O)O)C[C@@H]21
REMARK SMILES IDX 22 1 36 2 46 3 35 4 23 5 45 6 37 7 39 8 38 9 20 10 21 11
REMARK SMILES IDX 5 12 6 13 7 14 8 15 9 17 11 18 12 19 17 20 19 21 15 22 14 23
REMARK SMILES IDX 13 24 18 25 16 26 10 28 3 30 4 31 2 32 1 33 24 34 25 35
REMARK SMILES IDX 26 36 27 38 28 39 29 40 30 41 31 42 32 43 33 44 34 45 40 50
REMARK SMILES IDX 41 51 42 52 43 53 44 54
REMARK H PARENT 6 16 16 27 10 29 26 37 33 46 33 47 34 48 34 49 44 55
ROOT
ATOM      1  N   UNL     1      -3.570  -4.237   7.015  1.00  0.00    -0.326 N 
ATOM      2  C   UNL     1      -3.972  -3.887   9.308  1.00  0.00     0.014 C 
ATOM      3  C   UNL     1      -4.611  -4.433   8.028  1.00  0.00     0.091 C 
ATOM      4  C   UNL     1      -3.127  -2.731   8.794  1.00  0.00     0.041 C 
ATOM      5  C   UNL     1      -2.480  -3.393   7.564  1.00  0.00     0.175 C 
ATOM      6  C   UNL     1      -5.098  -5.855   8.301  1.00  0.00     0.059 C 
ATOM      7  C   UNL     1      -5.022  -3.625  10.370  1.00  0.00     0.008 C 
ATOM      8  C   UNL     1      -5.555  -6.087   9.757  1.00  0.00     0.143 C 
ATOM      9  C   UNL     1      -6.039  -4.785  10.427  1.00  0.00     0.034 C 
ENDROOT
BRANCH   1  10
ATOM     10  C   UNL     1      -3.584  -4.525   5.661  1.00  0.00     0.246 C 
ATOM     11  O   UNL     1      -2.820  -5.392   5.223  1.00  0.00    -0.272 OA
BRANCH  10  12
ATOM     12  C   UNL     1      -4.587  -3.785   4.730  1.00  0.00     0.174 C 
BRANCH  12  13
ATOM     13  N   UNL     1      -5.105  -2.594   5.401  1.00  0.00    -0.342 N 
ATOM     14  C   UNL     1      -5.339  -1.382   4.791  1.00  0.00     0.249 C 
ATOM     15  O   UNL     1      -5.163  -1.174   3.597  1.00  0.00    -0.272 OA
ATOM     16  H   UNL     1      -5.151  -2.568   6.417  1.00  0.00     0.164 HD
BRANCH  14  17
ATOM     17  C   UNL     1      -5.870  -0.314   5.771  1.00  0.00     0.207 C 
BRANCH  17  18
ATOM     18  C   UNL     1      -5.639  -0.756   7.220  1.00  0.00     0.077 C 
BRANCH  18  19
ATOM     19  C   UNL     1      -6.942  -0.956   7.961  1.00  0.00    -0.043 A 
ATOM     20  C   UNL     1      -8.615  -0.160   9.527  1.00  0.00     0.083 A 
ATOM     21  C   UNL     1      -7.438   0.049   8.807  1.00  0.00     0.028 A 
ATOM     22  C   UNL     1      -9.301  -1.369   9.409  1.00  0.00     0.134 A 
ATOM     23  C   UNL     1      -8.822  -2.372   8.575  1.00  0.00     0.048 A 
ATOM     24  C   UNL     1      -7.643  -2.167   7.854  1.00  0.00     0.008 A 
ATOM     25  Cl  UNL     1      -9.208   1.087  10.561  1.00  0.00    -0.080 Cl
BRANCH  22  26
ATOM     26  O   UNL     1     -10.453  -1.622  10.103  1.00  0.00    -0.506 OA
ATOM     27  H   UNL     1     -11.055  -2.083   9.489  1.00  0.00     0.293 HD
ENDBRANCH  22  26
ENDBRANCH  18  19
ENDBRANCH  17  18
BRANCH  17  28
ATOM     28  O   UNL     1      -7.271  -0.072   5.564  1.00  0.00    -0.383 OA
ATOM     29  H   UNL     1      -7.467   0.785   6.005  1.00  0.00     0.211 HD
ENDBRANCH  17  28
ENDBRANCH  14  17
ENDBRANCH  12  13
BRANCH  12  30
ATOM     30  C   UNL     1      -5.719  -4.712   4.211  1.00  0.00     0.018 C 
ATOM     31  C   UNL     1      -5.923  -4.532   2.698  1.00  0.00     0.010 C 
BRANCH  30  32
ATOM     32  C   UNL     1      -7.064  -4.527   4.955  1.00  0.00     0.002 C 
ATOM     33  C   UNL     1      -7.641  -5.789   5.582  1.00  0.00     0.004 C 
ENDBRANCH  30  32
ENDBRANCH  12  30
ENDBRANCH  10  12
ENDBRANCH   1  10
BRANCH   5  34
ATOM     34  C   UNL     1      -1.257  -4.263   7.960  1.00  0.00     0.242 C 
ATOM     35  O   UNL     1      -1.287  -5.493   7.929  1.00  0.00    -0.273 OA
ATOM     36  N   UNL     1      -0.157  -3.562   8.400  1.00  0.00    -0.354 N 
ATOM     37  H   UNL     1      -0.234  -2.551   8.518  1.00  0.00     0.163 HD
BRANCH  36  38
ATOM     38  C   UNL     1       1.131  -4.191   8.603  1.00  0.00     0.116 C 
BRANCH  38  39
ATOM     39  C   UNL     1       1.914  -3.437   9.675  1.00  0.00     0.023 C 
BRANCH  39  40
ATOM     40  C   UNL     1       2.206  -4.299  10.898  1.00  0.00     0.026 C 
BRANCH  40  41
ATOM     41  C   UNL     1       0.910  -4.694  11.605  1.00  0.00     0.146 C 
BRANCH  41  42
ATOM     42  N   UNL     1       0.872  -6.139  11.793  1.00  0.00    -0.254 NA
ATOM     43  C   UNL     1      -0.163  -6.798  11.430  1.00  0.00     0.185 C 
ATOM     44  N   UNL     1      -1.307  -6.370  10.864  1.00  0.00    -0.370 N 
ATOM     45  N   UNL     1      -0.180  -8.128  11.616  1.00  0.00    -0.370 N 
ATOM     46  H   UNL     1      -2.125  -6.955  10.857  1.00  0.00     0.159 HD
ATOM     47  H   UNL     1      -1.457  -5.392  10.640  1.00  0.00     0.159 HD
ATOM     48  H   UNL     1       0.648  -8.533  12.030  1.00  0.00     0.159 HD
ATOM     49  H   UNL     1      -0.834  -8.734  11.153  1.00  0.00     0.159 HD
ENDBRANCH  41  42
ENDBRANCH  40  41
ENDBRANCH  39  40
ENDBRANCH  38  39
ENDBRANCH  36  38
ENDBRANCH   5  34
BRANCH   8  50
ATOM     50  O   UNL     1      -4.479  -6.622  10.529  1.00  0.00    -0.245 OA
BRANCH  50  51
ATOM     51  S   UNL     1      -4.545  -8.165  11.037  1.00  0.00     0.397 S 
ATOM     52  O   UNL     1      -5.476  -8.233  12.141  1.00  0.00    -0.169 OA
ATOM     53  O   UNL     1      -3.203  -8.701  11.141  1.00  0.00    -0.169 OA
BRANCH  51  54
ATOM     54  O   UNL     1      -5.275  -8.894   9.804  1.00  0.00    -0.264 OA
ATOM     55  H   UNL     1      -4.600  -9.411   9.320  1.00  0.00     0.236 HD
ENDBRANCH  51  54
ENDBRANCH  50  51
ENDBRANCH   8  50
TORSDOF 19
ENDMDL
MODEL 9
REMARK VINA RESULT:    -8.338      4.059      6.771
REMARK INTER + INTRA:         -19.544
REMARK INTER:                 -17.120
REMARK INTRA:                  -2.423
REMARK UNBOUND:                -2.676
REMARK SMILES CC[C@@H](C)[C@@H](NC(=O)[C@@H](O)Cc1ccc(O)c(Cl)c1)C(=O)N1[C@H](C(=O)NCCCCN=C(N)N)C[C@H]2CC[C@H](OS(=O)(=O)O)C[C@@H]21
REMARK SMILES IDX 22 1 36 2 46 3 35 4 23 5 45 6 37 7 39 8 38 9 20 10 21 11
REMARK SMILES IDX 5 12 6 13 7 14 8 15 9 17 11 18 12 19 17 20 19 21 15 22 14 23
REMARK SMILES IDX 13 24 18 25 16 26 10 28 3 30 4 31 2 32 1 33 24 34 25 35
REMARK SMILES IDX 26 36 27 38 28 39 29 40 30 41 31 42 32 43 33 44 34 45 40 50
REMARK SMILES IDX 41 51 42 52 43 53 44 54
REMARK H PARENT 6 16 16 27 10 29 26 37 33 46 33 47 34 48 34 49 44 55
ROOT
ATOM      1  N   UNL     1      -2.730  -5.339   7.013  1.00  0.00    -0.326 N 
ATOM      2  C   UNL     1      -4.721  -5.513   5.770  1.00  0.00     0.014 C 
ATOM      3  C   UNL     1      -3.801  -6.293   6.713  1.00  0.00     0.091 C 
ATOM      4  C   UNL     1      -3.743  -4.658   4.979  1.00  0.00     0.041 C 
ATOM      5  C   UNL     1      -2.834  -4.160   6.118  1.00  0.00     0.175 C 
ATOM      6  C   UNL     1      -4.640  -6.829   7.872  1.00  0.00     0.059 C 
ATOM      7  C   UNL     1      -5.659  -6.447   5.031  1.00  0.00     0.008 C 
ATOM      8  C   UNL     1      -6.096  -7.163   7.484  1.00  0.00     0.143 C 
ATOM      9  C   UNL     1      -6.230  -7.515   5.988  1.00  0.00     0.034 C 
ENDROOT
BRANCH   1  10
ATOM     10  C   UNL     1      -1.601  -5.491   7.800  1.00  0.00     0.246 C 
ATOM     11  O   UNL     1      -0.534  -5.814   7.266  1.00  0.00    -0.272 OA
BRANCH  10  12
ATOM     12  C   UNL     1      -1.689  -5.210   9.328  1.00  0.00     0.174 C 
BRANCH  12  13
ATOM     13  N   UNL     1      -0.875  -4.044   9.669  1.00  0.00    -0.342 N 
ATOM     14  C   UNL     1      -1.260  -3.033  10.521  1.00  0.00     0.249 C 
ATOM     15  O   UNL     1      -2.329  -3.015  11.118  1.00  0.00    -0.272 OA
ATOM     16  H   UNL     1      -0.033  -3.843   9.134  1.00  0.00     0.164 HD
BRANCH  14  17
ATOM     17  C   UNL     1      -0.187  -1.932  10.663  1.00  0.00     0.207 C 
BRANCH  17  18
ATOM     18  C   UNL     1       0.675  -2.181  11.905  1.00  0.00     0.077 C 
BRANCH  18  19
ATOM     19  C   UNL     1       2.064  -1.604  11.749  1.00  0.00    -0.043 A 
ATOM     20  C   UNL     1       3.688   0.130  12.240  1.00  0.00     0.083 A 
ATOM     21  C   UNL     1       2.421  -0.426  12.425  1.00  0.00     0.028 A 
ATOM     22  C   UNL     1       4.601  -0.482  11.382  1.00  0.00     0.134 A 
ATOM     23  C   UNL     1       4.260  -1.649  10.707  1.00  0.00     0.048 A 
ATOM     24  C   UNL     1       2.993  -2.207  10.888  1.00  0.00     0.008 A 
ATOM     25  Cl  UNL     1       4.108   1.577  13.078  1.00  0.00    -0.080 Cl
BRANCH  22  26
ATOM     26  O   UNL     1       5.850   0.032  11.161  1.00  0.00    -0.506 OA
ATOM     27  H   UNL     1       6.415  -0.713  10.883  1.00  0.00     0.293 HD
ENDBRANCH  22  26
ENDBRANCH  18  19
ENDBRANCH  17  18
BRANCH  17  28
ATOM     28  O   UNL     1      -0.790  -0.631  10.753  1.00  0.00    -0.383 OA
ATOM     29  H   UNL     1      -1.125  -0.551  11.675  1.00  0.00     0.211 HD
ENDBRANCH  17  28
ENDBRANCH  14  17
ENDBRANCH  12  13
BRANCH  12  30
ATOM     30  C   UNL     1      -1.331  -6.453  10.188  1.00  0.00     0.018 C 
ATOM     31  C   UNL     1      -2.411  -6.711  11.250  1.00  0.00     0.010 C 
BRANCH  30  32
ATOM     32  C   UNL     1       0.062  -6.366  10.857  1.00  0.00     0.002 C 
ATOM     33  C   UNL     1       0.049  -6.211  12.372  1.00  0.00     0.004 C 
ENDBRANCH  30  32
ENDBRANCH  12  30
ENDBRANCH  10  12
ENDBRANCH   1  10
BRANCH   5  34
ATOM     34  C   UNL     1      -3.462  -2.955   6.866  1.00  0.00     0.242 C 
ATOM     35  O   UNL     1      -3.039  -2.562   7.953  1.00  0.00    -0.273 OA
ATOM     36  N   UNL     1      -4.559  -2.392   6.254  1.00  0.00    -0.354 N 
ATOM     37  H   UNL     1      -4.936  -2.837   5.416  1.00  0.00     0.163 HD
BRANCH  36  38
ATOM     38  C   UNL     1      -5.134  -1.138   6.695  1.00  0.00     0.116 C 
BRANCH  38  39
ATOM     39  C   UNL     1      -6.494  -0.930   6.035  1.00  0.00     0.023 C 
BRANCH  39  40
ATOM     40  C   UNL     1      -6.561   0.367   5.235  1.00  0.00     0.026 C 
BRANCH  40  41
ATOM     41  C   UNL     1      -5.359   0.490   4.299  1.00  0.00     0.146 C 
BRANCH  41  42
ATOM     42  N   UNL     1      -5.364  -0.611   3.345  1.00  0.00    -0.254 NA
ATOM     43  C   UNL     1      -5.853  -0.433   2.175  1.00  0.00     0.185 C 
ATOM     44  N   UNL     1      -6.402   0.666   1.625  1.00  0.00    -0.370 N 
ATOM     45  N   UNL     1      -5.852  -1.461   1.311  1.00  0.00    -0.370 N 
ATOM     46  H   UNL     1      -6.962   0.597   0.792  1.00  0.00     0.159 HD
ATOM     47  H   UNL     1      -6.470   1.540   2.136  1.00  0.00     0.159 HD
ATOM     48  H   UNL     1      -5.447  -2.326   1.644  1.00  0.00     0.159 HD
ATOM     49  H   UNL     1      -5.992  -1.343   0.324  1.00  0.00     0.159 HD
ENDBRANCH  41  42
ENDBRANCH  40  41
ENDBRANCH  39  40
ENDBRANCH  38  39
ENDBRANCH  36  38
ENDBRANCH   5  34
BRANCH   8  50
ATOM     50  O   UNL     1      -6.947  -6.052   7.766  1.00  0.00    -0.245 OA
BRANCH  50  51
ATOM     51  S   UNL     1      -8.510  -6.311   8.132  1.00  0.00     0.397 S 
ATOM     52  O   UNL     1      -8.953  -5.232   8.987  1.00  0.00    -0.169 OA
ATOM     53  O   UNL     1      -8.701  -7.698   8.499  1.00  0.00    -0.169 OA
BRANCH  51  54
ATOM     54  O   UNL     1      -9.231  -6.069   6.715  1.00  0.00    -0.264 OA
ATOM     55  H   UNL     1      -9.935  -6.742   6.619  1.00  0.00     0.236 HD
ENDBRANCH  51  54
ENDBRANCH  50  51
ENDBRANCH   8  50
TORSDOF 19
ENDMDL
MODEL 10
REMARK VINA RESULT:    -8.335      3.069      6.160
REMARK INTER + INTRA:         -19.538
REMARK INTER:                 -14.922
REMARK INTRA:                  -4.616
REMARK UNBOUND:                -2.676
REMARK SMILES CC[C@@H](C)[C@@H](NC(=O)[C@@H](O)Cc1ccc(O)c(Cl)c1)C(=O)N1[C@H](C(=O)NCCCCN=C(N)N)C[C@H]2CC[C@H](OS(=O)(=O)O)C[C@@H]21
REMARK SMILES IDX 22 1 36 2 46 3 35 4 23 5 45 6 37 7 39 8 38 9 20 10 21 11
REMARK SMILES IDX 5 12 6 13 7 14 8 15 9 17 11 18 12 19 17 20 19 21 15 22 14 23
REMARK SMILES IDX 13 24 18 25 16 26 10 28 3 30 4 31 2 32 1 33 24 34 25 35
REMARK SMILES IDX 26 36 27 38 28 39 29 40 30 41 31 42 32 43 33 44 34 45 40 50
REMARK SMILES IDX 41 51 42 52 43 53 44 54
REMARK H PARENT 6 16 16 27 10 29 26 37 33 46 33 47 34 48 34 49 44 55
ROOT
ATOM      1  N   UNL     1      -5.290  -3.267  11.043  1.00  0.00    -0.326 N 
ATOM      2  C   UNL     1      -4.581  -5.511  11.089  1.00  0.00     0.014 C 
ATOM      3  C   UNL     1      -5.763  -4.599  11.430  1.00  0.00     0.091 C 
ATOM      4  C   UNL     1      -3.379  -4.629  11.389  1.00  0.00     0.041 C 
ATOM      5  C   UNL     1      -3.839  -3.312  10.738  1.00  0.00     0.175 C 
ATOM      6  C   UNL     1      -7.013  -5.151  10.748  1.00  0.00     0.059 C 
ATOM      7  C   UNL     1      -4.712  -6.851  11.785  1.00  0.00     0.008 C 
ATOM      8  C   UNL     1      -7.017  -6.689  10.609  1.00  0.00     0.143 C 
ATOM      9  C   UNL     1      -6.163  -7.371  11.697  1.00  0.00     0.034 C 
ENDROOT
BRANCH   1  10
ATOM     10  C   UNL     1      -5.922  -2.038  11.136  1.00  0.00     0.246 C 
ATOM     11  O   UNL     1      -5.472  -1.188  11.911  1.00  0.00    -0.272 OA
BRANCH  10  12
ATOM     12  C   UNL     1      -7.157  -1.740  10.236  1.00  0.00     0.174 C 
BRANCH  12  13
ATOM     13  N   UNL     1      -6.741  -1.637   8.838  1.00  0.00    -0.342 N 
ATOM     14  C   UNL     1      -7.444  -2.137   7.765  1.00  0.00     0.249 C 
ATOM     15  O   UNL     1      -8.524  -2.707   7.864  1.00  0.00    -0.272 OA
ATOM     16  H   UNL     1      -5.797  -1.331   8.614  1.00  0.00     0.164 HD
BRANCH  14  17
ATOM     17  C   UNL     1      -6.736  -1.884   6.418  1.00  0.00     0.207 C 
BRANCH  17  18
ATOM     18  C   UNL     1      -6.669  -3.175   5.596  1.00  0.00     0.077 C 
BRANCH  18  19
ATOM     19  C   UNL     1      -6.327  -2.904   4.149  1.00  0.00    -0.043 A 
ATOM     20  C   UNL     1      -6.209  -1.378   2.266  1.00  0.00     0.083 A 
ATOM     21  C   UNL     1      -6.479  -1.614   3.615  1.00  0.00     0.028 A 
ATOM     22  C   UNL     1      -5.788  -2.424   1.445  1.00  0.00     0.134 A 
ATOM     23  C   UNL     1      -5.633  -3.706   1.960  1.00  0.00     0.048 A 
ATOM     24  C   UNL     1      -5.904  -3.946   3.309  1.00  0.00     0.008 A 
ATOM     25  Cl  UNL     1      -6.403   0.213   1.629  1.00  0.00    -0.080 Cl
BRANCH  22  26
ATOM     26  O   UNL     1      -5.522  -2.243   0.114  1.00  0.00    -0.506 OA
ATOM     27  H   UNL     1      -4.621  -2.584  -0.040  1.00  0.00     0.293 HD
ENDBRANCH  22  26
ENDBRANCH  18  19
ENDBRANCH  17  18
BRANCH  17  28
ATOM     28  O   UNL     1      -5.406  -1.379   6.620  1.00  0.00    -0.383 OA
ATOM     29  H   UNL     1      -5.084  -1.787   7.455  1.00  0.00     0.211 HD
ENDBRANCH  17  28
ENDBRANCH  14  17
ENDBRANCH  12  13
BRANCH  12  30
ATOM     30  C   UNL     1      -7.958  -0.498  10.710  1.00  0.00     0.018 C 
ATOM     31  C   UNL     1      -9.455  -0.826  10.828  1.00  0.00     0.010 C 
BRANCH  30  32
ATOM     32  C   UNL     1      -7.756   0.750   9.816  1.00  0.00     0.002 C 
ATOM     33  C   UNL     1      -8.937   1.709   9.759  1.00  0.00     0.004 C 
ENDBRANCH  30  32
ENDBRANCH  12  30
ENDBRANCH  10  12
ENDBRANCH   1  10
BRANCH   5  34
ATOM     34  C   UNL     1      -3.598  -3.317   9.205  1.00  0.00     0.242 C 
ATOM     35  O   UNL     1      -4.505  -3.518   8.397  1.00  0.00    -0.273 OA
ATOM     36  N   UNL     1      -2.290  -3.136   8.816  1.00  0.00    -0.354 N 
ATOM     37  H   UNL     1      -1.565  -3.095   9.534  1.00  0.00     0.163 HD
BRANCH  36  38
ATOM     38  C   UNL     1      -1.918  -2.899   7.437  1.00  0.00     0.116 C 
BRANCH  38  39
ATOM     39  C   UNL     1      -0.911  -3.953   6.983  1.00  0.00     0.023 C 
BRANCH  39  40
ATOM     40  C   UNL     1      -1.458  -4.840   5.869  1.00  0.00     0.026 C 
BRANCH  40  41
ATOM     41  C   UNL     1      -1.825  -6.223   6.408  1.00  0.00     0.146 C 
BRANCH  41  42
ATOM     42  N   UNL     1      -2.889  -6.801   5.597  1.00  0.00    -0.254 NA
ATOM     43  C   UNL     1      -4.106  -6.695   5.980  1.00  0.00     0.185 C 
ATOM     44  N   UNL     1      -4.620  -6.103   7.074  1.00  0.00    -0.370 N 
ATOM     45  N   UNL     1      -5.071  -7.238   5.221  1.00  0.00    -0.370 N 
ATOM     46  H   UNL     1      -5.559  -6.306   7.373  1.00  0.00     0.159 HD
ATOM     47  H   UNL     1      -4.030  -5.630   7.751  1.00  0.00     0.159 HD
ATOM     48  H   UNL     1      -4.769  -7.696   4.372  1.00  0.00     0.159 HD
ATOM     49  H   UNL     1      -6.042  -6.999   5.322  1.00  0.00     0.159 HD
ENDBRANCH  41  42
ENDBRANCH  40  41
ENDBRANCH  39  40
ENDBRANCH  38  39
ENDBRANCH  36  38
ENDBRANCH   5  34
BRANCH   8  50
ATOM     50  O   UNL     1      -6.508  -7.067   9.330  1.00  0.00    -0.245 OA
BRANCH  50  51
ATOM     51  S   UNL     1      -7.386  -8.047   8.374  1.00  0.00     0.397 S 
ATOM     52  O   UNL     1      -7.008  -9.411   8.666  1.00  0.00    -0.169 OA
ATOM     53  O   UNL     1      -7.388  -7.532   7.020  1.00  0.00    -0.169 OA
BRANCH  51  54
ATOM     54  O   UNL     1      -8.866  -7.864   8.975  1.00  0.00    -0.264 OA
ATOM     55  H   UNL     1      -9.404  -7.392   8.307  1.00  0.00     0.236 HD
ENDBRANCH  51  54
ENDBRANCH  50  51
ENDBRANCH   8  50
TORSDOF 19
ENDMDL
MODEL 11
REMARK VINA RESULT:    -8.204      3.652      7.445
REMARK INTER + INTRA:         -19.274
REMARK INTER:                 -15.165
REMARK INTRA:                  -4.109
REMARK UNBOUND:                -2.676
REMARK SMILES CC[C@@H](C)[C@@H](NC(=O)[C@@H](O)Cc1ccc(O)c(Cl)c1)C(=O)N1[C@H](C(=O)NCCCCN=C(N)N)C[C@H]2CC[C@H](OS(=O)(=O)O)C[C@@H]21
REMARK SMILES IDX 22 1 36 2 46 3 35 4 23 5 45 6 37 7 39 8 38 9 20 10 21 11
REMARK SMILES IDX 5 12 6 13 7 14 8 15 9 17 11 18 12 19 17 20 19 21 15 22 14 23
REMARK SMILES IDX 13 24 18 25 16 26 10 28 3 30 4 31 2 32 1 33 24 34 25 35
REMARK SMILES IDX 26 36 27 38 28 39 29 40 30 41 31 42 32 43 33 44 34 45 40 50
REMARK SMILES IDX 41 51 42 52 43 53 44 54
REMARK H PARENT 6 16 16 27 10 29 26 37 33 46 33 47 34 48 34 49 44 55
ROOT
ATOM      1  N   UNL     1      -4.011  -3.691   8.778  1.00  0.00    -0.326 N 
ATOM      2  C   UNL     1      -2.597  -3.806   6.899  1.00  0.00     0.014 C 
ATOM      3  C   UNL     1      -3.574  -4.631   7.742  1.00  0.00     0.091 C 
ATOM      4  C   UNL     1      -1.936  -2.910   7.935  1.00  0.00     0.041 C 
ATOM      5  C   UNL     1      -3.171  -2.469   8.742  1.00  0.00     0.175 C 
ATOM      6  C   UNL     1      -4.629  -5.227   6.812  1.00  0.00     0.059 C 
ATOM      7  C   UNL     1      -1.734  -4.704   6.035  1.00  0.00     0.008 C 
ATOM      8  C   UNL     1      -4.101  -5.545   5.396  1.00  0.00     0.143 C 
ATOM      9  C   UNL     1      -2.584  -5.820   5.391  1.00  0.00     0.034 C 
ENDROOT
BRANCH   1  10
ATOM     10  C   UNL     1      -4.883  -3.880   9.836  1.00  0.00     0.246 C 
ATOM     11  O   UNL     1      -5.970  -3.293   9.832  1.00  0.00    -0.272 OA
BRANCH  10  12
ATOM     12  C   UNL     1      -4.496  -4.858  10.984  1.00  0.00     0.174 C 
BRANCH  12  13
ATOM     13  N   UNL     1      -3.043  -5.019  11.033  1.00  0.00    -0.342 N 
ATOM     14  C   UNL     1      -2.276  -4.927  12.173  1.00  0.00     0.249 C 
ATOM     15  O   UNL     1      -2.736  -4.726  13.290  1.00  0.00    -0.272 OA
ATOM     16  H   UNL     1      -2.509  -5.034  10.168  1.00  0.00     0.164 HD
BRANCH  14  17
ATOM     17  C   UNL     1      -0.771  -5.127  11.896  1.00  0.00     0.207 C 
BRANCH  17  18
ATOM     18  C   UNL     1      -0.562  -5.798  10.534  1.00  0.00     0.077 C 
BRANCH  18  19
ATOM     19  C   UNL     1       0.553  -5.142   9.750  1.00  0.00    -0.043 A 
ATOM     20  C   UNL     1       2.424  -3.602   9.642  1.00  0.00     0.083 A 
ATOM     21  C   UNL     1       1.428  -4.243  10.380  1.00  0.00     0.028 A 
ATOM     22  C   UNL     1       2.551  -3.853   8.275  1.00  0.00     0.134 A 
ATOM     23  C   UNL     1       1.692  -4.741   7.639  1.00  0.00     0.048 A 
ATOM     24  C   UNL     1       0.692  -5.383   8.375  1.00  0.00     0.008 A 
ATOM     25  Cl  UNL     1       3.489  -2.501  10.433  1.00  0.00    -0.080 Cl
BRANCH  22  26
ATOM     26  O   UNL     1       3.506  -3.241   7.509  1.00  0.00    -0.506 OA
ATOM     27  H   UNL     1       3.050  -2.892   6.720  1.00  0.00     0.293 HD
ENDBRANCH  22  26
ENDBRANCH  18  19
ENDBRANCH  17  18
BRANCH  17  28
ATOM     28  O   UNL     1      -0.158  -5.926  12.920  1.00  0.00    -0.383 OA
ATOM     29  H   UNL     1      -0.643  -6.783  12.923  1.00  0.00     0.211 HD
ENDBRANCH  17  28
ENDBRANCH  14  17
ENDBRANCH  12  13
BRANCH  12  30
ATOM     30  C   UNL     1      -5.240  -6.217  10.890  1.00  0.00     0.018 C 
ATOM     31  C   UNL     1      -5.964  -6.536  12.207  1.00  0.00     0.010 C 
BRANCH  30  32
ATOM     32  C   UNL     1      -4.325  -7.399  10.486  1.00  0.00     0.002 C 
ATOM     33  C   UNL     1      -4.834  -8.251   9.330  1.00  0.00     0.004 C 
ENDBRANCH  30  32
ENDBRANCH  12  30
ENDBRANCH  10  12
ENDBRANCH   1  10
BRANCH   5  34
ATOM     34  C   UNL     1      -3.924  -1.305   8.044  1.00  0.00     0.242 C 
ATOM     35  O   UNL     1      -3.385  -0.581   7.206  1.00  0.00    -0.273 OA
ATOM     36  N   UNL     1      -5.218  -1.106   8.469  1.00  0.00    -0.354 N 
ATOM     37  H   UNL     1      -5.569  -1.660   9.251  1.00  0.00     0.163 HD
BRANCH  36  38
ATOM     38  C   UNL     1      -6.130  -0.214   7.783  1.00  0.00     0.116 C 
BRANCH  38  39
ATOM     39  C   UNL     1      -6.561  -0.834   6.456  1.00  0.00     0.023 C 
BRANCH  39  40
ATOM     40  C   UNL     1      -6.700   0.202   5.346  1.00  0.00     0.026 C 
BRANCH  40  41
ATOM     41  C   UNL     1      -5.424   0.274   4.508  1.00  0.00     0.146 C 
BRANCH  41  42
ATOM     42  N   UNL     1      -5.448  -0.762   3.484  1.00  0.00    -0.254 NA
ATOM     43  C   UNL     1      -5.839  -0.473   2.300  1.00  0.00     0.185 C 
ATOM     44  N   UNL     1      -6.262   0.699   1.790  1.00  0.00    -0.370 N 
ATOM     45  N   UNL     1      -5.858  -1.443   1.371  1.00  0.00    -0.370 N 
ATOM     46  H   UNL     1      -6.766   0.727   0.921  1.00  0.00     0.159 HD
ATOM     47  H   UNL     1      -6.297   1.543   2.353  1.00  0.00     0.159 HD
ATOM     48  H   UNL     1      -5.546  -2.357   1.671  1.00  0.00     0.159 HD
ATOM     49  H   UNL     1      -5.920  -1.252   0.387  1.00  0.00     0.159 HD
ENDBRANCH  41  42
ENDBRANCH  40  41
ENDBRANCH  39  40
ENDBRANCH  38  39
ENDBRANCH  36  38
ENDBRANCH   5  34
BRANCH   8  50
ATOM     50  O   UNL     1      -4.367  -4.452   4.517  1.00  0.00    -0.245 OA
BRANCH  50  51
ATOM     51  S   UNL     1      -5.643  -4.522   3.511  1.00  0.00     0.397 S 
ATOM     52  O   UNL     1      -6.372  -5.736   3.798  1.00  0.00    -0.169 OA
ATOM     53  O   UNL     1      -5.221  -4.189   2.166  1.00  0.00    -0.169 OA
BRANCH  51  54
ATOM     54  O   UNL     1      -6.564  -3.320   4.053  1.00  0.00    -0.264 OA
ATOM     55  H   UNL     1      -6.039  -2.813   4.705  1.00  0.00     0.236 HD
ENDBRANCH  51  54
ENDBRANCH  50  51
ENDBRANCH   8  50
TORSDOF 19
ENDMDL
MODEL 12
REMARK VINA RESULT:    -8.200      3.497      7.035
REMARK INTER + INTRA:         -19.266
REMARK INTER:                 -13.857
REMARK INTRA:                  -5.409
REMARK UNBOUND:                -2.676
REMARK SMILES CC[C@@H](C)[C@@H](NC(=O)[C@@H](O)Cc1ccc(O)c(Cl)c1)C(=O)N1[C@H](C(=O)NCCCCN=C(N)N)C[C@H]2CC[C@H](OS(=O)(=O)O)C[C@@H]21
REMARK SMILES IDX 22 1 36 2 46 3 35 4 23 5 45 6 37 7 39 8 38 9 20 10 21 11
REMARK SMILES IDX 5 12 6 13 7 14 8 15 9 17 11 18 12 19 17 20 19 21 15 22 14 23
REMARK SMILES IDX 13 24 18 25 16 26 10 28 3 30 4 31 2 32 1 33 24 34 25 35
REMARK SMILES IDX 26 36 27 38 28 39 29 40 30 41 31 42 32 43 33 44 34 45 40 50
REMARK SMILES IDX 41 51 42 52 43 53 44 54
REMARK H PARENT 6 16 16 27 10 29 26 37 33 46 33 47 34 48 34 49 44 55
ROOT
ATOM      1  N   UNL     1      -6.283  -4.793  10.877  1.00  0.00    -0.326 N 
ATOM      2  C   UNL     1      -4.546  -6.324  10.450  1.00  0.00     0.014 C 
ATOM      3  C   UNL     1      -6.022  -6.040  10.153  1.00  0.00     0.091 C 
ATOM      4  C   UNL     1      -4.387  -5.813  11.874  1.00  0.00     0.041 C 
ATOM      5  C   UNL     1      -5.140  -4.474  11.768  1.00  0.00     0.175 C 
ATOM      6  C   UNL     1      -6.220  -6.054   8.638  1.00  0.00     0.059 C 
ATOM      7  C   UNL     1      -4.197  -7.765  10.134  1.00  0.00     0.008 C 
ATOM      8  C   UNL     1      -5.278  -7.027   7.897  1.00  0.00     0.143 C 
ATOM      9  C   UNL     1      -4.831  -8.198   8.795  1.00  0.00     0.034 C 
ENDROOT
BRANCH   1  10
ATOM     10  C   UNL     1      -7.453  -4.062  10.992  1.00  0.00     0.246 C 
ATOM     11  O   UNL     1      -8.313  -4.427  11.801  1.00  0.00    -0.272 OA
BRANCH  10  12
ATOM     12  C   UNL     1      -7.642  -2.776  10.136  1.00  0.00     0.174 C 
BRANCH  12  13
ATOM     13  N   UNL     1      -6.845  -2.870   8.913  1.00  0.00    -0.342 N 
ATOM     14  C   UNL     1      -7.343  -2.757   7.635  1.00  0.00     0.249 C 
ATOM     15  O   UNL     1      -8.520  -2.536   7.379  1.00  0.00    -0.272 OA
ATOM     16  H   UNL     1      -5.886  -3.205   8.962  1.00  0.00     0.164 HD
BRANCH  14  17
ATOM     17  C   UNL     1      -6.253  -2.920   6.554  1.00  0.00     0.207 C 
BRANCH  17  18
ATOM     18  C   UNL     1      -6.679  -3.962   5.516  1.00  0.00     0.077 C 
BRANCH  18  19
ATOM     19  C   UNL     1      -6.306  -3.541   4.112  1.00  0.00    -0.043 A 
ATOM     20  C   UNL     1      -6.084  -1.814   2.423  1.00  0.00     0.083 A 
ATOM     21  C   UNL     1      -6.381  -2.192   3.733  1.00  0.00     0.028 A 
ATOM     22  C   UNL     1      -5.712  -2.778   1.486  1.00  0.00     0.134 A 
ATOM     23  C   UNL     1      -5.632  -4.118   1.847  1.00  0.00     0.048 A 
ATOM     24  C   UNL     1      -5.931  -4.500   3.157  1.00  0.00     0.008 A 
ATOM     25  Cl  UNL     1      -6.183  -0.151   1.976  1.00  0.00    -0.080 Cl
BRANCH  22  26
ATOM     26  O   UNL     1      -5.421  -2.457   0.187  1.00  0.00    -0.506 OA
ATOM     27  H   UNL     1      -4.560  -1.999   0.198  1.00  0.00     0.293 HD
ENDBRANCH  22  26
ENDBRANCH  18  19
ENDBRANCH  17  18
BRANCH  17  28
ATOM     28  O   UNL     1      -5.000  -3.313   7.138  1.00  0.00    -0.383 OA
ATOM     29  H   UNL     1      -4.661  -2.520   7.612  1.00  0.00     0.211 HD
ENDBRANCH  17  28
ENDBRANCH  14  17
ENDBRANCH  12  13
BRANCH  12  30
ATOM     30  C   UNL     1      -7.352  -1.476  10.934  1.00  0.00     0.018 C 
ATOM     31  C   UNL     1      -8.594  -1.031  11.722  1.00  0.00     0.010 C 
BRANCH  30  32
ATOM     32  C   UNL     1      -6.833  -0.311  10.056  1.00  0.00     0.002 C 
ATOM     33  C   UNL     1      -7.885   0.708   9.638  1.00  0.00     0.004 C 
ENDBRANCH  30  32
ENDBRANCH  12  30
ENDBRANCH  10  12
ENDBRANCH   1  10
BRANCH   5  34
ATOM     34  C   UNL     1      -4.250  -3.365  11.147  1.00  0.00     0.242 C 
ATOM     35  O   UNL     1      -4.348  -3.027   9.967  1.00  0.00    -0.273 OA
ATOM     36  N   UNL     1      -3.309  -2.825  11.995  1.00  0.00    -0.354 N 
ATOM     37  H   UNL     1      -3.196  -3.230  12.925  1.00  0.00     0.163 HD
BRANCH  36  38
ATOM     38  C   UNL     1      -2.547  -1.643  11.652  1.00  0.00     0.116 C 
BRANCH  38  39
ATOM     39  C   UNL     1      -1.088  -1.828  12.064  1.00  0.00     0.023 C 
BRANCH  39  40
ATOM     40  C   UNL     1      -0.165  -2.023  10.867  1.00  0.00     0.026 C 
BRANCH  40  41
ATOM     41  C   UNL     1      -0.970  -2.130   9.572  1.00  0.00     0.146 C 
BRANCH  41  42
ATOM     42  N   UNL     1      -0.386  -3.150   8.711  1.00  0.00    -0.254 NA
ATOM     43  C   UNL     1      -1.145  -4.016   8.151  1.00  0.00     0.185 C 
ATOM     44  N   UNL     1      -2.481  -4.167   8.216  1.00  0.00    -0.370 N 
ATOM     45  N   UNL     1      -0.587  -4.951   7.365  1.00  0.00    -0.370 N 
ATOM     46  H   UNL     1      -2.914  -5.027   7.928  1.00  0.00     0.159 HD
ATOM     47  H   UNL     1      -3.063  -3.535   8.757  1.00  0.00     0.159 HD
ATOM     48  H   UNL     1       0.417  -4.903   7.255  1.00  0.00     0.159 HD
ATOM     49  H   UNL     1      -1.118  -5.503   6.715  1.00  0.00     0.159 HD
ENDBRANCH  41  42
ENDBRANCH  40  41
ENDBRANCH  39  40
ENDBRANCH  38  39
ENDBRANCH  36  38
ENDBRANCH   5  34
BRANCH   8  50
ATOM     50  O   UNL     1      -4.115  -6.333   7.443  1.00  0.00    -0.245 OA
BRANCH  50  51
ATOM     51  S   UNL     1      -3.683  -6.428   5.878  1.00  0.00     0.397 S 
ATOM     52  O   UNL     1      -3.289  -5.107   5.443  1.00  0.00    -0.169 OA
ATOM     53  O   UNL     1      -4.664  -7.206   5.150  1.00  0.00    -0.169 OA
BRANCH  51  54
ATOM     54  O   UNL     1      -2.326  -7.287   5.956  1.00  0.00    -0.264 OA
ATOM     55  H   UNL     1      -2.326  -7.913   5.203  1.00  0.00     0.236 HD
ENDBRANCH  51  54
ENDBRANCH  50  51
ENDBRANCH   8  50
TORSDOF 19
ENDMDL
MODEL 13
REMARK VINA RESULT:    -8.195      3.515      7.618
REMARK INTER + INTRA:         -19.256
REMARK INTER:                 -15.435
REMARK INTRA:                  -3.820
REMARK UNBOUND:                -2.676
REMARK SMILES CC[C@@H](C)[C@@H](NC(=O)[C@@H](O)Cc1ccc(O)c(Cl)c1)C(=O)N1[C@H](C(=O)NCCCCN=C(N)N)C[C@H]2CC[C@H](OS(=O)(=O)O)C[C@@H]21
REMARK SMILES IDX 22 1 36 2 46 3 35 4 23 5 45 6 37 7 39 8 38 9 20 10 21 11
REMARK SMILES IDX 5 12 6 13 7 14 8 15 9 17 11 18 12 19 17 20 19 21 15 22 14 23
REMARK SMILES IDX 13 24 18 25 16 26 10 28 3 30 4 31 2 32 1 33 24 34 25 35
REMARK SMILES IDX 26 36 27 38 28 39 29 40 30 41 31 42 32 43 33 44 34 45 40 50
REMARK SMILES IDX 41 51 42 52 43 53 44 54
REMARK H PARENT 6 16 16 27 10 29 26 37 33 46 33 47 34 48 34 49 44 55
ROOT
ATOM      1  N   UNL     1      -5.677  -1.607   8.192  1.00  0.00    -0.326 N 
ATOM      2  C   UNL     1      -6.880  -0.821   6.327  1.00  0.00     0.014 C 
ATOM      3  C   UNL     1      -5.463  -1.110   6.830  1.00  0.00     0.091 C 
ATOM      4  C   UNL     1      -7.590  -0.343   7.584  1.00  0.00     0.041 C 
ATOM      5  C   UNL     1      -7.089  -1.390   8.596  1.00  0.00     0.175 C 
ATOM      6  C   UNL     1      -4.771  -2.029   5.824  1.00  0.00     0.059 C 
ATOM      7  C   UNL     1      -6.849   0.074   5.104  1.00  0.00     0.008 C 
ATOM      8  C   UNL     1      -5.229  -1.811   4.366  1.00  0.00     0.143 C 
ATOM      9  C   UNL     1      -5.741  -0.376   4.128  1.00  0.00     0.034 C 
ENDROOT
BRANCH   1  10
ATOM     10  C   UNL     1      -4.758  -2.010   9.145  1.00  0.00     0.246 C 
ATOM     11  O   UNL     1      -5.163  -2.389  10.250  1.00  0.00    -0.272 OA
BRANCH  10  12
ATOM     12  C   UNL     1      -3.242  -2.019   8.793  1.00  0.00     0.174 C 
BRANCH  12  13
ATOM     13  N   UNL     1      -2.811  -3.381   8.480  1.00  0.00    -0.342 N 
ATOM     14  C   UNL     1      -2.024  -3.734   7.407  1.00  0.00     0.249 C 
ATOM     15  O   UNL     1      -1.570  -2.931   6.601  1.00  0.00    -0.272 OA
ATOM     16  H   UNL     1      -3.235  -4.168   8.965  1.00  0.00     0.164 HD
BRANCH  14  17
ATOM     17  C   UNL     1      -1.756  -5.253   7.338  1.00  0.00     0.207 C 
BRANCH  17  18
ATOM     18  C   UNL     1      -0.276  -5.523   7.049  1.00  0.00     0.077 C 
BRANCH  18  19
ATOM     19  C   UNL     1       0.610  -5.081   8.192  1.00  0.00    -0.043 A 
ATOM     20  C   UNL     1       1.195  -5.147  10.545  1.00  0.00     0.083 A 
ATOM     21  C   UNL     1       0.409  -5.594   9.483  1.00  0.00     0.028 A 
ATOM     22  C   UNL     1       2.184  -4.187  10.326  1.00  0.00     0.134 A 
ATOM     23  C   UNL     1       2.394  -3.670   9.052  1.00  0.00     0.048 A 
ATOM     24  C   UNL     1       1.607  -4.115   7.988  1.00  0.00     0.008 A 
ATOM     25  Cl  UNL     1       0.933  -5.788  12.124  1.00  0.00    -0.080 Cl
BRANCH  22  26
ATOM     26  O   UNL     1       2.973  -3.710  11.338  1.00  0.00    -0.506 OA
ATOM     27  H   UNL     1       3.164  -4.466  11.924  1.00  0.00     0.293 HD
ENDBRANCH  22  26
ENDBRANCH  18  19
ENDBRANCH  17  18
BRANCH  17  28
ATOM     28  O   UNL     1      -2.561  -5.875   6.324  1.00  0.00    -0.383 OA
ATOM     29  H   UNL     1      -2.947  -6.679   6.738  1.00  0.00     0.211 HD
ENDBRANCH  17  28
ENDBRANCH  14  17
ENDBRANCH  12  13
BRANCH  12  30
ATOM     30  C   UNL     1      -2.367  -1.359   9.892  1.00  0.00     0.018 C 
ATOM     31  C   UNL     1      -1.811  -0.010   9.410  1.00  0.00     0.010 C 
BRANCH  30  32
ATOM     32  C   UNL     1      -1.213  -2.261  10.393  1.00  0.00     0.002 C 
ATOM     33  C   UNL     1      -1.412  -2.863  11.778  1.00  0.00     0.004 C 
ENDBRANCH  30  32
ENDBRANCH  12  30
ENDBRANCH  10  12
ENDBRANCH   1  10
BRANCH   5  34
ATOM     34  C   UNL     1      -7.898  -2.710   8.501  1.00  0.00     0.242 C 
ATOM     35  O   UNL     1      -9.096  -2.729   8.219  1.00  0.00    -0.273 OA
ATOM     36  N   UNL     1      -7.193  -3.853   8.807  1.00  0.00    -0.354 N 
ATOM     37  H   UNL     1      -6.236  -3.762   9.150  1.00  0.00     0.163 HD
BRANCH  36  38
ATOM     38  C   UNL     1      -7.724  -5.178   8.564  1.00  0.00     0.116 C 
BRANCH  38  39
ATOM     39  C   UNL     1      -6.778  -6.229   9.138  1.00  0.00     0.023 C 
BRANCH  39  40
ATOM     40  C   UNL     1      -7.374  -7.632   9.102  1.00  0.00     0.026 C 
BRANCH  40  41
ATOM     41  C   UNL     1      -7.350  -8.196   7.682  1.00  0.00     0.146 C 
BRANCH  41  42
ATOM     42  N   UNL     1      -6.103  -7.823   7.026  1.00  0.00    -0.254 NA
ATOM     43  C   UNL     1      -6.042  -7.802   5.747  1.00  0.00     0.185 C 
ATOM     44  N   UNL     1      -6.988  -8.079   4.831  1.00  0.00    -0.370 N 
ATOM     45  N   UNL     1      -4.883  -7.460   5.162  1.00  0.00    -0.370 N 
ATOM     46  H   UNL     1      -6.737  -8.259   3.874  1.00  0.00     0.159 HD
ATOM     47  H   UNL     1      -7.931  -8.343   5.101  1.00  0.00     0.159 HD
ATOM     48  H   UNL     1      -4.119  -7.227   5.782  1.00  0.00     0.159 HD
ATOM     49  H   UNL     1      -4.819  -7.192   4.196  1.00  0.00     0.159 HD
ENDBRANCH  41  42
ENDBRANCH  40  41
ENDBRANCH  39  40
ENDBRANCH  38  39
ENDBRANCH  36  38
ENDBRANCH   5  34
BRANCH   8  50
ATOM     50  O   UNL     1      -6.276  -2.725   4.039  1.00  0.00    -0.245 OA
BRANCH  50  51
ATOM     51  S   UNL     1      -5.904  -4.245   3.594  1.00  0.00     0.397 S 
ATOM     52  O   UNL     1      -4.611  -4.571   4.153  1.00  0.00    -0.169 OA
ATOM     53  O   UNL     1      -6.188  -4.422   2.185  1.00  0.00    -0.169 OA
BRANCH  51  54
ATOM     54  O   UNL     1      -6.973  -5.110   4.428  1.00  0.00    -0.264 OA
ATOM     55  H   UNL     1      -7.701  -5.350   3.820  1.00  0.00     0.236 HD
ENDBRANCH  51  54
ENDBRANCH  50  51
ENDBRANCH   8  50
TORSDOF 19
ENDMDL
MODEL 14
REMARK VINA RESULT:    -8.191      2.081      3.169
REMARK INTER + INTRA:         -19.247
REMARK INTER:                 -15.780
REMARK INTRA:                  -3.467
REMARK UNBOUND:                -2.676
REMARK SMILES CC[C@@H](C)[C@@H](NC(=O)[C@@H](O)Cc1ccc(O)c(Cl)c1)C(=O)N1[C@H](C(=O)NCCCCN=C(N)N)C[C@H]2CC[C@H](OS(=O)(=O)O)C[C@@H]21
REMARK SMILES IDX 22 1 36 2 46 3 35 4 23 5 45 6 37 7 39 8 38 9 20 10 21 11
REMARK SMILES IDX 5 12 6 13 7 14 8 15 9 17 11 18 12 19 17 20 19 21 15 22 14 23
REMARK SMILES IDX 13 24 18 25 16 26 10 28 3 30 4 31 2 32 1 33 24 34 25 35
REMARK SMILES IDX 26 36 27 38 28 39 29 40 30 41 31 42 32 43 33 44 34 45 40 50
REMARK SMILES IDX 41 51 42 52 43 53 44 54
REMARK H PARENT 6 16 16 27 10 29 26 37 33 46 33 47 34 48 34 49 44 55
ROOT
ATOM      1  N   UNL     1      -4.027  -5.418   6.238  1.00  0.00    -0.326 N 
ATOM      2  C   UNL     1      -6.128  -6.329   5.691  1.00  0.00     0.014 C 
ATOM      3  C   UNL     1      -4.866  -6.587   6.520  1.00  0.00     0.091 C 
ATOM      4  C   UNL     1      -5.581  -5.626   4.458  1.00  0.00     0.041 C 
ATOM      5  C   UNL     1      -4.607  -4.635   5.120  1.00  0.00     0.175 C 
ATOM      6  C   UNL     1      -5.283  -6.848   7.966  1.00  0.00     0.059 C 
ATOM      7  C   UNL     1      -6.936  -7.601   5.525  1.00  0.00     0.008 C 
ATOM      8  C   UNL     1      -6.658  -7.537   8.102  1.00  0.00     0.143 C 
ATOM      9  C   UNL     1      -7.011  -8.377   6.857  1.00  0.00     0.034 C 
ENDROOT
BRANCH   1  10
ATOM     10  C   UNL     1      -2.757  -5.107   6.693  1.00  0.00     0.246 C 
ATOM     11  O   UNL     1      -1.780  -5.410   6.002  1.00  0.00    -0.272 OA
BRANCH  10  12
ATOM     12  C   UNL     1      -2.591  -4.346   8.041  1.00  0.00     0.174 C 
BRANCH  12  13
ATOM     13  N   UNL     1      -3.891  -3.864   8.506  1.00  0.00    -0.342 N 
ATOM     14  C   UNL     1      -4.310  -3.862   9.817  1.00  0.00     0.249 C 
ATOM     15  O   UNL     1      -3.620  -4.243  10.754  1.00  0.00    -0.272 OA
ATOM     16  H   UNL     1      -4.625  -3.665   7.831  1.00  0.00     0.164 HD
BRANCH  14  17
ATOM     17  C   UNL     1      -5.741  -3.307   9.984  1.00  0.00     0.207 C 
BRANCH  17  18
ATOM     18  C   UNL     1      -5.703  -1.909  10.610  1.00  0.00     0.077 C 
BRANCH  18  19
ATOM     19  C   UNL     1      -6.968  -1.132  10.327  1.00  0.00    -0.043 A 
ATOM     20  C   UNL     1      -8.363   0.130   8.795  1.00  0.00     0.083 A 
ATOM     21  C   UNL     1      -7.218  -0.629   9.041  1.00  0.00     0.028 A 
ATOM     22  C   UNL     1      -9.262   0.392   9.829  1.00  0.00     0.134 A 
ATOM     23  C   UNL     1      -9.027  -0.099  11.108  1.00  0.00     0.048 A 
ATOM     24  C   UNL     1      -7.881  -0.858  11.358  1.00  0.00     0.008 A 
ATOM     25  Cl  UNL     1      -8.653   0.739   7.208  1.00  0.00    -0.080 Cl
BRANCH  22  26
ATOM     26  O   UNL     1     -10.393   1.140   9.639  1.00  0.00    -0.506 OA
ATOM     27  H   UNL     1     -11.147   0.523   9.680  1.00  0.00     0.293 HD
ENDBRANCH  22  26
ENDBRANCH  18  19
ENDBRANCH  17  18
BRANCH  17  28
ATOM     28  O   UNL     1      -6.540  -4.174  10.804  1.00  0.00    -0.383 OA
ATOM     29  H   UNL     1      -6.074  -5.041  10.817  1.00  0.00     0.211 HD
ENDBRANCH  17  28
ENDBRANCH  14  17
ENDBRANCH  12  13
BRANCH  12  30
ATOM     30  C   UNL     1      -1.532  -3.212   7.962  1.00  0.00     0.018 C 
ATOM     31  C   UNL     1      -0.611  -3.239   9.192  1.00  0.00     0.010 C 
BRANCH  30  32
ATOM     32  C   UNL     1      -2.145  -1.801   7.787  1.00  0.00     0.002 C 
ATOM     33  C   UNL     1      -1.844  -0.817   8.910  1.00  0.00     0.004 C 
ENDBRANCH  30  32
ENDBRANCH  12  30
ENDBRANCH  10  12
ENDBRANCH   1  10
BRANCH   5  34
ATOM     34  C   UNL     1      -5.344  -3.377   5.652  1.00  0.00     0.242 C 
ATOM     35  O   UNL     1      -6.107  -3.421   6.617  1.00  0.00    -0.273 OA
ATOM     36  N   UNL     1      -5.126  -2.222   4.935  1.00  0.00    -0.354 N 
ATOM     37  H   UNL     1      -4.579  -2.274   4.075  1.00  0.00     0.163 HD
BRANCH  36  38
ATOM     38  C   UNL     1      -5.556  -0.924   5.411  1.00  0.00     0.116 C 
BRANCH  38  39
ATOM     39  C   UNL     1      -5.510   0.088   4.269  1.00  0.00     0.023 C 
BRANCH  39  40
ATOM     40  C   UNL     1      -6.640  -0.115   3.265  1.00  0.00     0.026 C 
BRANCH  40  41
ATOM     41  C   UNL     1      -6.099  -0.658   1.942  1.00  0.00     0.146 C 
BRANCH  41  42
ATOM     42  N   UNL     1      -5.362  -1.892   2.181  1.00  0.00    -0.254 NA
ATOM     43  C   UNL     1      -5.162  -2.707   1.215  1.00  0.00     0.185 C 
ATOM     44  N   UNL     1      -5.534  -2.627  -0.076  1.00  0.00    -0.370 N 
ATOM     45  N   UNL     1      -4.483  -3.841   1.457  1.00  0.00    -0.370 N 
ATOM     46  H   UNL     1      -5.524  -3.443  -0.663  1.00  0.00     0.159 HD
ATOM     47  H   UNL     1      -6.045  -1.827  -0.435  1.00  0.00     0.159 HD
ATOM     48  H   UNL     1      -4.158  -3.975   2.405  1.00  0.00     0.159 HD
ATOM     49  H   UNL     1      -4.086  -4.403   0.726  1.00  0.00     0.159 HD
ENDBRANCH  41  42
ENDBRANCH  40  41
ENDBRANCH  39  40
ENDBRANCH  38  39
ENDBRANCH  36  38
ENDBRANCH   5  34
BRANCH   8  50
ATOM     50  O   UNL     1      -7.680  -6.558   8.293  1.00  0.00    -0.245 OA
BRANCH  50  51
ATOM     51  S   UNL     1      -8.903  -6.864   9.320  1.00  0.00     0.397 S 
ATOM     52  O   UNL     1     -10.134  -6.865   8.561  1.00  0.00    -0.169 OA
ATOM     53  O   UNL     1      -8.748  -6.060  10.514  1.00  0.00    -0.169 OA
BRANCH  51  54
ATOM     54  O   UNL     1      -8.632  -8.399   9.717  1.00  0.00    -0.264 OA
ATOM     55  H   UNL     1      -8.961  -8.534  10.629  1.00  0.00     0.236 HD
ENDBRANCH  51  54
ENDBRANCH  50  51
ENDBRANCH   8  50
TORSDOF 19
ENDMDL
MODEL 15
REMARK VINA RESULT:    -8.179      3.008      7.946
REMARK INTER + INTRA:         -19.222
REMARK INTER:                 -15.332
REMARK INTRA:                  -3.890
REMARK UNBOUND:                -2.676
REMARK SMILES CC[C@@H](C)[C@@H](NC(=O)[C@@H](O)Cc1ccc(O)c(Cl)c1)C(=O)N1[C@H](C(=O)NCCCCN=C(N)N)C[C@H]2CC[C@H](OS(=O)(=O)O)C[C@@H]21
REMARK SMILES IDX 22 1 36 2 46 3 35 4 23 5 45 6 37 7 39 8 38 9 20 10 21 11
REMARK SMILES IDX 5 12 6 13 7 14 8 15 9 17 11 18 12 19 17 20 19 21 15 22 14 23
REMARK SMILES IDX 13 24 18 25 16 26 10 28 3 30 4 31 2 32 1 33 24 34 25 35
REMARK SMILES IDX 26 36 27 38 28 39 29 40 30 41 31 42 32 43 33 44 34 45 40 50
REMARK SMILES IDX 41 51 42 52 43 53 44 54
REMARK H PARENT 6 16 16 27 10 29 26 37 33 46 33 47 34 48 34 49 44 55
ROOT
ATOM      1  N   UNL     1      -5.505  -1.793   7.672  1.00  0.00    -0.326 N 
ATOM      2  C   UNL     1      -6.239  -0.512   9.506  1.00  0.00     0.014 C 
ATOM      3  C   UNL     1      -6.543  -0.826   8.038  1.00  0.00     0.091 C 
ATOM      4  C   UNL     1      -4.721  -0.582   9.555  1.00  0.00     0.041 C 
ATOM      5  C   UNL     1      -4.481  -1.868   8.743  1.00  0.00     0.175 C 
ATOM      6  C   UNL     1      -8.005  -1.256   7.929  1.00  0.00     0.059 C 
ATOM      7  C   UNL     1      -6.939   0.759   9.945  1.00  0.00     0.008 C 
ATOM      8  C   UNL     1      -8.931  -0.577   8.961  1.00  0.00     0.143 C 
ATOM      9  C   UNL     1      -8.388   0.793   9.414  1.00  0.00     0.034 C 
ENDROOT
BRANCH   1  10
ATOM     10  C   UNL     1      -5.263  -2.421   6.462  1.00  0.00     0.246 C 
ATOM     11  O   UNL     1      -4.796  -1.762   5.526  1.00  0.00    -0.272 OA
BRANCH  10  12
ATOM     12  C   UNL     1      -5.541  -3.945   6.319  1.00  0.00     0.174 C 
BRANCH  12  13
ATOM     13  N   UNL     1      -4.278  -4.674   6.206  1.00  0.00    -0.342 N 
ATOM     14  C   UNL     1      -3.942  -5.791   6.939  1.00  0.00     0.249 C 
ATOM     15  O   UNL     1      -4.686  -6.319   7.756  1.00  0.00    -0.272 OA
ATOM     16  H   UNL     1      -3.506  -4.266   5.686  1.00  0.00     0.164 HD
BRANCH  14  17
ATOM     17  C   UNL     1      -2.532  -6.321   6.604  1.00  0.00     0.207 C 
BRANCH  17  18
ATOM     18  C   UNL     1      -1.622  -5.174   6.152  1.00  0.00     0.077 C 
BRANCH  18  19
ATOM     19  C   UNL     1      -0.765  -4.657   7.286  1.00  0.00    -0.043 A 
ATOM     20  C   UNL     1      -0.322  -2.999   9.000  1.00  0.00     0.083 A 
ATOM     21  C   UNL     1      -1.141  -3.501   7.987  1.00  0.00     0.028 A 
ATOM     22  C   UNL     1       0.873  -3.645   9.316  1.00  0.00     0.134 A 
ATOM     23  C   UNL     1       1.257  -4.791   8.630  1.00  0.00     0.048 A 
ATOM     24  C   UNL     1       0.441  -5.295   7.614  1.00  0.00     0.008 A 
ATOM     25  Cl  UNL     1      -0.800  -1.576   9.850  1.00  0.00    -0.080 Cl
BRANCH  22  26
ATOM     26  O   UNL     1       1.713  -3.184  10.294  1.00  0.00    -0.506 OA
ATOM     27  H   UNL     1       2.491  -3.773  10.296  1.00  0.00     0.293 HD
ENDBRANCH  22  26
ENDBRANCH  18  19
ENDBRANCH  17  18
BRANCH  17  28
ATOM     28  O   UNL     1      -2.586  -7.320   5.573  1.00  0.00    -0.383 OA
ATOM     29  H   UNL     1      -1.909  -7.993   5.811  1.00  0.00     0.211 HD
ENDBRANCH  17  28
ENDBRANCH  14  17
ENDBRANCH  12  13
BRANCH  12  30
ATOM     30  C   UNL     1      -6.518  -4.270   5.157  1.00  0.00     0.018 C 
ATOM     31  C   UNL     1      -7.710  -5.100   5.661  1.00  0.00     0.010 C 
BRANCH  30  32
ATOM     32  C   UNL     1      -5.844  -4.981   3.958  1.00  0.00     0.002 C 
ATOM     33  C   UNL     1      -5.890  -4.219   2.640  1.00  0.00     0.004 C 
ENDBRANCH  30  32
ENDBRANCH  12  30
ENDBRANCH  10  12
ENDBRANCH   1  10
BRANCH   5  34
ATOM     34  C   UNL     1      -4.684  -3.139   9.611  1.00  0.00     0.242 C 
ATOM     35  O   UNL     1      -5.742  -3.768   9.619  1.00  0.00    -0.273 OA
ATOM     36  N   UNL     1      -3.616  -3.479  10.410  1.00  0.00    -0.354 N 
ATOM     37  H   UNL     1      -2.812  -2.851  10.450  1.00  0.00     0.163 HD
BRANCH  36  38
ATOM     38  C   UNL     1      -3.549  -4.743  11.115  1.00  0.00     0.116 C 
BRANCH  38  39
ATOM     39  C   UNL     1      -2.554  -5.671  10.423  1.00  0.00     0.023 C 
BRANCH  39  40
ATOM     40  C   UNL     1      -1.871  -6.625  11.397  1.00  0.00     0.026 C 
BRANCH  40  41
ATOM     41  C   UNL     1      -2.718  -7.880  11.610  1.00  0.00     0.146 C 
BRANCH  41  42
ATOM     42  N   UNL     1      -3.561  -8.109  10.443  1.00  0.00    -0.254 NA
ATOM     43  C   UNL     1      -4.777  -8.472  10.603  1.00  0.00     0.185 C 
ATOM     44  N   UNL     1      -5.473  -8.697  11.733  1.00  0.00    -0.370 N 
ATOM     45  N   UNL     1      -5.536  -8.683   9.515  1.00  0.00    -0.370 N 
ATOM     46  H   UNL     1      -6.337  -9.209  11.710  1.00  0.00     0.159 HD
ATOM     47  H   UNL     1      -5.054  -8.571  12.650  1.00  0.00     0.159 HD
ATOM     48  H   UNL     1      -5.091  -8.527   8.621  1.00  0.00     0.159 HD
ATOM     49  H   UNL     1      -6.539  -8.734   9.553  1.00  0.00     0.159 HD
ENDBRANCH  41  42
ENDBRANCH  40  41
ENDBRANCH  39  40
ENDBRANCH  38  39
ENDBRANCH  36  38
ENDBRANCH   5  34
BRANCH   8  50
ATOM     50  O   UNL     1      -9.077  -1.410  10.112  1.00  0.00    -0.245 OA
BRANCH  50  51
ATOM     51  S   UNL     1     -10.463  -1.368  10.963  1.00  0.00     0.397 S 
ATOM     52  O   UNL     1     -11.232  -0.231  10.508  1.00  0.00    -0.169 OA
ATOM     53  O   UNL     1     -10.177  -1.578  12.367  1.00  0.00    -0.169 OA
BRANCH  51  54
ATOM     54  O   UNL     1     -11.234  -2.667  10.413  1.00  0.00    -0.264 OA
ATOM     55  H   UNL     1     -11.269  -3.323  11.140  1.00  0.00     0.236 HD
ENDBRANCH  51  54
ENDBRANCH  50  51
ENDBRANCH   8  50
TORSDOF 19
ENDMDL
MODEL 16
REMARK VINA RESULT:    -8.159      3.405      5.870
REMARK INTER + INTRA:         -19.182
REMARK INTER:                 -16.476
REMARK INTRA:                  -2.706
REMARK UNBOUND:                -2.676
REMARK SMILES CC[C@@H](C)[C@@H](NC(=O)[C@@H](O)Cc1ccc(O)c(Cl)c1)C(=O)N1[C@H](C(=O)NCCCCN=C(N)N)C[C@H]2CC[C@H](OS(=O)(=O)O)C[C@@H]21
REMARK SMILES IDX 22 1 36 2 46 3 35 4 23 5 45 6 37 7 39 8 38 9 20 10 21 11
REMARK SMILES IDX 5 12 6 13 7 14 8 15 9 17 11 18 12 19 17 20 19 21 15 22 14 23
REMARK SMILES IDX 13 24 18 25 16 26 10 28 3 30 4 31 2 32 1 33 24 34 25 35
REMARK SMILES IDX 26 36 27 38 28 39 29 40 30 41 31 42 32 43 33 44 34 45 40 50
REMARK SMILES IDX 41 51 42 52 43 53 44 54
REMARK H PARENT 6 16 16 27 10 29 26 37 33 46 33 47 34 48 34 49 44 55
ROOT
ATOM      1  N   UNL     1      -4.463  -4.823   6.317  1.00  0.00    -0.326 N 
ATOM      2  C   UNL     1      -6.189  -6.309   5.722  1.00  0.00     0.014 C 
ATOM      3  C   UNL     1      -5.057  -6.097   6.732  1.00  0.00     0.091 C 
ATOM      4  C   UNL     1      -5.613  -5.716   4.445  1.00  0.00     0.041 C 
ATOM      5  C   UNL     1      -5.006  -4.414   4.998  1.00  0.00     0.175 C 
ATOM      6  C   UNL     1      -5.641  -6.199   8.140  1.00  0.00     0.059 C 
ATOM      7  C   UNL     1      -6.657  -7.751   5.727  1.00  0.00     0.008 C 
ATOM      8  C   UNL     1      -6.833  -7.175   8.249  1.00  0.00     0.143 C 
ATOM      9  C   UNL     1      -6.779  -8.278   7.172  1.00  0.00     0.034 C 
ENDROOT
BRANCH   1  10
ATOM     10  C   UNL     1      -3.387  -4.131   6.848  1.00  0.00     0.246 C 
ATOM     11  O   UNL     1      -3.033  -3.073   6.318  1.00  0.00    -0.272 OA
BRANCH  10  12
ATOM     12  C   UNL     1      -2.677  -4.676   8.121  1.00  0.00     0.174 C 
BRANCH  12  13
ATOM     13  N   UNL     1      -2.259  -3.564   8.974  1.00  0.00    -0.342 N 
ATOM     14  C   UNL     1      -2.886  -3.183  10.139  1.00  0.00     0.249 C 
ATOM     15  O   UNL     1      -3.860  -3.759  10.609  1.00  0.00    -0.272 OA
ATOM     16  H   UNL     1      -1.568  -2.901   8.634  1.00  0.00     0.164 HD
BRANCH  14  17
ATOM     17  C   UNL     1      -2.217  -1.961  10.803  1.00  0.00     0.207 C 
BRANCH  17  18
ATOM     18  C   UNL     1      -1.302  -2.407  11.947  1.00  0.00     0.077 C 
BRANCH  18  19
ATOM     19  C   UNL     1       0.150  -2.095  11.660  1.00  0.00    -0.043 A 
ATOM     20  C   UNL     1       2.184  -2.518  10.408  1.00  0.00     0.083 A 
ATOM     21  C   UNL     1       0.831  -2.773  10.637  1.00  0.00     0.028 A 
ATOM     22  C   UNL     1       2.863  -1.589  11.196  1.00  0.00     0.134 A 
ATOM     23  C   UNL     1       2.200  -0.910  12.212  1.00  0.00     0.048 A 
ATOM     24  C   UNL     1       0.847  -1.164  12.446  1.00  0.00     0.008 A 
ATOM     25  Cl  UNL     1       3.004  -3.362   9.147  1.00  0.00    -0.080 Cl
BRANCH  22  26
ATOM     26  O   UNL     1       4.191  -1.313  11.015  1.00  0.00    -0.506 OA
ATOM     27  H   UNL     1       4.462  -1.765  10.195  1.00  0.00     0.293 HD
ENDBRANCH  22  26
ENDBRANCH  18  19
ENDBRANCH  17  18
BRANCH  17  28
ATOM     28  O   UNL     1      -3.201  -1.044  11.309  1.00  0.00    -0.383 OA
ATOM     29  H   UNL     1      -3.120  -1.073  12.290  1.00  0.00     0.211 HD
ENDBRANCH  17  28
ENDBRANCH  14  17
ENDBRANCH  12  13
BRANCH  12  30
ATOM     30  C   UNL     1      -1.506  -5.640   7.788  1.00  0.00     0.018 C 
ATOM     31  C   UNL     1      -0.421  -5.577   8.875  1.00  0.00     0.010 C 
BRANCH  30  32
ATOM     32  C   UNL     1      -0.878  -5.397   6.394  1.00  0.00     0.002 C 
ATOM     33  C   UNL     1       0.359  -4.508   6.384  1.00  0.00     0.004 C 
ENDBRANCH  30  32
ENDBRANCH  12  30
ENDBRANCH  10  12
ENDBRANCH   1  10
BRANCH   5  34
ATOM     34  C   UNL     1      -6.081  -3.307   5.166  1.00  0.00     0.242 C 
ATOM     35  O   UNL     1      -7.237  -3.447   4.764  1.00  0.00    -0.273 OA
ATOM     36  N   UNL     1      -5.636  -2.141   5.745  1.00  0.00    -0.354 N 
ATOM     37  H   UNL     1      -4.640  -2.041   5.947  1.00  0.00     0.163 HD
BRANCH  36  38
ATOM     38  C   UNL     1      -6.542  -1.094   6.172  1.00  0.00     0.116 C 
BRANCH  38  39
ATOM     39  C   UNL     1      -6.037   0.260   5.679  1.00  0.00     0.023 C 
BRANCH  39  40
ATOM     40  C   UNL     1      -6.614   0.637   4.318  1.00  0.00     0.026 C 
BRANCH  40  41
ATOM     41  C   UNL     1      -5.505   0.751   3.272  1.00  0.00     0.146 C 
BRANCH  41  42
ATOM     42  N   UNL     1      -5.029  -0.578   2.912  1.00  0.00    -0.254 NA
ATOM     43  C   UNL     1      -5.684  -1.276   2.063  1.00  0.00     0.185 C 
ATOM     44  N   UNL     1      -6.814  -0.987   1.392  1.00  0.00    -0.370 N 
ATOM     45  N   UNL     1      -5.231  -2.501   1.747  1.00  0.00    -0.370 N 
ATOM     46  H   UNL     1      -7.347  -1.715   0.947  1.00  0.00     0.159 HD
ATOM     47  H   UNL     1      -7.284  -0.094   1.501  1.00  0.00     0.159 HD
ATOM     48  H   UNL     1      -4.377  -2.794   2.203  1.00  0.00     0.159 HD
ATOM     49  H   UNL     1      -5.541  -3.004   0.935  1.00  0.00     0.159 HD
ENDBRANCH  41  42
ENDBRANCH  40  41
ENDBRANCH  39  40
ENDBRANCH  38  39
ENDBRANCH  36  38
ENDBRANCH   5  34
BRANCH   8  50
ATOM     50  O   UNL     1      -8.063  -6.464   8.107  1.00  0.00    -0.245 OA
BRANCH  50  51
ATOM     51  S   UNL     1      -9.295  -6.781   9.121  1.00  0.00     0.397 S 
ATOM     52  O   UNL     1      -9.624  -5.559   9.820  1.00  0.00    -0.169 OA
ATOM     53  O   UNL     1      -9.035  -8.016   9.831  1.00  0.00    -0.169 OA
BRANCH  51  54
ATOM     54  O   UNL     1     -10.510  -7.042   8.101  1.00  0.00    -0.264 OA
ATOM     55  H   UNL     1     -10.979  -6.193   7.971  1.00  0.00     0.236 HD
ENDBRANCH  51  54
ENDBRANCH  50  51
ENDBRANCH   8  50
TORSDOF 19
ENDMDL
MODEL 17
REMARK VINA RESULT:    -8.115      3.693      6.842
REMARK INTER + INTRA:         -19.094
REMARK INTER:                 -14.715
REMARK INTRA:                  -4.379
REMARK UNBOUND:                -2.676
REMARK SMILES CC[C@@H](C)[C@@H](NC(=O)[C@@H](O)Cc1ccc(O)c(Cl)c1)C(=O)N1[C@H](C(=O)NCCCCN=C(N)N)C[C@H]2CC[C@H](OS(=O)(=O)O)C[C@@H]21
REMARK SMILES IDX 22 1 36 2 46 3 35 4 23 5 45 6 37 7 39 8 38 9 20 10 21 11
REMARK SMILES IDX 5 12 6 13 7 14 8 15 9 17 11 18 12 19 17 20 19 21 15 22 14 23
REMARK SMILES IDX 13 24 18 25 16 26 10 28 3 30 4 31 2 32 1 33 24 34 25 35
REMARK SMILES IDX 26 36 27 38 28 39 29 40 30 41 31 42 32 43 33 44 34 45 40 50
REMARK SMILES IDX 41 51 42 52 43 53 44 54
REMARK H PARENT 6 16 16 27 10 29 26 37 33 46 33 47 34 48 34 49 44 55
ROOT
ATOM      1  N   UNL     1      -2.191  -3.375   9.556  1.00  0.00    -0.326 N 
ATOM      2  C   UNL     1      -4.489  -2.877   9.676  1.00  0.00     0.014 C 
ATOM      3  C   UNL     1      -3.109  -2.234   9.504  1.00  0.00     0.091 C 
ATOM      4  C   UNL     1      -4.204  -4.030  10.626  1.00  0.00     0.041 C 
ATOM      5  C   UNL     1      -2.917  -4.592   9.994  1.00  0.00     0.175 C 
ATOM      6  C   UNL     1      -3.130  -1.377   8.239  1.00  0.00     0.059 C 
ATOM      7  C   UNL     1      -5.527  -1.839  10.057  1.00  0.00     0.008 C 
ATOM      8  C   UNL     1      -4.509  -0.751   7.936  1.00  0.00     0.143 C 
ATOM      9  C   UNL     1      -5.352  -0.559   9.213  1.00  0.00     0.034 C 
ENDROOT
BRANCH   1  10
ATOM     10  C   UNL     1      -0.809  -3.406   9.474  1.00  0.00     0.246 C 
ATOM     11  O   UNL     1      -0.276  -3.559   8.370  1.00  0.00    -0.272 OA
BRANCH  10  12
ATOM     12  C   UNL     1       0.041  -3.207  10.762  1.00  0.00     0.174 C 
BRANCH  12  13
ATOM     13  N   UNL     1      -0.067  -4.387  11.618  1.00  0.00    -0.342 N 
ATOM     14  C   UNL     1       0.710  -5.518  11.506  1.00  0.00     0.249 C 
ATOM     15  O   UNL     1       1.608  -5.650  10.683  1.00  0.00    -0.272 OA
ATOM     16  H   UNL     1      -0.865  -4.487  12.241  1.00  0.00     0.164 HD
BRANCH  14  17
ATOM     17  C   UNL     1       0.343  -6.599  12.545  1.00  0.00     0.207 C 
BRANCH  17  18
ATOM     18  C   UNL     1      -0.908  -6.187  13.327  1.00  0.00     0.077 C 
BRANCH  18  19
ATOM     19  C   UNL     1      -2.155  -6.844  12.779  1.00  0.00    -0.043 A 
ATOM     20  C   UNL     1      -4.543  -7.251  12.900  1.00  0.00     0.083 A 
ATOM     21  C   UNL     1      -3.402  -6.605  13.377  1.00  0.00     0.028 A 
ATOM     22  C   UNL     1      -4.446  -8.139  11.828  1.00  0.00     0.134 A 
ATOM     23  C   UNL     1      -3.217  -8.384  11.226  1.00  0.00     0.048 A 
ATOM     24  C   UNL     1      -2.073  -7.740  11.703  1.00  0.00     0.008 A 
ATOM     25  Cl  UNL     1      -6.067  -6.946  13.648  1.00  0.00    -0.080 Cl
BRANCH  22  26
ATOM     26  O   UNL     1      -5.535  -8.804  11.332  1.00  0.00    -0.506 OA
ATOM     27  H   UNL     1      -5.211  -9.371  10.608  1.00  0.00     0.293 HD
ENDBRANCH  22  26
ENDBRANCH  18  19
ENDBRANCH  17  18
BRANCH  17  28
ATOM     28  O   UNL     1       1.426  -6.824  13.462  1.00  0.00    -0.383 OA
ATOM     29  H   UNL     1       2.248  -6.817  12.920  1.00  0.00     0.211 HD
ENDBRANCH  17  28
ENDBRANCH  14  17
ENDBRANCH  12  13
BRANCH  12  30
ATOM     30  C   UNL     1      -0.311  -1.895  11.515  1.00  0.00     0.018 C 
ATOM     31  C   UNL     1       0.963  -1.188  12.005  1.00  0.00     0.010 C 
BRANCH  30  32
ATOM     32  C   UNL     1      -1.293  -2.099  12.694  1.00  0.00     0.002 C 
ATOM     33  C   UNL     1      -0.919  -1.381  13.985  1.00  0.00     0.004 C 
ENDBRANCH  30  32
ENDBRANCH  12  30
ENDBRANCH  10  12
ENDBRANCH   1  10
BRANCH   5  34
ATOM     34  C   UNL     1      -3.229  -5.512   8.784  1.00  0.00     0.242 C 
ATOM     35  O   UNL     1      -4.307  -6.094   8.660  1.00  0.00    -0.273 OA
ATOM     36  N   UNL     1      -2.195  -5.673   7.889  1.00  0.00    -0.354 N 
ATOM     37  H   UNL     1      -1.287  -5.262   8.108  1.00  0.00     0.163 HD
BRANCH  36  38
ATOM     38  C   UNL     1      -2.378  -6.316   6.604  1.00  0.00     0.116 C 
BRANCH  38  39
ATOM     39  C   UNL     1      -2.180  -5.298   5.483  1.00  0.00     0.023 C 
BRANCH  39  40
ATOM     40  C   UNL     1      -3.374  -4.363   5.328  1.00  0.00     0.026 C 
BRANCH  40  41
ATOM     41  C   UNL     1      -4.474  -5.021   4.494  1.00  0.00     0.146 C 
BRANCH  41  42
ATOM     42  N   UNL     1      -5.356  -3.998   3.948  1.00  0.00    -0.254 NA
ATOM     43  C   UNL     1      -5.148  -3.546   2.769  1.00  0.00     0.185 C 
ATOM     44  N   UNL     1      -4.194  -3.867   1.875  1.00  0.00    -0.370 N 
ATOM     45  N   UNL     1      -5.970  -2.601   2.285  1.00  0.00    -0.370 N 
ATOM     46  H   UNL     1      -4.002  -3.265   1.092  1.00  0.00     0.159 HD
ATOM     47  H   UNL     1      -3.495  -4.576   2.073  1.00  0.00     0.159 HD
ATOM     48  H   UNL     1      -6.723  -2.308   2.893  1.00  0.00     0.159 HD
ATOM     49  H   UNL     1      -6.021  -2.372   1.308  1.00  0.00     0.159 HD
ENDBRANCH  41  42
ENDBRANCH  40  41
ENDBRANCH  39  40
ENDBRANCH  38  39
ENDBRANCH  36  38
ENDBRANCH   5  34
BRANCH   8  50
ATOM     50  O   UNL     1      -5.237  -1.582   7.032  1.00  0.00    -0.245 OA
BRANCH  50  51
ATOM     51  S   UNL     1      -6.042  -0.907   5.791  1.00  0.00     0.397 S 
ATOM     52  O   UNL     1      -5.096  -0.660   4.726  1.00  0.00    -0.169 OA
ATOM     53  O   UNL     1      -6.915   0.136   6.288  1.00  0.00    -0.169 OA
BRANCH  51  54
ATOM     54  O   UNL     1      -6.962  -2.125   5.285  1.00  0.00    -0.264 OA
ATOM     55  H   UNL     1      -6.509  -2.959   5.522  1.00  0.00     0.236 HD
ENDBRANCH  51  54
ENDBRANCH  50  51
ENDBRANCH   8  50
TORSDOF 19
ENDMDL
MODEL 18
REMARK VINA RESULT:    -8.104      3.513      6.282
REMARK INTER + INTRA:         -19.070
REMARK INTER:                 -13.806
REMARK INTRA:                  -5.264
REMARK UNBOUND:                -2.676
REMARK SMILES CC[C@@H](C)[C@@H](NC(=O)[C@@H](O)Cc1ccc(O)c(Cl)c1)C(=O)N1[C@H](C(=O)NCCCCN=C(N)N)C[C@H]2CC[C@H](OS(=O)(=O)O)C[C@@H]21
REMARK SMILES IDX 22 1 36 2 46 3 35 4 23 5 45 6 37 7 39 8 38 9 20 10 21 11
REMARK SMILES IDX 5 12 6 13 7 14 8 15 9 17 11 18 12 19 17 20 19 21 15 22 14 23
REMARK SMILES IDX 13 24 18 25 16 26 10 28 3 30 4 31 2 32 1 33 24 34 25 35
REMARK SMILES IDX 26 36 27 38 28 39 29 40 30 41 31 42 32 43 33 44 34 45 40 50
REMARK SMILES IDX 41 51 42 52 43 53 44 54
REMARK H PARENT 6 16 16 27 10 29 26 37 33 46 33 47 34 48 34 49 44 55
ROOT
ATOM      1  N   UNL     1      -3.993  -4.488  10.815  1.00  0.00    -0.326 N 
ATOM      2  C   UNL     1      -6.259  -3.897  11.058  1.00  0.00     0.014 C 
ATOM      3  C   UNL     1      -4.843  -3.313  11.026  1.00  0.00     0.091 C 
ATOM      4  C   UNL     1      -6.049  -5.248  11.724  1.00  0.00     0.041 C 
ATOM      5  C   UNL     1      -4.792  -5.728  10.974  1.00  0.00     0.175 C 
ATOM      6  C   UNL     1      -4.805  -2.196   9.985  1.00  0.00     0.059 C 
ATOM      7  C   UNL     1      -7.237  -2.912  11.668  1.00  0.00     0.008 C 
ATOM      8  C   UNL     1      -6.143  -1.438   9.838  1.00  0.00     0.143 C 
ATOM      9  C   UNL     1      -6.982  -1.488  11.131  1.00  0.00     0.034 C 
ENDROOT
BRANCH   1  10
ATOM     10  C   UNL     1      -2.615  -4.581  10.720  1.00  0.00     0.246 C 
ATOM     11  O   UNL     1      -2.001  -5.270  11.542  1.00  0.00    -0.272 OA
BRANCH  10  12
ATOM     12  C   UNL     1      -1.876  -3.855   9.559  1.00  0.00     0.174 C 
BRANCH  12  13
ATOM     13  N   UNL     1      -2.463  -4.239   8.276  1.00  0.00    -0.342 N 
ATOM     14  C   UNL     1      -2.607  -3.404   7.191  1.00  0.00     0.249 C 
ATOM     15  O   UNL     1      -2.229  -2.239   7.172  1.00  0.00    -0.272 OA
ATOM     16  H   UNL     1      -2.961  -5.122   8.194  1.00  0.00     0.164 HD
BRANCH  14  17
ATOM     17  C   UNL     1      -3.280  -4.100   5.989  1.00  0.00     0.207 C 
BRANCH  17  18
ATOM     18  C   UNL     1      -4.688  -3.539   5.764  1.00  0.00     0.077 C 
BRANCH  18  19
ATOM     19  C   UNL     1      -4.953  -3.255   4.303  1.00  0.00    -0.043 A 
ATOM     20  C   UNL     1      -5.764  -1.772   2.563  1.00  0.00     0.083 A 
ATOM     21  C   UNL     1      -5.474  -2.013   3.906  1.00  0.00     0.028 A 
ATOM     22  C   UNL     1      -5.538  -2.766   1.610  1.00  0.00     0.134 A 
ATOM     23  C   UNL     1      -5.022  -4.000   1.989  1.00  0.00     0.048 A 
ATOM     24  C   UNL     1      -4.733  -4.246   3.333  1.00  0.00     0.008 A 
ATOM     25  Cl  UNL     1      -6.403  -0.240   2.094  1.00  0.00    -0.080 Cl
BRANCH  22  26
ATOM     26  O   UNL     1      -5.816  -2.580   0.283  1.00  0.00    -0.506 OA
ATOM     27  H   UNL     1      -6.291  -3.377  -0.018  1.00  0.00     0.293 HD
ENDBRANCH  22  26
ENDBRANCH  18  19
ENDBRANCH  17  18
BRANCH  17  28
ATOM     28  O   UNL     1      -3.359  -5.520   6.191  1.00  0.00    -0.383 OA
ATOM     29  H   UNL     1      -4.192  -5.811   5.754  1.00  0.00     0.211 HD
ENDBRANCH  17  28
ENDBRANCH  14  17
ENDBRANCH  12  13
BRANCH  12  30
ATOM     30  C   UNL     1      -0.339  -4.073   9.596  1.00  0.00     0.018 C 
ATOM     31  C   UNL     1       0.402  -2.729   9.662  1.00  0.00     0.010 C 
BRANCH  30  32
ATOM     32  C   UNL     1       0.197  -4.920   8.416  1.00  0.00     0.002 C 
ATOM     33  C   UNL     1       1.583  -4.536   7.917  1.00  0.00     0.004 C 
ENDBRANCH  30  32
ENDBRANCH  12  30
ENDBRANCH  10  12
ENDBRANCH   1  10
BRANCH   5  34
ATOM     34  C   UNL     1      -5.148  -6.335   9.591  1.00  0.00     0.242 C 
ATOM     35  O   UNL     1      -4.956  -5.728   8.537  1.00  0.00    -0.273 OA
ATOM     36  N   UNL     1      -5.744  -7.575   9.631  1.00  0.00    -0.354 N 
ATOM     37  H   UNL     1      -5.988  -7.975  10.538  1.00  0.00     0.163 HD
BRANCH  36  38
ATOM     38  C   UNL     1      -5.945  -8.376   8.440  1.00  0.00     0.116 C 
BRANCH  38  39
ATOM     39  C   UNL     1      -7.365  -8.178   7.916  1.00  0.00     0.023 C 
BRANCH  39  40
ATOM     40  C   UNL     1      -7.409  -8.018   6.400  1.00  0.00     0.026 C 
BRANCH  40  41
ATOM     41  C   UNL     1      -6.696  -6.736   5.970  1.00  0.00     0.146 C 
BRANCH  41  42
ATOM     42  N   UNL     1      -7.678  -5.742   5.554  1.00  0.00    -0.254 NA
ATOM     43  C   UNL     1      -8.044  -4.832   6.375  1.00  0.00     0.185 C 
ATOM     44  N   UNL     1      -7.661  -4.607   7.645  1.00  0.00    -0.370 N 
ATOM     45  N   UNL     1      -8.954  -3.928   5.974  1.00  0.00    -0.370 N 
ATOM     46  H   UNL     1      -8.204  -4.013   8.248  1.00  0.00     0.159 HD
ATOM     47  H   UNL     1      -6.967  -5.189   8.104  1.00  0.00     0.159 HD
ATOM     48  H   UNL     1      -9.289  -4.021   5.025  1.00  0.00     0.159 HD
ATOM     49  H   UNL     1      -9.112  -3.063   6.460  1.00  0.00     0.159 HD
ENDBRANCH  41  42
ENDBRANCH  40  41
ENDBRANCH  39  40
ENDBRANCH  38  39
ENDBRANCH  36  38
ENDBRANCH   5  34
BRANCH   8  50
ATOM     50  O   UNL     1      -6.912  -2.002   8.775  1.00  0.00    -0.245 OA
BRANCH  50  51
ATOM     51  S   UNL     1      -8.072  -1.112   8.064  1.00  0.00     0.397 S 
ATOM     52  O   UNL     1      -7.934   0.251   8.523  1.00  0.00    -0.169 OA
ATOM     53  O   UNL     1      -9.337  -1.814   8.138  1.00  0.00    -0.169 OA
BRANCH  51  54
ATOM     54  O   UNL     1      -7.597  -1.107   6.528  1.00  0.00    -0.264 OA
ATOM     55  H   UNL     1      -6.619  -1.061   6.518  1.00  0.00     0.236 HD
ENDBRANCH  51  54
ENDBRANCH  50  51
ENDBRANCH   8  50
TORSDOF 19
ENDMDL
MODEL 19
REMARK VINA RESULT:    -8.087      3.039      6.988
REMARK INTER + INTRA:         -19.036
REMARK INTER:                 -14.860
REMARK INTRA:                  -4.176
REMARK UNBOUND:                -2.676
REMARK SMILES CC[C@@H](C)[C@@H](NC(=O)[C@@H](O)Cc1ccc(O)c(Cl)c1)C(=O)N1[C@H](C(=O)NCCCCN=C(N)N)C[C@H]2CC[C@H](OS(=O)(=O)O)C[C@@H]21
REMARK SMILES IDX 22 1 36 2 46 3 35 4 23 5 45 6 37 7 39 8 38 9 20 10 21 11
REMARK SMILES IDX 5 12 6 13 7 14 8 15 9 17 11 18 12 19 17 20 19 21 15 22 14 23
REMARK SMILES IDX 13 24 18 25 16 26 10 28 3 30 4 31 2 32 1 33 24 34 25 35
REMARK SMILES IDX 26 36 27 38 28 39 29 40 30 41 31 42 32 43 33 44 34 45 40 50
REMARK SMILES IDX 41 51 42 52 43 53 44 54
REMARK H PARENT 6 16 16 27 10 29 26 37 33 46 33 47 34 48 34 49 44 55
ROOT
ATOM      1  N   UNL     1      -6.740  -3.015   7.542  1.00  0.00    -0.326 N 
ATOM      2  C   UNL     1      -6.028  -1.899   9.489  1.00  0.00     0.014 C 
ATOM      3  C   UNL     1      -6.594  -1.662   8.086  1.00  0.00     0.091 C 
ATOM      4  C   UNL     1      -5.140  -3.117   9.290  1.00  0.00     0.041 C 
ATOM      5  C   UNL     1      -6.069  -3.995   8.431  1.00  0.00     0.175 C 
ATOM      6  C   UNL     1      -7.844  -0.792   8.210  1.00  0.00     0.059 C 
ATOM      7  C   UNL     1      -5.429  -0.627  10.054  1.00  0.00     0.008 C 
ATOM      8  C   UNL     1      -7.793   0.205   9.388  1.00  0.00     0.143 C 
ATOM      9  C   UNL     1      -6.346   0.581   9.766  1.00  0.00     0.034 C 
ENDROOT
BRANCH   1  10
ATOM     10  C   UNL     1      -7.190  -3.428   6.299  1.00  0.00     0.246 C 
ATOM     11  O   UNL     1      -8.379  -3.736   6.162  1.00  0.00    -0.272 OA
BRANCH  10  12
ATOM     12  C   UNL     1      -6.202  -3.456   5.097  1.00  0.00     0.174 C 
BRANCH  12  13
ATOM     13  N   UNL     1      -4.840  -3.689   5.575  1.00  0.00    -0.342 N 
ATOM     14  C   UNL     1      -4.157  -4.880   5.465  1.00  0.00     0.249 C 
ATOM     15  O   UNL     1      -4.611  -5.879   4.921  1.00  0.00    -0.272 OA
ATOM     16  H   UNL     1      -4.396  -3.006   6.183  1.00  0.00     0.164 HD
BRANCH  14  17
ATOM     17  C   UNL     1      -2.744  -4.815   6.082  1.00  0.00     0.207 C 
BRANCH  17  18
ATOM     18  C   UNL     1      -2.432  -3.392   6.559  1.00  0.00     0.077 C 
BRANCH  18  19
ATOM     19  C   UNL     1      -1.722  -3.390   7.894  1.00  0.00    -0.043 A 
ATOM     20  C   UNL     1      -0.629  -4.591   9.696  1.00  0.00     0.083 A 
ATOM     21  C   UNL     1      -1.241  -4.590   8.442  1.00  0.00     0.028 A 
ATOM     22  C   UNL     1      -0.496  -3.400  10.409  1.00  0.00     0.134 A 
ATOM     23  C   UNL     1      -0.967  -2.205   9.878  1.00  0.00     0.048 A 
ATOM     24  C   UNL     1      -1.581  -2.200   8.624  1.00  0.00     0.008 A 
ATOM     25  Cl  UNL     1      -0.045  -6.075  10.353  1.00  0.00    -0.080 Cl
BRANCH  22  26
ATOM     26  O   UNL     1       0.087  -3.353  11.647  1.00  0.00    -0.506 OA
ATOM     27  H   UNL     1       1.032  -3.557  11.519  1.00  0.00     0.293 HD
ENDBRANCH  22  26
ENDBRANCH  18  19
ENDBRANCH  17  18
BRANCH  17  28
ATOM     28  O   UNL     1      -1.746  -5.229   5.135  1.00  0.00    -0.383 OA
ATOM     29  H   UNL     1      -0.908  -5.317   5.644  1.00  0.00     0.211 HD
ENDBRANCH  17  28
ENDBRANCH  14  17
ENDBRANCH  12  13
BRANCH  12  30
ATOM     30  C   UNL     1      -6.308  -2.190   4.205  1.00  0.00     0.018 C 
ATOM     31  C   UNL     1      -5.868  -2.498   2.765  1.00  0.00     0.010 C 
BRANCH  30  32
ATOM     32  C   UNL     1      -5.520  -0.976   4.753  1.00  0.00     0.002 C 
ATOM     33  C   UNL     1      -6.335   0.296   4.947  1.00  0.00     0.004 C 
ENDBRANCH  30  32
ENDBRANCH  12  30
ENDBRANCH  10  12
ENDBRANCH   1  10
BRANCH   5  34
ATOM     34  C   UNL     1      -7.108  -4.750   9.301  1.00  0.00     0.242 C 
ATOM     35  O   UNL     1      -8.313  -4.506   9.248  1.00  0.00    -0.273 OA
ATOM     36  N   UNL     1      -6.579  -5.674  10.175  1.00  0.00    -0.354 N 
ATOM     37  H   UNL     1      -5.565  -5.746  10.259  1.00  0.00     0.163 HD
BRANCH  36  38
ATOM     38  C   UNL     1      -7.408  -6.614  10.901  1.00  0.00     0.116 C 
BRANCH  38  39
ATOM     39  C   UNL     1      -7.025  -8.043  10.522  1.00  0.00     0.023 C 
BRANCH  39  40
ATOM     40  C   UNL     1      -7.735  -8.521   9.261  1.00  0.00     0.026 C 
BRANCH  40  41
ATOM     41  C   UNL     1      -6.818  -8.402   8.044  1.00  0.00     0.146 C 
BRANCH  41  42
ATOM     42  N   UNL     1      -7.275  -7.315   7.187  1.00  0.00    -0.254 NA
ATOM     43  C   UNL     1      -7.384  -7.507   5.926  1.00  0.00     0.185 C 
ATOM     44  N   UNL     1      -7.137  -8.608   5.193  1.00  0.00    -0.370 N 
ATOM     45  N   UNL     1      -7.803  -6.491   5.153  1.00  0.00    -0.370 N 
ATOM     46  H   UNL     1      -7.030  -8.546   4.195  1.00  0.00     0.159 HD
ATOM     47  H   UNL     1      -6.825  -9.474   5.621  1.00  0.00     0.159 HD
ATOM     48  H   UNL     1      -8.020  -5.626   5.629  1.00  0.00     0.159 HD
ATOM     49  H   UNL     1      -8.137  -6.623   4.215  1.00  0.00     0.159 HD
ENDBRANCH  41  42
ENDBRANCH  40  41
ENDBRANCH  39  40
ENDBRANCH  38  39
ENDBRANCH  36  38
ENDBRANCH   5  34
BRANCH   8  50
ATOM     50  O   UNL     1      -8.429  -0.360  10.535  1.00  0.00    -0.245 OA
BRANCH  50  51
ATOM     51  S   UNL     1     -10.031  -0.168  10.740  1.00  0.00     0.397 S 
ATOM     52  O   UNL     1     -10.256   0.292  12.092  1.00  0.00    -0.169 OA
ATOM     53  O   UNL     1     -10.731  -1.317  10.203  1.00  0.00    -0.169 OA
BRANCH  51  54
ATOM     54  O   UNL     1     -10.343   1.091   9.791  1.00  0.00    -0.264 OA
ATOM     55  H   UNL     1      -9.775   1.834  10.084  1.00  0.00     0.236 HD
ENDBRANCH  51  54
ENDBRANCH  50  51
ENDBRANCH   8  50
TORSDOF 19
ENDMDL
MODEL 20
REMARK VINA RESULT:    -8.080      3.882      7.218
REMARK INTER + INTRA:         -19.022
REMARK INTER:                 -15.213
REMARK INTRA:                  -3.809
REMARK UNBOUND:                -2.676
REMARK SMILES CC[C@@H](C)[C@@H](NC(=O)[C@@H](O)Cc1ccc(O)c(Cl)c1)C(=O)N1[C@H](C(=O)NCCCCN=C(N)N)C[C@H]2CC[C@H](OS(=O)(=O)O)C[C@@H]21
REMARK SMILES IDX 22 1 36 2 46 3 35 4 23 5 45 6 37 7 39 8 38 9 20 10 21 11
REMARK SMILES IDX 5 12 6 13 7 14 8 15 9 17 11 18 12 19 17 20 19 21 15 22 14 23
REMARK SMILES IDX 13 24 18 25 16 26 10 28 3 30 4 31 2 32 1 33 24 34 25 35
REMARK SMILES IDX 26 36 27 38 28 39 29 40 30 41 31 42 32 43 33 44 34 45 40 50
REMARK SMILES IDX 41 51 42 52 43 53 44 54
REMARK H PARENT 6 16 16 27 10 29 26 37 33 46 33 47 34 48 34 49 44 55
ROOT
ATOM      1  N   UNL     1      -1.822  -3.448   7.585  1.00  0.00    -0.326 N 
ATOM      2  C   UNL     1       0.127  -4.730   7.896  1.00  0.00     0.014 C 
ATOM      3  C   UNL     1      -0.654  -3.543   8.466  1.00  0.00     0.091 C 
ATOM      4  C   UNL     1      -0.129  -4.614   6.402  1.00  0.00     0.041 C 
ATOM      5  C   UNL     1      -1.642  -4.331   6.406  1.00  0.00     0.175 C 
ATOM      6  C   UNL     1      -0.888  -3.789   9.955  1.00  0.00     0.059 C 
ATOM      7  C   UNL     1       1.555  -4.735   8.408  1.00  0.00     0.008 C 
ATOM      8  C   UNL     1       0.241  -4.590  10.638  1.00  0.00     0.143 C 
ATOM      9  C   UNL     1       1.593  -4.415   9.917  1.00  0.00     0.034 C 
ENDROOT
BRANCH   1  10
ATOM     10  C   UNL     1      -2.874  -2.549   7.600  1.00  0.00     0.246 C 
ATOM     11  O   UNL     1      -2.906  -1.646   6.757  1.00  0.00    -0.272 OA
BRANCH  10  12
ATOM     12  C   UNL     1      -4.013  -2.717   8.648  1.00  0.00     0.174 C 
BRANCH  12  13
ATOM     13  N   UNL     1      -5.210  -3.254   8.002  1.00  0.00    -0.342 N 
ATOM     14  C   UNL     1      -6.097  -4.131   8.585  1.00  0.00     0.249 C 
ATOM     15  O   UNL     1      -5.994  -4.542   9.734  1.00  0.00    -0.272 OA
ATOM     16  H   UNL     1      -5.342  -3.127   7.002  1.00  0.00     0.164 HD
BRANCH  14  17
ATOM     17  C   UNL     1      -7.251  -4.527   7.640  1.00  0.00     0.207 C 
BRANCH  17  18
ATOM     18  C   UNL     1      -7.540  -3.398   6.645  1.00  0.00     0.077 C 
BRANCH  18  19
ATOM     19  C   UNL     1      -6.919  -3.670   5.293  1.00  0.00    -0.043 A 
ATOM     20  C   UNL     1      -5.980  -2.857   3.209  1.00  0.00     0.083 A 
ATOM     21  C   UNL     1      -6.506  -2.605   4.476  1.00  0.00     0.028 A 
ATOM     22  C   UNL     1      -5.865  -4.169   2.749  1.00  0.00     0.134 A 
ATOM     23  C   UNL     1      -6.270  -5.233   3.547  1.00  0.00     0.048 A 
ATOM     24  C   UNL     1      -6.799  -4.984   4.815  1.00  0.00     0.008 A 
ATOM     25  Cl  UNL     1      -5.478  -1.536   2.221  1.00  0.00    -0.080 Cl
BRANCH  22  26
ATOM     26  O   UNL     1      -5.365  -4.465   1.510  1.00  0.00    -0.506 OA
ATOM     27  H   UNL     1      -4.398  -4.542   1.609  1.00  0.00     0.293 HD
ENDBRANCH  22  26
ENDBRANCH  18  19
ENDBRANCH  17  18
BRANCH  17  28
ATOM     28  O   UNL     1      -8.446  -4.827   8.380  1.00  0.00    -0.383 OA
ATOM     29  H   UNL     1      -8.226  -4.671   9.326  1.00  0.00     0.211 HD
ENDBRANCH  17  28
ENDBRANCH  14  17
ENDBRANCH  12  13
BRANCH  12  30
ATOM     30  C   UNL     1      -4.300  -1.411   9.437  1.00  0.00     0.018 C 
ATOM     31  C   UNL     1      -4.452  -1.702  10.938  1.00  0.00     0.010 C 
BRANCH  30  32
ATOM     32  C   UNL     1      -5.533  -0.631   8.919  1.00  0.00     0.002 C 
ATOM     33  C   UNL     1      -6.625  -0.380   9.951  1.00  0.00     0.004 C 
ENDBRANCH  30  32
ENDBRANCH  12  30
ENDBRANCH  10  12
ENDBRANCH   1  10
BRANCH   5  34
ATOM     34  C   UNL     1      -2.468  -5.635   6.564  1.00  0.00     0.242 C 
ATOM     35  O   UNL     1      -2.642  -6.421   5.633  1.00  0.00    -0.273 OA
ATOM     36  N   UNL     1      -3.036  -5.822   7.805  1.00  0.00    -0.354 N 
ATOM     37  H   UNL     1      -2.956  -5.078   8.499  1.00  0.00     0.163 HD
BRANCH  36  38
ATOM     38  C   UNL     1      -3.652  -7.074   8.192  1.00  0.00     0.116 C 
BRANCH  38  39
ATOM     39  C   UNL     1      -3.772  -7.144   9.713  1.00  0.00     0.023 C 
BRANCH  39  40
ATOM     40  C   UNL     1      -4.228  -8.516  10.199  1.00  0.00     0.026 C 
BRANCH  40  41
ATOM     41  C   UNL     1      -5.446  -8.390  11.114  1.00  0.00     0.146 C 
BRANCH  41  42
ATOM     42  N   UNL     1      -6.667  -8.509  10.327  1.00  0.00    -0.254 NA
ATOM     43  C   UNL     1      -7.549  -7.583  10.384  1.00  0.00     0.185 C 
ATOM     44  N   UNL     1      -7.557  -6.436  11.088  1.00  0.00    -0.370 N 
ATOM     45  N   UNL     1      -8.669  -7.714   9.654  1.00  0.00    -0.370 N 
ATOM     46  H   UNL     1      -8.412  -5.926  11.227  1.00  0.00     0.159 HD
ATOM     47  H   UNL     1      -6.778  -6.172  11.684  1.00  0.00     0.159 HD
ATOM     48  H   UNL     1      -8.740  -8.548   9.087  1.00  0.00     0.159 HD
ATOM     49  H   UNL     1      -9.285  -6.944   9.460  1.00  0.00     0.159 HD
ENDBRANCH  41  42
ENDBRANCH  40  41
ENDBRANCH  39  40
ENDBRANCH  38  39
ENDBRANCH  36  38
ENDBRANCH   5  34
BRANCH   8  50
ATOM     50  O   UNL     1      -0.086  -5.980  10.657  1.00  0.00    -0.245 OA
BRANCH  50  51
ATOM     51  S   UNL     1      -0.122  -6.777  12.074  1.00  0.00     0.397 S 
ATOM     52  O   UNL     1      -1.449  -6.638  12.631  1.00  0.00    -0.169 OA
ATOM     53  O   UNL     1       1.062  -6.455  12.843  1.00  0.00    -0.169 OA
BRANCH  51  54
ATOM     54  O   UNL     1      -0.004  -8.309  11.601  1.00  0.00    -0.264 OA
ATOM     55  H   UNL     1      -0.747  -8.490  10.988  1.00  0.00     0.236 HD
ENDBRANCH  51  54
ENDBRANCH  50  51
ENDBRANCH   8  50
TORSDOF 19
ENDMDL
MODEL 21
REMARK VINA RESULT:    -8.066      2.924      4.402
REMARK INTER + INTRA:         -18.994
REMARK INTER:                 -14.140
REMARK INTRA:                  -4.854
REMARK UNBOUND:                -2.676
REMARK SMILES CC[C@@H](C)[C@@H](NC(=O)[C@@H](O)Cc1ccc(O)c(Cl)c1)C(=O)N1[C@H](C(=O)NCCCCN=C(N)N)C[C@H]2CC[C@H](OS(=O)(=O)O)C[C@@H]21
REMARK SMILES IDX 22 1 36 2 46 3 35 4 23 5 45 6 37 7 39 8 38 9 20 10 21 11
REMARK SMILES IDX 5 12 6 13 7 14 8 15 9 17 11 18 12 19 17 20 19 21 15 22 14 23
REMARK SMILES IDX 13 24 18 25 16 26 10 28 3 30 4 31 2 32 1 33 24 34 25 35
REMARK SMILES IDX 26 36 27 38 28 39 29 40 30 41 31 42 32 43 33 44 34 45 40 50
REMARK SMILES IDX 41 51 42 52 43 53 44 54
REMARK H PARENT 6 16 16 27 10 29 26 37 33 46 33 47 34 48 34 49 44 55
ROOT
ATOM      1  N   UNL     1      -2.313  -5.500   7.631  1.00  0.00    -0.326 N 
ATOM      2  C   UNL     1      -4.250  -6.837   7.650  1.00  0.00     0.014 C 
ATOM      3  C   UNL     1      -3.198  -6.202   8.564  1.00  0.00     0.091 C 
ATOM      4  C   UNL     1      -3.447  -7.186   6.407  1.00  0.00     0.041 C 
ATOM      5  C   UNL     1      -2.633  -5.890   6.235  1.00  0.00     0.175 C 
ATOM      6  C   UNL     1      -3.919  -5.383   9.634  1.00  0.00     0.059 C 
ATOM      7  C   UNL     1      -5.010  -7.930   8.376  1.00  0.00     0.008 C 
ATOM      8  C   UNL     1      -5.294  -5.959  10.035  1.00  0.00     0.143 C 
ATOM      9  C   UNL     1      -5.374  -7.482   9.807  1.00  0.00     0.034 C 
ENDROOT
BRANCH   1  10
ATOM     10  C   UNL     1      -1.170  -4.759   7.878  1.00  0.00     0.246 C 
ATOM     11  O   UNL     1      -0.593  -4.209   6.934  1.00  0.00    -0.272 OA
BRANCH  10  12
ATOM     12  C   UNL     1      -0.661  -4.600   9.341  1.00  0.00     0.174 C 
BRANCH  12  13
ATOM     13  N   UNL     1      -0.771  -3.202   9.757  1.00  0.00    -0.342 N 
ATOM     14  C   UNL     1      -1.390  -2.767  10.907  1.00  0.00     0.249 C 
ATOM     15  O   UNL     1      -1.899  -3.515  11.733  1.00  0.00    -0.272 OA
ATOM     16  H   UNL     1      -0.535  -2.461   9.102  1.00  0.00     0.164 HD
BRANCH  14  17
ATOM     17  C   UNL     1      -1.355  -1.231  11.057  1.00  0.00     0.207 C 
BRANCH  17  18
ATOM     18  C   UNL     1      -1.602  -0.555   9.705  1.00  0.00     0.077 C 
BRANCH  18  19
ATOM     19  C   UNL     1      -3.067  -0.569   9.329  1.00  0.00    -0.043 A 
ATOM     20  C   UNL     1      -4.803  -0.572   7.634  1.00  0.00     0.083 A 
ATOM     21  C   UNL     1      -3.451  -0.609   7.979  1.00  0.00     0.028 A 
ATOM     22  C   UNL     1      -5.776  -0.493   8.631  1.00  0.00     0.134 A 
ATOM     23  C   UNL     1      -5.409  -0.453   9.971  1.00  0.00     0.048 A 
ATOM     24  C   UNL     1      -4.057  -0.488  10.320  1.00  0.00     0.008 A 
ATOM     25  Cl  UNL     1      -5.255  -0.622   5.971  1.00  0.00    -0.080 Cl
BRANCH  22  26
ATOM     26  O   UNL     1      -7.113  -0.444   8.341  1.00  0.00    -0.506 OA
ATOM     27  H   UNL     1      -7.496   0.252   8.906  1.00  0.00     0.293 HD
ENDBRANCH  22  26
ENDBRANCH  18  19
ENDBRANCH  17  18
BRANCH  17  28
ATOM     28  O   UNL     1      -0.094  -0.791  11.587  1.00  0.00    -0.383 OA
ATOM     29  H   UNL     1      -0.283  -0.452  12.491  1.00  0.00     0.211 HD
ENDBRANCH  17  28
ENDBRANCH  14  17
ENDBRANCH  12  13
BRANCH  12  30
ATOM     30  C   UNL     1       0.770  -5.168   9.543  1.00  0.00     0.018 C 
ATOM     31  C   UNL     1       0.841  -6.026  10.816  1.00  0.00     0.010 C 
BRANCH  30  32
ATOM     32  C   UNL     1       1.872  -4.080   9.572  1.00  0.00     0.002 C 
ATOM     33  C   UNL     1       2.458  -3.784  10.946  1.00  0.00     0.004 C 
ENDBRANCH  30  32
ENDBRANCH  12  30
ENDBRANCH  10  12
ENDBRANCH   1  10
BRANCH   5  34
ATOM     34  C   UNL     1      -3.462  -4.783   5.531  1.00  0.00     0.242 C 
ATOM     35  O   UNL     1      -3.577  -3.650   5.997  1.00  0.00    -0.273 OA
ATOM     36  N   UNL     1      -4.102  -5.176   4.377  1.00  0.00    -0.354 N 
ATOM     37  H   UNL     1      -4.066  -6.160   4.105  1.00  0.00     0.163 HD
BRANCH  36  38
ATOM     38  C   UNL     1      -4.735  -4.229   3.483  1.00  0.00     0.116 C 
BRANCH  38  39
ATOM     39  C   UNL     1      -6.241  -4.481   3.443  1.00  0.00     0.023 C 
BRANCH  39  40
ATOM     40  C   UNL     1      -6.606  -5.899   3.867  1.00  0.00     0.026 C 
BRANCH  40  41
ATOM     41  C   UNL     1      -7.112  -5.920   5.309  1.00  0.00     0.146 C 
BRANCH  41  42
ATOM     42  N   UNL     1      -7.915  -4.732   5.567  1.00  0.00    -0.254 NA
ATOM     43  C   UNL     1      -7.456  -3.811   6.328  1.00  0.00     0.185 C 
ATOM     44  N   UNL     1      -6.282  -3.732   6.980  1.00  0.00    -0.370 N 
ATOM     45  N   UNL     1      -8.214  -2.725   6.556  1.00  0.00    -0.370 N 
ATOM     46  H   UNL     1      -6.155  -3.073   7.729  1.00  0.00     0.159 HD
ATOM     47  H   UNL     1      -5.581  -4.463   6.907  1.00  0.00     0.159 HD
ATOM     48  H   UNL     1      -9.113  -2.701   6.094  1.00  0.00     0.159 HD
ATOM     49  H   UNL     1      -7.842  -1.872   6.935  1.00  0.00     0.159 HD
ENDBRANCH  41  42
ENDBRANCH  40  41
ENDBRANCH  39  40
ENDBRANCH  38  39
ENDBRANCH  36  38
ENDBRANCH   5  34
BRANCH   8  50
ATOM     50  O   UNL     1      -6.328  -5.332   9.276  1.00  0.00    -0.245 OA
BRANCH  50  51
ATOM     51  S   UNL     1      -7.599  -4.669  10.045  1.00  0.00     0.397 S 
ATOM     52  O   UNL     1      -7.613  -3.254   9.746  1.00  0.00    -0.169 OA
ATOM     53  O   UNL     1      -7.652  -5.158  11.407  1.00  0.00    -0.169 OA
BRANCH  51  54
ATOM     54  O   UNL     1      -8.842  -5.298   9.243  1.00  0.00    -0.264 OA
ATOM     55  H   UNL     1      -9.649  -4.815   9.515  1.00  0.00     0.236 HD
ENDBRANCH  51  54
ENDBRANCH  50  51
ENDBRANCH   8  50
TORSDOF 19
ENDMDL
MODEL 22
REMARK VINA RESULT:    -8.035      3.303      7.026
REMARK INTER + INTRA:         -18.930
REMARK INTER:                 -13.868
REMARK INTRA:                  -5.063
REMARK UNBOUND:                -2.676
REMARK SMILES CC[C@@H](C)[C@@H](NC(=O)[C@@H](O)Cc1ccc(O)c(Cl)c1)C(=O)N1[C@H](C(=O)NCCCCN=C(N)N)C[C@H]2CC[C@H](OS(=O)(=O)O)C[C@@H]21
REMARK SMILES IDX 22 1 36 2 46 3 35 4 23 5 45 6 37 7 39 8 38 9 20 10 21 11
REMARK SMILES IDX 5 12 6 13 7 14 8 15 9 17 11 18 12 19 17 20 19 21 15 22 14 23
REMARK SMILES IDX 13 24 18 25 16 26 10 28 3 30 4 31 2 32 1 33 24 34 25 35
REMARK SMILES IDX 26 36 27 38 28 39 29 40 30 41 31 42 32 43 33 44 34 45 40 50
REMARK SMILES IDX 41 51 42 52 43 53 44 54
REMARK H PARENT 6 16 16 27 10 29 26 37 33 46 33 47 34 48 34 49 44 55
ROOT
ATOM      1  N   UNL     1      -6.337  -5.731   6.592  1.00  0.00    -0.326 N 
ATOM      2  C   UNL     1      -4.935  -4.869   4.908  1.00  0.00     0.014 C 
ATOM      3  C   UNL     1      -6.406  -5.057   5.292  1.00  0.00     0.091 C 
ATOM      4  C   UNL     1      -4.278  -6.117   5.478  1.00  0.00     0.041 C 
ATOM      5  C   UNL     1      -4.945  -6.167   6.865  1.00  0.00     0.175 C 
ATOM      6  C   UNL     1      -7.102  -3.699   5.217  1.00  0.00     0.059 C 
ATOM      7  C   UNL     1      -4.796  -4.564   3.430  1.00  0.00     0.008 C 
ATOM      8  C   UNL     1      -6.521  -2.763   4.135  1.00  0.00     0.143 C 
ATOM      9  C   UNL     1      -5.866  -3.547   2.981  1.00  0.00     0.034 C 
ENDROOT
BRANCH   1  10
ATOM     10  C   UNL     1      -7.356  -6.172   7.418  1.00  0.00     0.246 C 
ATOM     11  O   UNL     1      -7.754  -7.337   7.312  1.00  0.00    -0.272 OA
BRANCH  10  12
ATOM     12  C   UNL     1      -7.948  -5.209   8.488  1.00  0.00     0.174 C 
BRANCH  12  13
ATOM     13  N   UNL     1      -7.478  -3.846   8.247  1.00  0.00    -0.342 N 
ATOM     14  C   UNL     1      -8.257  -2.714   8.332  1.00  0.00     0.249 C 
ATOM     15  O   UNL     1      -9.439  -2.723   8.651  1.00  0.00    -0.272 OA
ATOM     16  H   UNL     1      -6.565  -3.696   7.823  1.00  0.00     0.164 HD
BRANCH  14  17
ATOM     17  C   UNL     1      -7.474  -1.426   8.002  1.00  0.00     0.207 C 
BRANCH  17  18
ATOM     18  C   UNL     1      -7.141  -0.658   9.285  1.00  0.00     0.077 C 
BRANCH  18  19
ATOM     19  C   UNL     1      -5.682  -0.791   9.657  1.00  0.00    -0.043 A 
ATOM     20  C   UNL     1      -3.336  -0.603   9.069  1.00  0.00     0.083 A 
ATOM     21  C   UNL     1      -4.682  -0.432   8.740  1.00  0.00     0.028 A 
ATOM     22  C   UNL     1      -2.982  -1.132  10.310  1.00  0.00     0.134 A 
ATOM     23  C   UNL     1      -3.962  -1.491  11.228  1.00  0.00     0.048 A 
ATOM     24  C   UNL     1      -5.310  -1.323  10.901  1.00  0.00     0.008 A 
ATOM     25  Cl  UNL     1      -2.122  -0.156   7.928  1.00  0.00    -0.080 Cl
BRANCH  22  26
ATOM     26  O   UNL     1      -1.677  -1.327  10.672  1.00  0.00    -0.506 OA
ATOM     27  H   UNL     1      -1.481  -0.680  11.375  1.00  0.00     0.293 HD
ENDBRANCH  22  26
ENDBRANCH  18  19
ENDBRANCH  17  18
BRANCH  17  28
ATOM     28  O   UNL     1      -8.224  -0.576   7.119  1.00  0.00    -0.383 OA
ATOM     29  H   UNL     1      -9.152  -0.593   7.448  1.00  0.00     0.211 HD
ENDBRANCH  17  28
ENDBRANCH  14  17
ENDBRANCH  12  13
BRANCH  12  30
ATOM     30  C   UNL     1      -7.671  -5.683   9.940  1.00  0.00     0.018 C 
ATOM     31  C   UNL     1      -8.984  -5.851  10.720  1.00  0.00     0.010 C 
BRANCH  30  32
ATOM     32  C   UNL     1      -6.703  -4.761  10.721  1.00  0.00     0.002 C 
ATOM     33  C   UNL     1      -6.473  -5.141  12.178  1.00  0.00     0.004 C 
ENDBRANCH  30  32
ENDBRANCH  12  30
ENDBRANCH  10  12
ENDBRANCH   1  10
BRANCH   5  34
ATOM     34  C   UNL     1      -4.253  -5.204   7.867  1.00  0.00     0.242 C 
ATOM     35  O   UNL     1      -4.682  -4.073   8.096  1.00  0.00    -0.273 OA
ATOM     36  N   UNL     1      -3.097  -5.686   8.439  1.00  0.00    -0.354 N 
ATOM     37  H   UNL     1      -2.727  -6.582   8.120  1.00  0.00     0.163 HD
BRANCH  36  38
ATOM     38  C   UNL     1      -2.446  -5.018   9.547  1.00  0.00     0.116 C 
BRANCH  38  39
ATOM     39  C   UNL     1      -3.023  -5.522  10.868  1.00  0.00     0.023 C 
BRANCH  39  40
ATOM     40  C   UNL     1      -2.148  -6.589  11.516  1.00  0.00     0.026 C 
BRANCH  40  41
ATOM     41  C   UNL     1      -2.897  -7.918  11.615  1.00  0.00     0.146 C 
BRANCH  41  42
ATOM     42  N   UNL     1      -3.733  -8.100  10.435  1.00  0.00    -0.254 NA
ATOM     43  C   UNL     1      -4.960  -8.439  10.575  1.00  0.00     0.185 C 
ATOM     44  N   UNL     1      -5.670  -8.674  11.693  1.00  0.00    -0.370 N 
ATOM     45  N   UNL     1      -5.713  -8.607   9.476  1.00  0.00    -0.370 N 
ATOM     46  H   UNL     1      -6.546  -9.167  11.650  1.00  0.00     0.159 HD
ATOM     47  H   UNL     1      -5.258  -8.580  12.617  1.00  0.00     0.159 HD
ATOM     48  H   UNL     1      -5.255  -8.440   8.590  1.00  0.00     0.159 HD
ATOM     49  H   UNL     1      -6.716  -8.636   9.503  1.00  0.00     0.159 HD
ENDBRANCH  41  42
ENDBRANCH  40  41
ENDBRANCH  39  40
ENDBRANCH  38  39
ENDBRANCH  36  38
ENDBRANCH   5  34
BRANCH   8  50
ATOM     50  O   UNL     1      -5.540  -1.899   4.711  1.00  0.00    -0.245 OA
BRANCH  50  51
ATOM     51  S   UNL     1      -5.564  -0.311   4.360  1.00  0.00     0.397 S 
ATOM     52  O   UNL     1      -5.308  -0.162   2.945  1.00  0.00    -0.169 OA
ATOM     53  O   UNL     1      -4.800   0.417   5.352  1.00  0.00    -0.169 OA
BRANCH  51  54
ATOM     54  O   UNL     1      -7.117   0.055   4.565  1.00  0.00    -0.264 OA
ATOM     55  H   UNL     1      -7.222   0.412   5.470  1.00  0.00     0.236 HD
ENDBRANCH  51  54
ENDBRANCH  50  51
ENDBRANCH   8  50
TORSDOF 19
ENDMDL
MODEL 23
REMARK VINA RESULT:    -8.008      3.398      6.817
REMARK INTER + INTRA:         -18.877
REMARK INTER:                 -15.383
REMARK INTRA:                  -3.494
REMARK UNBOUND:                -2.676
REMARK SMILES CC[C@@H](C)[C@@H](NC(=O)[C@@H](O)Cc1ccc(O)c(Cl)c1)C(=O)N1[C@H](C(=O)NCCCCN=C(N)N)C[C@H]2CC[C@H](OS(=O)(=O)O)C[C@@H]21
REMARK SMILES IDX 22 1 36 2 46 3 35 4 23 5 45 6 37 7 39 8 38 9 20 10 21 11
REMARK SMILES IDX 5 12 6 13 7 14 8 15 9 17 11 18 12 19 17 20 19 21 15 22 14 23
REMARK SMILES IDX 13 24 18 25 16 26 10 28 3 30 4 31 2 32 1 33 24 34 25 35
REMARK SMILES IDX 26 36 27 38 28 39 29 40 30 41 31 42 32 43 33 44 34 45 40 50
REMARK SMILES IDX 41 51 42 52 43 53 44 54
REMARK H PARENT 6 16 16 27 10 29 26 37 33 46 33 47 34 48 34 49 44 55
ROOT
ATOM      1  N   UNL     1      -3.768  -3.526   8.441  1.00  0.00    -0.326 N 
ATOM      2  C   UNL     1      -4.335  -4.833   6.567  1.00  0.00     0.014 C 
ATOM      3  C   UNL     1      -3.684  -4.905   7.951  1.00  0.00     0.091 C 
ATOM      4  C   UNL     1      -3.925  -3.454   6.075  1.00  0.00     0.041 C 
ATOM      5  C   UNL     1      -4.191  -2.622   7.343  1.00  0.00     0.175 C 
ATOM      6  C   UNL     1      -4.378  -6.003   8.755  1.00  0.00     0.059 C 
ATOM      7  C   UNL     1      -3.983  -6.053   5.739  1.00  0.00     0.008 C 
ATOM      8  C   UNL     1      -4.891  -7.175   7.892  1.00  0.00     0.143 C 
ATOM      9  C   UNL     1      -4.078  -7.336   6.591  1.00  0.00     0.034 C 
ENDROOT
BRANCH   1  10
ATOM     10  C   UNL     1      -3.323  -2.978   9.632  1.00  0.00     0.246 C 
ATOM     11  O   UNL     1      -4.148  -2.513  10.425  1.00  0.00    -0.272 OA
BRANCH  10  12
ATOM     12  C   UNL     1      -1.803  -2.999   9.965  1.00  0.00     0.174 C 
BRANCH  12  13
ATOM     13  N   UNL     1      -1.480  -4.192  10.747  1.00  0.00    -0.342 N 
ATOM     14  C   UNL     1      -0.809  -5.294  10.266  1.00  0.00     0.249 C 
ATOM     15  O   UNL     1      -0.379  -5.386   9.123  1.00  0.00    -0.272 OA
ATOM     16  H   UNL     1      -1.907  -4.327  11.660  1.00  0.00     0.164 HD
BRANCH  14  17
ATOM     17  C   UNL     1      -0.637  -6.399  11.330  1.00  0.00     0.207 C 
BRANCH  17  18
ATOM     18  C   UNL     1      -1.628  -6.192  12.481  1.00  0.00     0.077 C 
BRANCH  18  19
ATOM     19  C   UNL     1      -2.969  -6.828  12.188  1.00  0.00    -0.043 A 
ATOM     20  C   UNL     1      -5.389  -6.796  12.344  1.00  0.00     0.083 A 
ATOM     21  C   UNL     1      -4.156  -6.184  12.571  1.00  0.00     0.028 A 
ATOM     22  C   UNL     1      -5.445  -8.051  11.737  1.00  0.00     0.134 A 
ATOM     23  C   UNL     1      -4.277  -8.699  11.352  1.00  0.00     0.048 A 
ATOM     24  C   UNL     1      -3.041  -8.090  11.580  1.00  0.00     0.008 A 
ATOM     25  Cl  UNL     1      -6.837  -5.990  12.822  1.00  0.00    -0.080 Cl
BRANCH  22  26
ATOM     26  O   UNL     1      -6.630  -8.695  11.503  1.00  0.00    -0.506 OA
ATOM     27  H   UNL     1      -6.878  -9.136  12.337  1.00  0.00     0.293 HD
ENDBRANCH  22  26
ENDBRANCH  18  19
ENDBRANCH  17  18
BRANCH  17  28
ATOM     28  O   UNL     1       0.702  -6.411  11.851  1.00  0.00    -0.383 OA
ATOM     29  H   UNL     1       0.659  -6.907  12.700  1.00  0.00     0.211 HD
ENDBRANCH  17  28
ENDBRANCH  14  17
ENDBRANCH  12  13
BRANCH  12  30
ATOM     30  C   UNL     1      -1.322  -1.693  10.652  1.00  0.00     0.018 C 
ATOM     31  C   UNL     1      -1.472  -0.491   9.707  1.00  0.00     0.010 C 
BRANCH  30  32
ATOM     32  C   UNL     1       0.129  -1.770  11.187  1.00  0.00     0.002 C 
ATOM     33  C   UNL     1       0.329  -1.252  12.606  1.00  0.00     0.004 C 
ENDBRANCH  30  32
ENDBRANCH  12  30
ENDBRANCH  10  12
ENDBRANCH   1  10
BRANCH   5  34
ATOM     34  C   UNL     1      -5.693  -2.254   7.481  1.00  0.00     0.242 C 
ATOM     35  O   UNL     1      -6.572  -2.825   6.836  1.00  0.00    -0.273 OA
ATOM     36  N   UNL     1      -5.964  -1.209   8.335  1.00  0.00    -0.354 N 
ATOM     37  H   UNL     1      -5.183  -0.697   8.749  1.00  0.00     0.163 HD
BRANCH  36  38
ATOM     38  C   UNL     1      -7.312  -0.876   8.746  1.00  0.00     0.116 C 
BRANCH  38  39
ATOM     39  C   UNL     1      -7.278   0.268   9.757  1.00  0.00     0.023 C 
BRANCH  39  40
ATOM     40  C   UNL     1      -8.628   0.961   9.899  1.00  0.00     0.026 C 
BRANCH  40  41
ATOM     41  C   UNL     1      -9.719  -0.046  10.265  1.00  0.00     0.146 C 
BRANCH  41  42
ATOM     42  N   UNL     1     -10.445   0.420  11.439  1.00  0.00    -0.254 NA
ATOM     43  C   UNL     1     -11.009  -0.429  12.213  1.00  0.00     0.185 C 
ATOM     44  N   UNL     1     -11.058  -1.772  12.136  1.00  0.00    -0.370 N 
ATOM     45  N   UNL     1     -11.678   0.021  13.288  1.00  0.00    -0.370 N 
ATOM     46  H   UNL     1     -11.735  -2.292  12.667  1.00  0.00     0.159 HD
ATOM     47  H   UNL     1     -10.592  -2.280  11.390  1.00  0.00     0.159 HD
ATOM     48  H   UNL     1     -11.683   1.022  13.425  1.00  0.00     0.159 HD
ATOM     49  H   UNL     1     -11.937  -0.573  14.055  1.00  0.00     0.159 HD
ENDBRANCH  41  42
ENDBRANCH  40  41
ENDBRANCH  39  40
ENDBRANCH  38  39
ENDBRANCH  36  38
ENDBRANCH   5  34
BRANCH   8  50
ATOM     50  O   UNL     1      -6.261  -6.968   7.548  1.00  0.00    -0.245 OA
BRANCH  50  51
ATOM     51  S   UNL     1      -7.353  -8.133   7.858  1.00  0.00     0.397 S 
ATOM     52  O   UNL     1      -8.577  -7.495   8.287  1.00  0.00    -0.169 OA
ATOM     53  O   UNL     1      -6.732  -9.185   8.636  1.00  0.00    -0.169 OA
BRANCH  51  54
ATOM     54  O   UNL     1      -7.652  -8.713   6.389  1.00  0.00    -0.264 OA
ATOM     55  H   UNL     1      -8.618  -8.854   6.314  1.00  0.00     0.236 HD
ENDBRANCH  51  54
ENDBRANCH  50  51
ENDBRANCH   8  50
TORSDOF 19
ENDMDL
MODEL 24
REMARK VINA RESULT:    -8.006      3.306      6.066
REMARK INTER + INTRA:         -18.873
REMARK INTER:                 -15.363
REMARK INTRA:                  -3.510
REMARK UNBOUND:                -2.676
REMARK SMILES CC[C@@H](C)[C@@H](NC(=O)[C@@H](O)Cc1ccc(O)c(Cl)c1)C(=O)N1[C@H](C(=O)NCCCCN=C(N)N)C[C@H]2CC[C@H](OS(=O)(=O)O)C[C@@H]21
REMARK SMILES IDX 22 1 36 2 46 3 35 4 23 5 45 6 37 7 39 8 38 9 20 10 21 11
REMARK SMILES IDX 5 12 6 13 7 14 8 15 9 17 11 18 12 19 17 20 19 21 15 22 14 23
REMARK SMILES IDX 13 24 18 25 16 26 10 28 3 30 4 31 2 32 1 33 24 34 25 35
REMARK SMILES IDX 26 36 27 38 28 39 29 40 30 41 31 42 32 43 33 44 34 45 40 50
REMARK SMILES IDX 41 51 42 52 43 53 44 54
REMARK H PARENT 6 16 16 27 10 29 26 37 33 46 33 47 34 48 34 49 44 55
ROOT
ATOM      1  N   UNL     1      -5.903  -7.361   9.680  1.00  0.00    -0.326 N 
ATOM      2  C   UNL     1      -8.133  -6.606   9.658  1.00  0.00     0.014 C 
ATOM      3  C   UNL     1      -6.745  -6.293  10.225  1.00  0.00     0.091 C 
ATOM      4  C   UNL     1      -8.148  -8.126   9.630  1.00  0.00     0.041 C 
ATOM      5  C   UNL     1      -6.750  -8.402   9.047  1.00  0.00     0.175 C 
ATOM      6  C   UNL     1      -6.397  -4.847   9.878  1.00  0.00     0.059 C 
ATOM      7  C   UNL     1      -9.212  -5.865  10.423  1.00  0.00     0.008 C 
ATOM      8  C   UNL     1      -7.623  -3.910   9.812  1.00  0.00     0.143 C 
ATOM      9  C   UNL     1      -8.781  -4.409  10.699  1.00  0.00     0.034 C 
ENDROOT
BRANCH   1  10
ATOM     10  C   UNL     1      -4.554  -7.609   9.864  1.00  0.00     0.246 C 
ATOM     11  O   UNL     1      -4.153  -8.778   9.874  1.00  0.00    -0.272 OA
BRANCH  10  12
ATOM     12  C   UNL     1      -3.567  -6.415  10.012  1.00  0.00     0.174 C 
BRANCH  12  13
ATOM     13  N   UNL     1      -2.684  -6.350   8.849  1.00  0.00    -0.342 N 
ATOM     14  C   UNL     1      -2.860  -5.516   7.768  1.00  0.00     0.249 C 
ATOM     15  O   UNL     1      -3.773  -4.705   7.674  1.00  0.00    -0.272 OA
ATOM     16  H   UNL     1      -1.977  -7.068   8.713  1.00  0.00     0.164 HD
BRANCH  14  17
ATOM     17  C   UNL     1      -1.768  -5.696   6.692  1.00  0.00     0.207 C 
BRANCH  17  18
ATOM     18  C   UNL     1      -0.958  -4.406   6.530  1.00  0.00     0.077 C 
BRANCH  18  19
ATOM     19  C   UNL     1      -0.246  -4.025   7.809  1.00  0.00    -0.043 A 
ATOM     20  C   UNL     1      -0.070  -2.623   9.781  1.00  0.00     0.083 A 
ATOM     21  C   UNL     1      -0.756  -3.005   8.627  1.00  0.00     0.028 A 
ATOM     22  C   UNL     1       1.127  -3.253  10.123  1.00  0.00     0.134 A 
ATOM     23  C   UNL     1       1.643  -4.265   9.322  1.00  0.00     0.048 A 
ATOM     24  C   UNL     1       0.960  -4.649   8.165  1.00  0.00     0.008 A 
ATOM     25  Cl  UNL     1      -0.713  -1.367  10.773  1.00  0.00    -0.080 Cl
BRANCH  22  26
ATOM     26  O   UNL     1       1.840  -2.906  11.238  1.00  0.00    -0.506 OA
ATOM     27  H   UNL     1       2.589  -2.361  10.933  1.00  0.00     0.293 HD
ENDBRANCH  22  26
ENDBRANCH  18  19
ENDBRANCH  17  18
BRANCH  17  28
ATOM     28  O   UNL     1      -2.343  -6.059   5.427  1.00  0.00    -0.383 OA
ATOM     29  H   UNL     1      -2.912  -5.302   5.159  1.00  0.00     0.211 HD
ENDBRANCH  17  28
ENDBRANCH  14  17
ENDBRANCH  12  13
BRANCH  12  30
ATOM     30  C   UNL     1      -2.782  -6.448  11.351  1.00  0.00     0.018 C 
ATOM     31  C   UNL     1      -3.610  -5.823  12.485  1.00  0.00     0.010 C 
BRANCH  30  32
ATOM     32  C   UNL     1      -1.391  -5.772  11.273  1.00  0.00     0.002 C 
ATOM     33  C   UNL     1      -0.202  -6.710  11.435  1.00  0.00     0.004 C 
ENDBRANCH  30  32
ENDBRANCH  12  30
ENDBRANCH  10  12
ENDBRANCH   1  10
BRANCH   5  34
ATOM     34  C   UNL     1      -6.736  -8.258   7.501  1.00  0.00     0.242 C 
ATOM     35  O   UNL     1      -7.618  -8.737   6.788  1.00  0.00    -0.273 OA
ATOM     36  N   UNL     1      -5.640  -7.604   6.984  1.00  0.00    -0.354 N 
ATOM     37  H   UNL     1      -4.884  -7.336   7.615  1.00  0.00     0.163 HD
BRANCH  36  38
ATOM     38  C   UNL     1      -5.568  -7.194   5.597  1.00  0.00     0.116 C 
BRANCH  38  39
ATOM     39  C   UNL     1      -6.195  -5.811   5.433  1.00  0.00     0.023 C 
BRANCH  39  40
ATOM     40  C   UNL     1      -6.298  -5.388   3.971  1.00  0.00     0.026 C 
BRANCH  40  41
ATOM     41  C   UNL     1      -5.266  -4.308   3.646  1.00  0.00     0.146 C 
BRANCH  41  42
ATOM     42  N   UNL     1      -5.827  -3.364   2.688  1.00  0.00    -0.254 NA
ATOM     43  C   UNL     1      -5.210  -3.133   1.591  1.00  0.00     0.185 C 
ATOM     44  N   UNL     1      -4.055  -3.640   1.124  1.00  0.00    -0.370 N 
ATOM     45  N   UNL     1      -5.741  -2.255   0.724  1.00  0.00    -0.370 N 
ATOM     46  H   UNL     1      -3.566  -3.193   0.368  1.00  0.00     0.159 HD
ATOM     47  H   UNL     1      -3.526  -4.330   1.649  1.00  0.00     0.159 HD
ATOM     48  H   UNL     1      -6.619  -1.832   0.995  1.00  0.00     0.159 HD
ATOM     49  H   UNL     1      -5.455  -2.199  -0.237  1.00  0.00     0.159 HD
ENDBRANCH  41  42
ENDBRANCH  40  41
ENDBRANCH  39  40
ENDBRANCH  38  39
ENDBRANCH  36  38
ENDBRANCH   5  34
BRANCH   8  50
ATOM     50  O   UNL     1      -8.092  -3.811   8.467  1.00  0.00    -0.245 OA
BRANCH  50  51
ATOM     51  S   UNL     1      -8.043  -2.376   7.704  1.00  0.00     0.397 S 
ATOM     52  O   UNL     1      -9.379  -1.824   7.706  1.00  0.00    -0.169 OA
ATOM     53  O   UNL     1      -7.275  -2.501   6.482  1.00  0.00    -0.169 OA
BRANCH  51  54
ATOM     54  O   UNL     1      -7.195  -1.477   8.732  1.00  0.00    -0.264 OA
ATOM     55  H   UNL     1      -7.646  -0.612   8.814  1.00  0.00     0.236 HD
ENDBRANCH  51  54
ENDBRANCH  50  51
ENDBRANCH   8  50
TORSDOF 19
ENDMDL
MODEL 25
REMARK VINA RESULT:    -7.974      2.903      6.041
REMARK INTER + INTRA:         -18.808
REMARK INTER:                 -13.781
REMARK INTRA:                  -5.027
REMARK UNBOUND:                -2.676
REMARK SMILES CC[C@@H](C)[C@@H](NC(=O)[C@@H](O)Cc1ccc(O)c(Cl)c1)C(=O)N1[C@H](C(=O)NCCCCN=C(N)N)C[C@H]2CC[C@H](OS(=O)(=O)O)C[C@@H]21
REMARK SMILES IDX 22 1 36 2 46 3 35 4 23 5 45 6 37 7 39 8 38 9 20 10 21 11
REMARK SMILES IDX 5 12 6 13 7 14 8 15 9 17 11 18 12 19 17 20 19 21 15 22 14 23
REMARK SMILES IDX 13 24 18 25 16 26 10 28 3 30 4 31 2 32 1 33 24 34 25 35
REMARK SMILES IDX 26 36 27 38 28 39 29 40 30 41 31 42 32 43 33 44 34 45 40 50
REMARK SMILES IDX 41 51 42 52 43 53 44 54
REMARK H PARENT 6 16 16 27 10 29 26 37 33 46 33 47 34 48 34 49 44 55
ROOT
ATOM      1  N   UNL     1      -4.546  -4.027   5.754  1.00  0.00    -0.326 N 
ATOM      2  C   UNL     1      -2.393  -4.460   6.602  1.00  0.00     0.014 C 
ATOM      3  C   UNL     1      -3.542  -3.449   6.653  1.00  0.00     0.091 C 
ATOM      4  C   UNL     1      -2.443  -4.952   5.163  1.00  0.00     0.041 C 
ATOM      5  C   UNL     1      -3.960  -5.162   5.000  1.00  0.00     0.175 C 
ATOM      6  C   UNL     1      -3.923  -3.224   8.115  1.00  0.00     0.059 C 
ATOM      7  C   UNL     1      -1.111  -3.850   7.135  1.00  0.00     0.008 C 
ATOM      8  C   UNL     1      -2.735  -3.353   9.093  1.00  0.00     0.143 C 
ATOM      9  C   UNL     1      -1.388  -3.033   8.414  1.00  0.00     0.034 C 
ENDROOT
BRANCH   1  10
ATOM     10  C   UNL     1      -5.792  -3.546   5.389  1.00  0.00     0.246 C 
ATOM     11  O   UNL     1      -6.742  -4.333   5.313  1.00  0.00    -0.272 OA
BRANCH  10  12
ATOM     12  C   UNL     1      -5.979  -2.024   5.124  1.00  0.00     0.174 C 
BRANCH  12  13
ATOM     13  N   UNL     1      -7.008  -1.486   6.013  1.00  0.00    -0.342 N 
ATOM     14  C   UNL     1      -6.765  -0.748   7.150  1.00  0.00     0.249 C 
ATOM     15  O   UNL     1      -5.644  -0.434   7.531  1.00  0.00    -0.272 OA
ATOM     16  H   UNL     1      -7.972  -1.795   5.912  1.00  0.00     0.164 HD
BRANCH  14  17
ATOM     17  C   UNL     1      -8.060  -0.340   7.884  1.00  0.00     0.207 C 
BRANCH  17  18
ATOM     18  C   UNL     1      -8.882  -1.579   8.249  1.00  0.00     0.077 C 
BRANCH  18  19
ATOM     19  C   UNL     1      -8.086  -2.556   9.085  1.00  0.00    -0.043 A 
ATOM     20  C   UNL     1      -6.699  -3.025  11.019  1.00  0.00     0.083 A 
ATOM     21  C   UNL     1      -7.474  -2.134  10.275  1.00  0.00     0.028 A 
ATOM     22  C   UNL     1      -6.530  -4.339  10.579  1.00  0.00     0.134 A 
ATOM     23  C   UNL     1      -7.130  -4.769   9.402  1.00  0.00     0.048 A 
ATOM     24  C   UNL     1      -7.905  -3.879   8.654  1.00  0.00     0.008 A 
ATOM     25  Cl  UNL     1      -5.955  -2.488  12.479  1.00  0.00    -0.080 Cl
BRANCH  22  26
ATOM     26  O   UNL     1      -5.771  -5.245  11.268  1.00  0.00    -0.506 OA
ATOM     27  H   UNL     1      -6.119  -6.128  11.046  1.00  0.00     0.293 HD
ENDBRANCH  22  26
ENDBRANCH  18  19
ENDBRANCH  17  18
BRANCH  17  28
ATOM     28  O   UNL     1      -8.857   0.540   7.075  1.00  0.00    -0.383 OA
ATOM     29  H   UNL     1      -8.648   1.453   7.379  1.00  0.00     0.211 HD
ENDBRANCH  17  28
ENDBRANCH  14  17
ENDBRANCH  12  13
BRANCH  12  30
ATOM     30  C   UNL     1      -6.259  -1.704   3.631  1.00  0.00     0.018 C 
ATOM     31  C   UNL     1      -5.295  -2.477   2.717  1.00  0.00     0.010 C 
BRANCH  30  32
ATOM     32  C   UNL     1      -6.211  -0.193   3.299  1.00  0.00     0.002 C 
ATOM     33  C   UNL     1      -6.661   0.180   1.892  1.00  0.00     0.004 C 
ENDBRANCH  30  32
ENDBRANCH  12  30
ENDBRANCH  10  12
ENDBRANCH   1  10
BRANCH   5  34
ATOM     34  C   UNL     1      -4.417  -6.518   5.602  1.00  0.00     0.242 C 
ATOM     35  O   UNL     1      -3.682  -7.203   6.313  1.00  0.00    -0.273 OA
ATOM     36  N   UNL     1      -5.683  -6.922   5.241  1.00  0.00    -0.354 N 
ATOM     37  H   UNL     1      -6.197  -6.370   4.554  1.00  0.00     0.163 HD
BRANCH  36  38
ATOM     38  C   UNL     1      -6.347  -8.042   5.874  1.00  0.00     0.116 C 
BRANCH  38  39
ATOM     39  C   UNL     1      -7.434  -7.533   6.819  1.00  0.00     0.023 C 
BRANCH  39  40
ATOM     40  C   UNL     1      -7.426  -8.258   8.160  1.00  0.00     0.026 C 
BRANCH  40  41
ATOM     41  C   UNL     1      -6.011  -8.320   8.735  1.00  0.00     0.146 C 
BRANCH  41  42
ATOM     42  N   UNL     1      -6.065  -8.224  10.188  1.00  0.00    -0.254 NA
ATOM     43  C   UNL     1      -5.005  -8.426  10.876  1.00  0.00     0.185 C 
ATOM     44  N   UNL     1      -3.758  -8.733  10.474  1.00  0.00    -0.370 N 
ATOM     45  N   UNL     1      -5.077  -8.337  12.214  1.00  0.00    -0.370 N 
ATOM     46  H   UNL     1      -3.086  -9.102  11.125  1.00  0.00     0.159 HD
ATOM     47  H   UNL     1      -3.523  -8.827   9.491  1.00  0.00     0.159 HD
ATOM     48  H   UNL     1      -5.981  -8.100  12.600  1.00  0.00     0.159 HD
ATOM     49  H   UNL     1      -4.264  -8.246  12.798  1.00  0.00     0.159 HD
ENDBRANCH  41  42
ENDBRANCH  40  41
ENDBRANCH  39  40
ENDBRANCH  38  39
ENDBRANCH  36  38
ENDBRANCH   5  34
BRANCH   8  50
ATOM     50  O   UNL     1      -2.674  -4.679   9.618  1.00  0.00    -0.245 OA
BRANCH  50  51
ATOM     51  S   UNL     1      -2.167  -4.916  11.146  1.00  0.00     0.397 S 
ATOM     52  O   UNL     1      -0.726  -5.021  11.126  1.00  0.00    -0.169 OA
ATOM     53  O   UNL     1      -2.994  -5.920  11.782  1.00  0.00    -0.169 OA
BRANCH  51  54
ATOM     54  O   UNL     1      -2.493  -3.498  11.831  1.00  0.00    -0.264 OA
ATOM     55  H   UNL     1      -1.814  -3.334  12.516  1.00  0.00     0.236 HD
ENDBRANCH  51  54
ENDBRANCH  50  51
ENDBRANCH   8  50
TORSDOF 19
ENDMDL
MODEL 26
REMARK VINA RESULT:    -7.962      2.402      5.153
REMARK INTER + INTRA:         -18.784
REMARK INTER:                 -15.528
REMARK INTRA:                  -3.256
REMARK UNBOUND:                -2.676
REMARK SMILES CC[C@@H](C)[C@@H](NC(=O)[C@@H](O)Cc1ccc(O)c(Cl)c1)C(=O)N1[C@H](C(=O)NCCCCN=C(N)N)C[C@H]2CC[C@H](OS(=O)(=O)O)C[C@@H]21
REMARK SMILES IDX 22 1 36 2 46 3 35 4 23 5 45 6 37 7 39 8 38 9 20 10 21 11
REMARK SMILES IDX 5 12 6 13 7 14 8 15 9 17 11 18 12 19 17 20 19 21 15 22 14 23
REMARK SMILES IDX 13 24 18 25 16 26 10 28 3 30 4 31 2 32 1 33 24 34 25 35
REMARK SMILES IDX 26 36 27 38 28 39 29 40 30 41 31 42 32 43 33 44 34 45 40 50
REMARK SMILES IDX 41 51 42 52 43 53 44 54
REMARK H PARENT 6 16 16 27 10 29 26 37 33 46 33 47 34 48 34 49 44 55
ROOT
ATOM      1  N   UNL     1      -4.678  -3.824   6.249  1.00  0.00    -0.326 N 
ATOM      2  C   UNL     1      -4.668  -3.990   8.598  1.00  0.00     0.014 C 
ATOM      3  C   UNL     1      -5.566  -4.154   7.368  1.00  0.00     0.091 C 
ATOM      4  C   UNL     1      -3.765  -2.833   8.201  1.00  0.00     0.041 C 
ATOM      5  C   UNL     1      -3.412  -3.244   6.760  1.00  0.00     0.175 C 
ATOM      6  C   UNL     1      -6.194  -5.546   7.410  1.00  0.00     0.059 C 
ATOM      7  C   UNL     1      -5.496  -3.888   9.864  1.00  0.00     0.008 C 
ATOM      8  C   UNL     1      -6.446  -6.071   8.839  1.00  0.00     0.143 C 
ATOM      9  C   UNL     1      -6.639  -4.925   9.852  1.00  0.00     0.034 C 
ENDROOT
BRANCH   1  10
ATOM     10  C   UNL     1      -4.941  -3.781   4.891  1.00  0.00     0.246 C 
ATOM     11  O   UNL     1      -4.857  -4.820   4.228  1.00  0.00    -0.272 OA
BRANCH  10  12
ATOM     12  C   UNL     1      -5.377  -2.437   4.237  1.00  0.00     0.174 C 
BRANCH  12  13
ATOM     13  N   UNL     1      -6.265  -1.707   5.141  1.00  0.00    -0.342 N 
ATOM     14  C   UNL     1      -5.906  -0.600   5.877  1.00  0.00     0.249 C 
ATOM     15  O   UNL     1      -4.797  -0.082   5.833  1.00  0.00    -0.272 OA
ATOM     16  H   UNL     1      -7.163  -2.109   5.399  1.00  0.00     0.164 HD
BRANCH  14  17
ATOM     17  C   UNL     1      -7.061  -0.066   6.751  1.00  0.00     0.207 C 
BRANCH  17  18
ATOM     18  C   UNL     1      -7.764  -1.220   7.473  1.00  0.00     0.077 C 
BRANCH  18  19
ATOM     19  C   UNL     1      -8.410  -0.766   8.763  1.00  0.00    -0.043 A 
ATOM     20  C   UNL     1      -9.881  -1.196  10.643  1.00  0.00     0.083 A 
ATOM     21  C   UNL     1      -9.247  -1.635   9.480  1.00  0.00     0.028 A 
ATOM     22  C   UNL     1      -9.684   0.109  11.096  1.00  0.00     0.134 A 
ATOM     23  C   UNL     1      -8.857   0.979  10.396  1.00  0.00     0.048 A 
ATOM     24  C   UNL     1      -8.223   0.544   9.230  1.00  0.00     0.008 A 
ATOM     25  Cl  UNL     1     -10.907  -2.278  11.510  1.00  0.00    -0.080 Cl
BRANCH  22  26
ATOM     26  O   UNL     1     -10.292   0.587  12.225  1.00  0.00    -0.506 OA
ATOM     27  H   UNL     1     -10.428  -0.177  12.815  1.00  0.00     0.293 HD
ENDBRANCH  22  26
ENDBRANCH  18  19
ENDBRANCH  17  18
BRANCH  17  28
ATOM     28  O   UNL     1      -8.018   0.654   5.959  1.00  0.00    -0.383 OA
ATOM     29  H   UNL     1      -7.985   0.254   5.061  1.00  0.00     0.211 HD
ENDBRANCH  17  28
ENDBRANCH  14  17
ENDBRANCH  12  13
BRANCH  12  30
ATOM     30  C   UNL     1      -5.997  -2.630   2.827  1.00  0.00     0.018 C 
ATOM     31  C   UNL     1      -4.906  -2.920   1.785  1.00  0.00     0.010 C 
BRANCH  30  32
ATOM     32  C   UNL     1      -6.872  -1.440   2.364  1.00  0.00     0.002 C 
ATOM     33  C   UNL     1      -6.118  -0.142   2.100  1.00  0.00     0.004 C 
ENDBRANCH  30  32
ENDBRANCH  12  30
ENDBRANCH  10  12
ENDBRANCH   1  10
BRANCH   5  34
ATOM     34  C   UNL     1      -2.272  -4.296   6.728  1.00  0.00     0.242 C 
ATOM     35  O   UNL     1      -2.494  -5.507   6.719  1.00  0.00    -0.273 OA
ATOM     36  N   UNL     1      -0.996  -3.779   6.765  1.00  0.00    -0.354 N 
ATOM     37  H   UNL     1      -0.877  -2.774   6.893  1.00  0.00     0.163 HD
BRANCH  36  38
ATOM     38  C   UNL     1       0.176  -4.596   6.527  1.00  0.00     0.116 C 
BRANCH  38  39
ATOM     39  C   UNL     1       1.141  -4.473   7.705  1.00  0.00     0.023 C 
BRANCH  39  40
ATOM     40  C   UNL     1       0.755  -5.378   8.870  1.00  0.00     0.026 C 
BRANCH  40  41
ATOM     41  C   UNL     1       0.473  -4.554  10.126  1.00  0.00     0.146 C 
BRANCH  41  42
ATOM     42  N   UNL     1      -0.410  -3.442   9.797  1.00  0.00    -0.254 NA
ATOM     43  C   UNL     1      -0.224  -2.302  10.348  1.00  0.00     0.185 C 
ATOM     44  N   UNL     1       0.705  -1.913  11.240  1.00  0.00    -0.370 N 
ATOM     45  N   UNL     1      -1.051  -1.291  10.035  1.00  0.00    -0.370 N 
ATOM     46  H   UNL     1       0.586  -1.066  11.769  1.00  0.00     0.159 HD
ATOM     47  H   UNL     1       1.421  -2.550  11.577  1.00  0.00     0.159 HD
ATOM     48  H   UNL     1      -1.777  -1.497   9.362  1.00  0.00     0.159 HD
ATOM     49  H   UNL     1      -0.835  -0.330  10.232  1.00  0.00     0.159 HD
ENDBRANCH  41  42
ENDBRANCH  40  41
ENDBRANCH  39  40
ENDBRANCH  38  39
ENDBRANCH  36  38
ENDBRANCH   5  34
BRANCH   8  50
ATOM     50  O   UNL     1      -5.346  -6.875   9.268  1.00  0.00    -0.245 OA
BRANCH  50  51
ATOM     51  S   UNL     1      -5.564  -7.970  10.450  1.00  0.00     0.397 S 
ATOM     52  O   UNL     1      -6.857  -8.585  10.256  1.00  0.00    -0.169 OA
ATOM     53  O   UNL     1      -5.179  -7.395  11.722  1.00  0.00    -0.169 OA
BRANCH  51  54
ATOM     54  O   UNL     1      -4.481  -9.096  10.068  1.00  0.00    -0.264 OA
ATOM     55  H   UNL     1      -4.963  -9.935   9.918  1.00  0.00     0.236 HD
ENDBRANCH  51  54
ENDBRANCH  50  51
ENDBRANCH   8  50
TORSDOF 19
ENDMDL
MODEL 27
REMARK VINA RESULT:    -7.936      3.251      7.387
REMARK INTER + INTRA:         -18.731
REMARK INTER:                 -13.129
REMARK INTRA:                  -5.603
REMARK UNBOUND:                -2.676
REMARK SMILES CC[C@@H](C)[C@@H](NC(=O)[C@@H](O)Cc1ccc(O)c(Cl)c1)C(=O)N1[C@H](C(=O)NCCCCN=C(N)N)C[C@H]2CC[C@H](OS(=O)(=O)O)C[C@@H]21
REMARK SMILES IDX 22 1 36 2 46 3 35 4 23 5 45 6 37 7 39 8 38 9 20 10 21 11
REMARK SMILES IDX 5 12 6 13 7 14 8 15 9 17 11 18 12 19 17 20 19 21 15 22 14 23
REMARK SMILES IDX 13 24 18 25 16 26 10 28 3 30 4 31 2 32 1 33 24 34 25 35
REMARK SMILES IDX 26 36 27 38 28 39 29 40 30 41 31 42 32 43 33 44 34 45 40 50
REMARK SMILES IDX 41 51 42 52 43 53 44 54
REMARK H PARENT 6 16 16 27 10 29 26 37 33 46 33 47 34 48 34 49 44 55
ROOT
ATOM      1  N   UNL     1      -7.037  -2.210   6.724  1.00  0.00    -0.326 N 
ATOM      2  C   UNL     1      -6.794  -4.287   5.643  1.00  0.00     0.014 C 
ATOM      3  C   UNL     1      -6.251  -2.856   5.669  1.00  0.00     0.091 C 
ATOM      4  C   UNL     1      -8.267  -4.093   5.968  1.00  0.00     0.041 C 
ATOM      5  C   UNL     1      -8.159  -3.092   7.133  1.00  0.00     0.175 C 
ATOM      6  C   UNL     1      -4.733  -2.918   5.832  1.00  0.00     0.059 C 
ATOM      7  C   UNL     1      -6.402  -4.992   4.359  1.00  0.00     0.008 C 
ATOM      8  C   UNL     1      -4.088  -4.160   5.180  1.00  0.00     0.143 C 
ATOM      9  C   UNL     1      -4.929  -4.700   4.005  1.00  0.00     0.034 C 
ENDROOT
BRANCH   1  10
ATOM     10  C   UNL     1      -7.002  -0.905   7.185  1.00  0.00     0.246 C 
ATOM     11  O   UNL     1      -7.526  -0.014   6.509  1.00  0.00    -0.272 OA
BRANCH  10  12
ATOM     12  C   UNL     1      -6.343  -0.596   8.561  1.00  0.00     0.174 C 
BRANCH  12  13
ATOM     13  N   UNL     1      -5.285  -1.567   8.837  1.00  0.00    -0.342 N 
ATOM     14  C   UNL     1      -3.950  -1.262   8.982  1.00  0.00     0.249 C 
ATOM     15  O   UNL     1      -3.500  -0.124   8.921  1.00  0.00    -0.272 OA
ATOM     16  H   UNL     1      -5.481  -2.562   8.759  1.00  0.00     0.164 HD
BRANCH  14  17
ATOM     17  C   UNL     1      -3.080  -2.508   9.250  1.00  0.00     0.207 C 
BRANCH  17  18
ATOM     18  C   UNL     1      -1.838  -2.498   8.352  1.00  0.00     0.077 C 
BRANCH  18  19
ATOM     19  C   UNL     1      -0.582  -2.826   9.127  1.00  0.00    -0.043 A 
ATOM     20  C   UNL     1       0.963  -2.339  10.933  1.00  0.00     0.083 A 
ATOM     21  C   UNL     1      -0.222  -2.064  10.250  1.00  0.00     0.028 A 
ATOM     22  C   UNL     1       1.795  -3.372  10.500  1.00  0.00     0.134 A 
ATOM     23  C   UNL     1       1.451  -4.134   9.390  1.00  0.00     0.048 A 
ATOM     24  C   UNL     1       0.266  -3.861   8.703  1.00  0.00     0.008 A 
ATOM     25  Cl  UNL     1       1.388  -1.391  12.310  1.00  0.00    -0.080 Cl
BRANCH  22  26
ATOM     26  O   UNL     1       2.972  -3.671  11.131  1.00  0.00    -0.506 OA
ATOM     27  H   UNL     1       3.672  -3.625  10.454  1.00  0.00     0.293 HD
ENDBRANCH  22  26
ENDBRANCH  18  19
ENDBRANCH  17  18
BRANCH  17  28
ATOM     28  O   UNL     1      -3.823  -3.716   9.022  1.00  0.00    -0.383 OA
ATOM     29  H   UNL     1      -3.164  -4.448   9.040  1.00  0.00     0.211 HD
ENDBRANCH  17  28
ENDBRANCH  14  17
ENDBRANCH  12  13
BRANCH  12  30
ATOM     30  C   UNL     1      -7.378  -0.503   9.714  1.00  0.00     0.018 C 
ATOM     31  C   UNL     1      -7.976   0.910   9.800  1.00  0.00     0.010 C 
BRANCH  30  32
ATOM     32  C   UNL     1      -6.812  -0.925  11.092  1.00  0.00     0.002 C 
ATOM     33  C   UNL     1      -7.804  -1.616  12.019  1.00  0.00     0.004 C 
ENDBRANCH  30  32
ENDBRANCH  12  30
ENDBRANCH  10  12
ENDBRANCH   1  10
BRANCH   5  34
ATOM     34  C   UNL     1      -7.838  -3.806   8.473  1.00  0.00     0.242 C 
ATOM     35  O   UNL     1      -6.684  -3.988   8.861  1.00  0.00    -0.273 OA
ATOM     36  N   UNL     1      -8.933  -4.268   9.167  1.00  0.00    -0.354 N 
ATOM     37  H   UNL     1      -9.856  -4.193   8.736  1.00  0.00     0.163 HD
BRANCH  36  38
ATOM     38  C   UNL     1      -8.836  -4.760  10.526  1.00  0.00     0.116 C 
BRANCH  38  39
ATOM     39  C   UNL     1      -9.594  -6.080  10.654  1.00  0.00     0.023 C 
BRANCH  39  40
ATOM     40  C   UNL     1      -9.205  -7.082   9.572  1.00  0.00     0.026 C 
BRANCH  40  41
ATOM     41  C   UNL     1      -7.722  -7.439   9.671  1.00  0.00     0.146 C 
BRANCH  41  42
ATOM     42  N   UNL     1      -7.199  -7.741   8.345  1.00  0.00    -0.254 NA
ATOM     43  C   UNL     1      -6.044  -7.306   8.006  1.00  0.00     0.185 C 
ATOM     44  N   UNL     1      -5.158  -6.568   8.701  1.00  0.00    -0.370 N 
ATOM     45  N   UNL     1      -5.581  -7.592   6.778  1.00  0.00    -0.370 N 
ATOM     46  H   UNL     1      -4.405  -6.095   8.231  1.00  0.00     0.159 HD
ATOM     47  H   UNL     1      -5.342  -6.274   9.655  1.00  0.00     0.159 HD
ATOM     48  H   UNL     1      -6.184  -8.154   6.191  1.00  0.00     0.159 HD
ATOM     49  H   UNL     1      -4.614  -7.498   6.525  1.00  0.00     0.159 HD
ENDBRANCH  41  42
ENDBRANCH  40  41
ENDBRANCH  39  40
ENDBRANCH  38  39
ENDBRANCH  36  38
ENDBRANCH   5  34
BRANCH   8  50
ATOM     50  O   UNL     1      -3.940  -5.200   6.147  1.00  0.00    -0.245 OA
BRANCH  50  51
ATOM     51  S   UNL     1      -2.497  -5.926   6.331  1.00  0.00     0.397 S 
ATOM     52  O   UNL     1      -2.507  -7.144   5.551  1.00  0.00    -0.169 OA
ATOM     53  O   UNL     1      -2.126  -5.924   7.731  1.00  0.00    -0.169 OA
BRANCH  51  54
ATOM     54  O   UNL     1      -1.513  -4.918   5.556  1.00  0.00    -0.264 OA
ATOM     55  H   UNL     1      -0.649  -5.366   5.450  1.00  0.00     0.236 HD
ENDBRANCH  51  54
ENDBRANCH  50  51
ENDBRANCH   8  50
TORSDOF 19
ENDMDL
MODEL 28
REMARK VINA RESULT:    -7.851      3.718      7.242
REMARK INTER + INTRA:         -18.559
REMARK INTER:                 -16.002
REMARK INTRA:                  -2.557
REMARK UNBOUND:                -2.676
REMARK SMILES CC[C@@H](C)[C@@H](NC(=O)[C@@H](O)Cc1ccc(O)c(Cl)c1)C(=O)N1[C@H](C(=O)NCCCCN=C(N)N)C[C@H]2CC[C@H](OS(=O)(=O)O)C[C@@H]21
REMARK SMILES IDX 22 1 36 2 46 3 35 4 23 5 45 6 37 7 39 8 38 9 20 10 21 11
REMARK SMILES IDX 5 12 6 13 7 14 8 15 9 17 11 18 12 19 17 20 19 21 15 22 14 23
REMARK SMILES IDX 13 24 18 25 16 26 10 28 3 30 4 31 2 32 1 33 24 34 25 35
REMARK SMILES IDX 26 36 27 38 28 39 29 40 30 41 31 42 32 43 33 44 34 45 40 50
REMARK SMILES IDX 41 51 42 52 43 53 44 54
REMARK H PARENT 6 16 16 27 10 29 26 37 33 46 33 47 34 48 34 49 44 55
ROOT
ATOM      1  N   UNL     1      -5.519  -4.246   7.608  1.00  0.00    -0.326 N 
ATOM      2  C   UNL     1      -7.128  -5.597   6.544  1.00  0.00     0.014 C 
ATOM      3  C   UNL     1      -5.769  -5.646   7.250  1.00  0.00     0.091 C 
ATOM      4  C   UNL     1      -7.083  -4.258   5.824  1.00  0.00     0.041 C 
ATOM      5  C   UNL     1      -6.511  -3.367   6.941  1.00  0.00     0.175 C 
ATOM      6  C   UNL     1      -5.845  -6.678   8.373  1.00  0.00     0.059 C 
ATOM      7  C   UNL     1      -7.369  -6.863   5.746  1.00  0.00     0.008 C 
ATOM      8  C   UNL     1      -6.794  -7.858   8.069  1.00  0.00     0.143 C 
ATOM      9  C   UNL     1      -6.943  -8.106   6.555  1.00  0.00     0.034 C 
ENDROOT
BRANCH   1  10
ATOM     10  C   UNL     1      -4.434  -3.675   8.249  1.00  0.00     0.246 C 
ATOM     11  O   UNL     1      -4.243  -3.923   9.445  1.00  0.00    -0.272 OA
BRANCH  10  12
ATOM     12  C   UNL     1      -3.456  -2.770   7.444  1.00  0.00     0.174 C 
BRANCH  12  13
ATOM     13  N   UNL     1      -2.092  -3.285   7.557  1.00  0.00    -0.342 N 
ATOM     14  C   UNL     1      -1.628  -4.432   6.954  1.00  0.00     0.249 C 
ATOM     15  O   UNL     1      -2.309  -5.142   6.223  1.00  0.00    -0.272 OA
ATOM     16  H   UNL     1      -1.461  -2.892   8.251  1.00  0.00     0.164 HD
BRANCH  14  17
ATOM     17  C   UNL     1      -0.147  -4.719   7.279  1.00  0.00     0.207 C 
BRANCH  17  18
ATOM     18  C   UNL     1       0.339  -3.809   8.412  1.00  0.00     0.077 C 
BRANCH  18  19
ATOM     19  C   UNL     1       0.673  -4.594   9.660  1.00  0.00    -0.043 A 
ATOM     20  C   UNL     1       0.160  -6.377  11.223  1.00  0.00     0.083 A 
ATOM     21  C   UNL     1      -0.122  -5.685  10.044  1.00  0.00     0.028 A 
ATOM     22  C   UNL     1       1.232  -5.983  12.024  1.00  0.00     0.134 A 
ATOM     23  C   UNL     1       2.028  -4.905  11.656  1.00  0.00     0.048 A 
ATOM     24  C   UNL     1       1.747  -4.209  10.477  1.00  0.00     0.008 A 
ATOM     25  Cl  UNL     1      -0.829  -7.715  11.679  1.00  0.00    -0.080 Cl
BRANCH  22  26
ATOM     26  O   UNL     1       1.541  -6.624  13.194  1.00  0.00    -0.506 OA
ATOM     27  H   UNL     1       0.750  -6.566  13.762  1.00  0.00     0.293 HD
ENDBRANCH  22  26
ENDBRANCH  18  19
ENDBRANCH  17  18
BRANCH  17  28
ATOM     28  O   UNL     1       0.684  -4.526   6.123  1.00  0.00    -0.383 OA
ATOM     29  H   UNL     1       0.890  -5.426   5.783  1.00  0.00     0.211 HD
ENDBRANCH  17  28
ENDBRANCH  14  17
ENDBRANCH  12  13
BRANCH  12  30
ATOM     30  C   UNL     1      -3.559  -1.273   7.842  1.00  0.00     0.018 C 
ATOM     31  C   UNL     1      -4.364  -0.484   6.797  1.00  0.00     0.010 C 
BRANCH  30  32
ATOM     32  C   UNL     1      -2.187  -0.597   8.078  1.00  0.00     0.002 C 
ATOM     33  C   UNL     1      -1.789  -0.423   9.538  1.00  0.00     0.004 C 
ENDBRANCH  30  32
ENDBRANCH  12  30
ENDBRANCH  10  12
ENDBRANCH   1  10
BRANCH   5  34
ATOM     34  C   UNL     1      -7.613  -2.924   7.941  1.00  0.00     0.242 C 
ATOM     35  O   UNL     1      -7.831  -3.530   8.990  1.00  0.00    -0.273 OA
ATOM     36  N   UNL     1      -8.364  -1.841   7.543  1.00  0.00    -0.354 N 
ATOM     37  H   UNL     1      -8.215  -1.456   6.609  1.00  0.00     0.163 HD
BRANCH  36  38
ATOM     38  C   UNL     1      -9.281  -1.165   8.437  1.00  0.00     0.116 C 
BRANCH  38  39
ATOM     39  C   UNL     1      -8.709   0.193   8.838  1.00  0.00     0.023 C 
BRANCH  39  40
ATOM     40  C   UNL     1      -8.981   0.531  10.300  1.00  0.00     0.026 C 
BRANCH  40  41
ATOM     41  C   UNL     1      -9.939  -0.484  10.922  1.00  0.00     0.146 C 
BRANCH  41  42
ATOM     42  N   UNL     1      -9.599  -0.688  12.324  1.00  0.00    -0.254 NA
ATOM     43  C   UNL     1     -10.430  -0.343  13.234  1.00  0.00     0.185 C 
ATOM     44  N   UNL     1     -11.650   0.214  13.126  1.00  0.00    -0.370 N 
ATOM     45  N   UNL     1     -10.095  -0.535  14.521  1.00  0.00    -0.370 N 
ATOM     46  H   UNL     1     -12.085   0.654  13.919  1.00  0.00     0.159 HD
ATOM     47  H   UNL     1     -12.065   0.416  12.222  1.00  0.00     0.159 HD
ATOM     48  H   UNL     1      -9.193  -0.959  14.691  1.00  0.00     0.159 HD
ATOM     49  H   UNL     1     -10.767  -0.515  15.267  1.00  0.00     0.159 HD
ENDBRANCH  41  42
ENDBRANCH  40  41
ENDBRANCH  39  40
ENDBRANCH  38  39
ENDBRANCH  36  38
ENDBRANCH   5  34
BRANCH   8  50
ATOM     50  O   UNL     1      -8.087  -7.600   8.616  1.00  0.00    -0.245 OA
BRANCH  50  51
ATOM     51  S   UNL     1      -8.354  -7.851  10.201  1.00  0.00     0.397 S 
ATOM     52  O   UNL     1      -8.653  -6.575  10.811  1.00  0.00    -0.169 OA
ATOM     53  O   UNL     1      -7.330  -8.726  10.734  1.00  0.00    -0.169 OA
BRANCH  51  54
ATOM     54  O   UNL     1      -9.741  -8.664  10.184  1.00  0.00    -0.264 OA
ATOM     55  H   UNL     1      -9.730  -9.289  10.937  1.00  0.00     0.236 HD
ENDBRANCH  51  54
ENDBRANCH  50  51
ENDBRANCH   8  50
TORSDOF 19
ENDMDL
MODEL 29
REMARK VINA RESULT:    -7.850      3.931      7.195
REMARK INTER + INTRA:         -18.558
REMARK INTER:                 -14.881
REMARK INTRA:                  -3.677
REMARK UNBOUND:                -2.676
REMARK SMILES CC[C@@H](C)[C@@H](NC(=O)[C@@H](O)Cc1ccc(O)c(Cl)c1)C(=O)N1[C@H](C(=O)NCCCCN=C(N)N)C[C@H]2CC[C@H](OS(=O)(=O)O)C[C@@H]21
REMARK SMILES IDX 22 1 36 2 46 3 35 4 23 5 45 6 37 7 39 8 38 9 20 10 21 11
REMARK SMILES IDX 5 12 6 13 7 14 8 15 9 17 11 18 12 19 17 20 19 21 15 22 14 23
REMARK SMILES IDX 13 24 18 25 16 26 10 28 3 30 4 31 2 32 1 33 24 34 25 35
REMARK SMILES IDX 26 36 27 38 28 39 29 40 30 41 31 42 32 43 33 44 34 45 40 50
REMARK SMILES IDX 41 51 42 52 43 53 44 54
REMARK H PARENT 6 16 16 27 10 29 26 37 33 46 33 47 34 48 34 49 44 55
ROOT
ATOM      1  N   UNL     1      -3.791  -2.136   6.782  1.00  0.00    -0.326 N 
ATOM      2  C   UNL     1      -5.802  -2.226   5.561  1.00  0.00     0.014 C 
ATOM      3  C   UNL     1      -4.426  -2.885   5.693  1.00  0.00     0.091 C 
ATOM      4  C   UNL     1      -5.508  -0.769   5.881  1.00  0.00     0.041 C 
ATOM      5  C   UNL     1      -4.602  -0.938   7.114  1.00  0.00     0.175 C 
ATOM      6  C   UNL     1      -4.625  -4.389   5.869  1.00  0.00     0.059 C 
ATOM      7  C   UNL     1      -6.447  -2.581   4.236  1.00  0.00     0.008 C 
ATOM      8  C   UNL     1      -5.869  -4.941   5.140  1.00  0.00     0.143 C 
ATOM      9  C   UNL     1      -6.255  -4.079   3.920  1.00  0.00     0.034 C 
ENDROOT
BRANCH   1  10
ATOM     10  C   UNL     1      -2.528  -2.270   7.333  1.00  0.00     0.246 C 
ATOM     11  O   UNL     1      -1.752  -1.309   7.299  1.00  0.00    -0.272 OA
BRANCH  10  12
ATOM     12  C   UNL     1      -2.130  -3.609   8.020  1.00  0.00     0.174 C 
BRANCH  12  13
ATOM     13  N   UNL     1      -1.275  -3.341   9.176  1.00  0.00    -0.342 N 
ATOM     14  C   UNL     1      -1.668  -3.448  10.491  1.00  0.00     0.249 C 
ATOM     15  O   UNL     1      -2.784  -3.810  10.842  1.00  0.00    -0.272 OA
ATOM     16  H   UNL     1      -0.376  -2.883   9.042  1.00  0.00     0.164 HD
BRANCH  14  17
ATOM     17  C   UNL     1      -0.541  -3.081  11.480  1.00  0.00     0.207 C 
BRANCH  17  18
ATOM     18  C   UNL     1      -0.048  -1.653  11.225  1.00  0.00     0.077 C 
BRANCH  18  19
ATOM     19  C   UNL     1       0.663  -1.080  12.431  1.00  0.00    -0.043 A 
ATOM     20  C   UNL     1       0.618  -0.321  14.734  1.00  0.00     0.083 A 
ATOM     21  C   UNL     1      -0.028  -0.895  13.639  1.00  0.00     0.028 A 
ATOM     22  C   UNL     1       1.952   0.073  14.630  1.00  0.00     0.134 A 
ATOM     23  C   UNL     1       2.648  -0.104  13.440  1.00  0.00     0.048 A 
ATOM     24  C   UNL     1       2.004  -0.677  12.341  1.00  0.00     0.008 A 
ATOM     25  Cl  UNL     1      -0.247  -0.102  16.210  1.00  0.00    -0.080 Cl
BRANCH  22  26
ATOM     26  O   UNL     1       2.624   0.651  15.674  1.00  0.00    -0.506 OA
ATOM     27  H   UNL     1       3.369   1.147  15.287  1.00  0.00     0.293 HD
ENDBRANCH  22  26
ENDBRANCH  18  19
ENDBRANCH  17  18
BRANCH  17  28
ATOM     28  O   UNL     1       0.562  -3.994  11.369  1.00  0.00    -0.383 OA
ATOM     29  H   UNL     1       0.313  -4.638  10.669  1.00  0.00     0.211 HD
ENDBRANCH  17  28
ENDBRANCH  14  17
ENDBRANCH  12  13
BRANCH  12  30
ATOM     30  C   UNL     1      -1.491  -4.622   7.032  1.00  0.00     0.018 C 
ATOM     31  C   UNL     1      -1.760  -6.067   7.482  1.00  0.00     0.010 C 
BRANCH  30  32
ATOM     32  C   UNL     1       0.027  -4.406   6.815  1.00  0.00     0.002 C 
ATOM     33  C   UNL     1       0.937  -5.311   7.636  1.00  0.00     0.004 C 
ENDBRANCH  30  32
ENDBRANCH  12  30
ENDBRANCH  10  12
ENDBRANCH   1  10
BRANCH   5  34
ATOM     34  C   UNL     1      -5.430  -1.176   8.405  1.00  0.00     0.242 C 
ATOM     35  O   UNL     1      -5.446  -2.261   8.986  1.00  0.00    -0.273 OA
ATOM     36  N   UNL     1      -6.187  -0.103   8.821  1.00  0.00    -0.354 N 
ATOM     37  H   UNL     1      -6.225   0.729   8.232  1.00  0.00     0.163 HD
BRANCH  36  38
ATOM     38  C   UNL     1      -6.845  -0.075  10.111  1.00  0.00     0.116 C 
BRANCH  38  39
ATOM     39  C   UNL     1      -8.359  -0.126   9.921  1.00  0.00     0.023 C 
BRANCH  39  40
ATOM     40  C   UNL     1      -9.054  -0.952  10.998  1.00  0.00     0.026 C 
BRANCH  40  41
ATOM     41  C   UNL     1      -9.781  -2.147  10.381  1.00  0.00     0.146 C 
BRANCH  41  42
ATOM     42  N   UNL     1      -9.644  -2.111   8.931  1.00  0.00    -0.254 NA
ATOM     43  C   UNL     1      -8.854  -2.934   8.349  1.00  0.00     0.185 C 
ATOM     44  N   UNL     1      -8.071  -3.897   8.870  1.00  0.00    -0.370 N 
ATOM     45  N   UNL     1      -8.738  -2.882   7.012  1.00  0.00    -0.370 N 
ATOM     46  H   UNL     1      -7.326  -4.300   8.328  1.00  0.00     0.159 HD
ATOM     47  H   UNL     1      -8.047  -4.082   9.868  1.00  0.00     0.159 HD
ATOM     48  H   UNL     1      -9.302  -2.188   6.540  1.00  0.00     0.159 HD
ATOM     49  H   UNL     1      -8.337  -3.627   6.472  1.00  0.00     0.159 HD
ENDBRANCH  41  42
ENDBRANCH  40  41
ENDBRANCH  39  40
ENDBRANCH  38  39
ENDBRANCH  36  38
ENDBRANCH   5  34
BRANCH   8  50
ATOM     50  O   UNL     1      -6.982  -4.985   6.033  1.00  0.00    -0.245 OA
BRANCH  50  51
ATOM     51  S   UNL     1      -7.503  -6.420   6.595  1.00  0.00     0.397 S 
ATOM     52  O   UNL     1      -6.939  -6.616   7.911  1.00  0.00    -0.169 OA
ATOM     53  O   UNL     1      -7.378  -7.423   5.557  1.00  0.00    -0.169 OA
BRANCH  51  54
ATOM     54  O   UNL     1      -9.069  -6.140   6.827  1.00  0.00    -0.264 OA
ATOM     55  H   UNL     1      -9.183  -5.178   6.968  1.00  0.00     0.236 HD
ENDBRANCH  51  54
ENDBRANCH  50  51
ENDBRANCH   8  50
TORSDOF 19
ENDMDL
MODEL 30
REMARK VINA RESULT:    -7.843      3.527      7.375
REMARK INTER + INTRA:         -18.543
REMARK INTER:                 -14.800
REMARK INTRA:                  -3.743
REMARK UNBOUND:                -2.676
REMARK SMILES CC[C@@H](C)[C@@H](NC(=O)[C@@H](O)Cc1ccc(O)c(Cl)c1)C(=O)N1[C@H](C(=O)NCCCCN=C(N)N)C[C@H]2CC[C@H](OS(=O)(=O)O)C[C@@H]21
REMARK SMILES IDX 22 1 36 2 46 3 35 4 23 5 45 6 37 7 39 8 38 9 20 10 21 11
REMARK SMILES IDX 5 12 6 13 7 14 8 15 9 17 11 18 12 19 17 20 19 21 15 22 14 23
REMARK SMILES IDX 13 24 18 25 16 26 10 28 3 30 4 31 2 32 1 33 24 34 25 35
REMARK SMILES IDX 26 36 27 38 28 39 29 40 30 41 31 42 32 43 33 44 34 45 40 50
REMARK SMILES IDX 41 51 42 52 43 53 44 54
REMARK H PARENT 6 16 16 27 10 29 26 37 33 46 33 47 34 48 34 49 44 55
ROOT
ATOM      1  N   UNL     1      -3.552  -5.546   9.247  1.00  0.00    -0.326 N 
ATOM      2  C   UNL     1      -1.314  -4.846   9.040  1.00  0.00     0.014 C 
ATOM      3  C   UNL     1      -2.550  -5.234   8.224  1.00  0.00     0.091 C 
ATOM      4  C   UNL     1      -1.414  -5.757  10.254  1.00  0.00     0.041 C 
ATOM      5  C   UNL     1      -2.911  -5.607  10.584  1.00  0.00     0.175 C 
ATOM      6  C   UNL     1      -2.849  -4.108   7.236  1.00  0.00     0.059 C 
ATOM      7  C   UNL     1      -0.064  -4.885   8.183  1.00  0.00     0.008 C 
ATOM      8  C   UNL     1      -1.590  -3.360   6.745  1.00  0.00     0.143 C 
ATOM      9  C   UNL     1      -0.331  -4.248   6.803  1.00  0.00     0.034 C 
ENDROOT
BRANCH   1  10
ATOM     10  C   UNL     1      -4.860  -5.975   9.106  1.00  0.00     0.246 C 
ATOM     11  O   UNL     1      -5.781  -5.201   9.389  1.00  0.00    -0.272 OA
BRANCH  10  12
ATOM     12  C   UNL     1      -5.144  -7.403   8.556  1.00  0.00     0.174 C 
BRANCH  12  13
ATOM     13  N   UNL     1      -5.860  -7.314   7.284  1.00  0.00    -0.342 N 
ATOM     14  C   UNL     1      -5.263  -7.208   6.047  1.00  0.00     0.249 C 
ATOM     15  O   UNL     1      -4.051  -7.205   5.873  1.00  0.00    -0.272 OA
ATOM     16  H   UNL     1      -6.863  -7.148   7.281  1.00  0.00     0.164 HD
BRANCH  14  17
ATOM     17  C   UNL     1      -6.289  -7.115   4.897  1.00  0.00     0.207 C 
BRANCH  17  18
ATOM     18  C   UNL     1      -7.154  -5.860   5.051  1.00  0.00     0.077 C 
BRANCH  18  19
ATOM     19  C   UNL     1      -6.596  -4.693   4.268  1.00  0.00    -0.043 A 
ATOM     20  C   UNL     1      -6.166  -2.315   4.057  1.00  0.00     0.083 A 
ATOM     21  C   UNL     1      -6.637  -3.396   4.803  1.00  0.00     0.028 A 
ATOM     22  C   UNL     1      -5.655  -2.521   2.775  1.00  0.00     0.134 A 
ATOM     23  C   UNL     1      -5.608  -3.800   2.233  1.00  0.00     0.048 A 
ATOM     24  C   UNL     1      -6.080  -4.884   2.976  1.00  0.00     0.008 A 
ATOM     25  Cl  UNL     1      -6.225  -0.729   4.731  1.00  0.00    -0.080 Cl
BRANCH  22  26
ATOM     26  O   UNL     1      -5.191  -1.491   2.002  1.00  0.00    -0.506 OA
ATOM     27  H   UNL     1      -5.668  -0.690   2.287  1.00  0.00     0.293 HD
ENDBRANCH  22  26
ENDBRANCH  18  19
ENDBRANCH  17  18
BRANCH  17  28
ATOM     28  O   UNL     1      -7.135  -8.276   4.863  1.00  0.00    -0.383 OA
ATOM     29  H   UNL     1      -8.029  -7.968   5.136  1.00  0.00     0.211 HD
ENDBRANCH  17  28
ENDBRANCH  14  17
ENDBRANCH  12  13
BRANCH  12  30
ATOM     30  C   UNL     1      -5.875  -8.308   9.584  1.00  0.00     0.018 C 
ATOM     31  C   UNL     1      -7.391  -8.303   9.336  1.00  0.00     0.010 C 
BRANCH  30  32
ATOM     32  C   UNL     1      -5.575  -7.941  11.058  1.00  0.00     0.002 C 
ATOM     33  C   UNL     1      -4.421  -8.701  11.697  1.00  0.00     0.004 C 
ENDBRANCH  30  32
ENDBRANCH  12  30
ENDBRANCH  10  12
ENDBRANCH   1  10
BRANCH   5  34
ATOM     34  C   UNL     1      -3.192  -4.310  11.389  1.00  0.00     0.242 C 
ATOM     35  O   UNL     1      -2.303  -3.509  11.677  1.00  0.00    -0.273 OA
ATOM     36  N   UNL     1      -4.495  -4.149  11.804  1.00  0.00    -0.354 N 
ATOM     37  H   UNL     1      -5.160  -4.906  11.638  1.00  0.00     0.163 HD
BRANCH  36  38
ATOM     38  C   UNL     1      -4.977  -2.908  12.373  1.00  0.00     0.116 C 
BRANCH  38  39
ATOM     39  C   UNL     1      -6.501  -2.858  12.290  1.00  0.00     0.023 C 
BRANCH  39  40
ATOM     40  C   UNL     1      -7.000  -1.684  11.455  1.00  0.00     0.026 C 
BRANCH  40  41
ATOM     41  C   UNL     1      -6.399  -1.723  10.050  1.00  0.00     0.146 C 
BRANCH  41  42
ATOM     42  N   UNL     1      -7.361  -1.200   9.088  1.00  0.00    -0.254 NA
ATOM     43  C   UNL     1      -7.974  -2.005   8.304  1.00  0.00     0.185 C 
ATOM     44  N   UNL     1      -7.889  -3.343   8.198  1.00  0.00    -0.370 N 
ATOM     45  N   UNL     1      -8.853  -1.502   7.421  1.00  0.00    -0.370 N 
ATOM     46  H   UNL     1      -8.240  -3.817   7.383  1.00  0.00     0.159 HD
ATOM     47  H   UNL     1      -7.280  -3.888   8.801  1.00  0.00     0.159 HD
ATOM     48  H   UNL     1      -8.984  -0.499   7.441  1.00  0.00     0.159 HD
ATOM     49  H   UNL     1      -9.535  -2.069   6.949  1.00  0.00     0.159 HD
ENDBRANCH  41  42
ENDBRANCH  40  41
ENDBRANCH  39  40
ENDBRANCH  38  39
ENDBRANCH  36  38
ENDBRANCH   5  34
BRANCH   8  50
ATOM     50  O   UNL     1      -1.365  -2.201   7.548  1.00  0.00    -0.245 OA
BRANCH  50  51
ATOM     51  S   UNL     1      -2.593  -1.176   7.840  1.00  0.00     0.397 S 
ATOM     52  O   UNL     1      -3.006  -1.353   9.214  1.00  0.00    -0.169 OA
ATOM     53  O   UNL     1      -3.544  -1.231   6.749  1.00  0.00    -0.169 OA
BRANCH  51  54
ATOM     54  O   UNL     1      -1.858   0.253   7.785  1.00  0.00    -0.264 OA
ATOM     55  H   UNL     1      -1.018   0.138   7.296  1.00  0.00     0.236 HD
ENDBRANCH  51  54
ENDBRANCH  50  51
ENDBRANCH   8  50
TORSDOF 19
ENDMDL
MODEL 31
REMARK VINA RESULT:    -7.806      4.048      8.228
REMARK INTER + INTRA:         -18.467
REMARK INTER:                 -14.336
REMARK INTRA:                  -4.131
REMARK UNBOUND:                -2.676
REMARK SMILES CC[C@@H](C)[C@@H](NC(=O)[C@@H](O)Cc1ccc(O)c(Cl)c1)C(=O)N1[C@H](C(=O)NCCCCN=C(N)N)C[C@H]2CC[C@H](OS(=O)(=O)O)C[C@@H]21
REMARK SMILES IDX 22 1 36 2 46 3 35 4 23 5 45 6 37 7 39 8 38 9 20 10 21 11
REMARK SMILES IDX 5 12 6 13 7 14 8 15 9 17 11 18 12 19 17 20 19 21 15 22 14 23
REMARK SMILES IDX 13 24 18 25 16 26 10 28 3 30 4 31 2 32 1 33 24 34 25 35
REMARK SMILES IDX 26 36 27 38 28 39 29 40 30 41 31 42 32 43 33 44 34 45 40 50
REMARK SMILES IDX 41 51 42 52 43 53 44 54
REMARK H PARENT 6 16 16 27 10 29 26 37 33 46 33 47 34 48 34 49 44 55
ROOT
ATOM      1  N   UNL     1      -4.916  -4.028   6.793  1.00  0.00    -0.326 N 
ATOM      2  C   UNL     1      -4.308  -3.932   4.520  1.00  0.00     0.014 C 
ATOM      3  C   UNL     1      -5.514  -3.880   5.463  1.00  0.00     0.091 C 
ATOM      4  C   UNL     1      -3.380  -4.915   5.217  1.00  0.00     0.041 C 
ATOM      5  C   UNL     1      -3.488  -4.410   6.668  1.00  0.00     0.175 C 
ATOM      6  C   UNL     1      -6.308  -2.610   5.162  1.00  0.00     0.059 C 
ATOM      7  C   UNL     1      -4.745  -4.205   3.095  1.00  0.00     0.008 C 
ATOM      8  C   UNL     1      -6.247  -2.175   3.682  1.00  0.00     0.143 C 
ATOM      9  C   UNL     1      -5.991  -3.367   2.738  1.00  0.00     0.034 C 
ENDROOT
BRANCH   1  10
ATOM     10  C   UNL     1      -5.520  -4.073   8.038  1.00  0.00     0.246 C 
ATOM     11  O   UNL     1      -6.073  -3.058   8.475  1.00  0.00    -0.272 OA
BRANCH  10  12
ATOM     12  C   UNL     1      -5.529  -5.408   8.838  1.00  0.00     0.174 C 
BRANCH  12  13
ATOM     13  N   UNL     1      -4.196  -5.674   9.379  1.00  0.00    -0.342 N 
ATOM     14  C   UNL     1      -3.770  -5.318  10.639  1.00  0.00     0.249 C 
ATOM     15  O   UNL     1      -4.478  -4.757  11.465  1.00  0.00    -0.272 OA
ATOM     16  H   UNL     1      -3.455  -5.990   8.759  1.00  0.00     0.164 HD
BRANCH  14  17
ATOM     17  C   UNL     1      -2.305  -5.722  10.907  1.00  0.00     0.207 C 
BRANCH  17  18
ATOM     18  C   UNL     1      -1.463  -5.562   9.637  1.00  0.00     0.077 C 
BRANCH  18  19
ATOM     19  C   UNL     1      -0.199  -4.773   9.896  1.00  0.00    -0.043 A 
ATOM     20  C   UNL     1       1.951  -3.941   9.142  1.00  0.00     0.083 A 
ATOM     21  C   UNL     1       0.764  -4.627   8.885  1.00  0.00     0.028 A 
ATOM     22  C   UNL     1       2.184  -3.398  10.406  1.00  0.00     0.134 A 
ATOM     23  C   UNL     1       1.239  -3.536  11.416  1.00  0.00     0.048 A 
ATOM     24  C   UNL     1       0.050  -4.224  11.163  1.00  0.00     0.008 A 
ATOM     25  Cl  UNL     1       3.122  -3.772   7.887  1.00  0.00    -0.080 Cl
BRANCH  22  26
ATOM     26  O   UNL     1       3.337  -2.726  10.709  1.00  0.00    -0.506 OA
ATOM     27  H   UNL     1       4.054  -3.387  10.711  1.00  0.00     0.293 HD
ENDBRANCH  22  26
ENDBRANCH  18  19
ENDBRANCH  17  18
BRANCH  17  28
ATOM     28  O   UNL     1      -2.218  -7.080  11.368  1.00  0.00    -0.383 OA
ATOM     29  H   UNL     1      -2.929  -7.185  12.041  1.00  0.00     0.211 HD
ENDBRANCH  17  28
ENDBRANCH  14  17
ENDBRANCH  12  13
BRANCH  12  30
ATOM     30  C   UNL     1      -6.080  -6.600   8.010  1.00  0.00     0.018 C 
ATOM     31  C   UNL     1      -7.504  -6.307   7.511  1.00  0.00     0.010 C 
BRANCH  30  32
ATOM     32  C   UNL     1      -6.050  -7.950   8.768  1.00  0.00     0.002 C 
ATOM     33  C   UNL     1      -7.028  -9.002   8.262  1.00  0.00     0.004 C 
ENDBRANCH  30  32
ENDBRANCH  12  30
ENDBRANCH  10  12
ENDBRANCH   1  10
BRANCH   5  34
ATOM     34  C   UNL     1      -2.567  -3.185   6.917  1.00  0.00     0.242 C 
ATOM     35  O   UNL     1      -1.412  -3.134   6.494  1.00  0.00    -0.273 OA
ATOM     36  N   UNL     1      -3.117  -2.186   7.689  1.00  0.00    -0.354 N 
ATOM     37  H   UNL     1      -4.034  -2.339   8.110  1.00  0.00     0.163 HD
BRANCH  36  38
ATOM     38  C   UNL     1      -2.487  -0.891   7.840  1.00  0.00     0.116 C 
BRANCH  38  39
ATOM     39  C   UNL     1      -1.889  -0.765   9.239  1.00  0.00     0.023 C 
BRANCH  39  40
ATOM     40  C   UNL     1      -2.436  -1.813  10.203  1.00  0.00     0.026 C 
BRANCH  40  41
ATOM     41  C   UNL     1      -3.270  -1.155  11.302  1.00  0.00     0.146 C 
BRANCH  41  42
ATOM     42  N   UNL     1      -4.423  -0.487  10.714  1.00  0.00    -0.254 NA
ATOM     43  C   UNL     1      -5.583  -1.019  10.816  1.00  0.00     0.185 C 
ATOM     44  N   UNL     1      -5.960  -2.165  11.411  1.00  0.00    -0.370 N 
ATOM     45  N   UNL     1      -6.632  -0.390  10.262  1.00  0.00    -0.370 N 
ATOM     46  H   UNL     1      -6.852  -2.581  11.205  1.00  0.00     0.159 HD
ATOM     47  H   UNL     1      -5.293  -2.761  11.892  1.00  0.00     0.159 HD
ATOM     48  H   UNL     1      -6.436   0.487   9.800  1.00  0.00     0.159 HD
ATOM     49  H   UNL     1      -7.584  -0.610  10.497  1.00  0.00     0.159 HD
ENDBRANCH  41  42
ENDBRANCH  40  41
ENDBRANCH  39  40
ENDBRANCH  38  39
ENDBRANCH  36  38
ENDBRANCH   5  34
BRANCH   8  50
ATOM     50  O   UNL     1      -5.206  -1.217   3.495  1.00  0.00    -0.245 OA
BRANCH  50  51
ATOM     51  S   UNL     1      -5.586   0.347   3.257  1.00  0.00     0.397 S 
ATOM     52  O   UNL     1      -6.231   0.836   4.455  1.00  0.00    -0.169 OA
ATOM     53  O   UNL     1      -6.189   0.507   1.950  1.00  0.00    -0.169 OA
BRANCH  51  54
ATOM     54  O   UNL     1      -4.137   1.043   3.224  1.00  0.00    -0.264 OA
ATOM     55  H   UNL     1      -4.029   1.465   2.347  1.00  0.00     0.236 HD
ENDBRANCH  51  54
ENDBRANCH  50  51
ENDBRANCH   8  50
TORSDOF 19
ENDMDL
MODEL 32
REMARK VINA RESULT:    -7.804      3.799      5.742
REMARK INTER + INTRA:         -18.464
REMARK INTER:                 -14.704
REMARK INTRA:                  -3.761
REMARK UNBOUND:                -2.676
REMARK SMILES CC[C@@H](C)[C@@H](NC(=O)[C@@H](O)Cc1ccc(O)c(Cl)c1)C(=O)N1[C@H](C(=O)NCCCCN=C(N)N)C[C@H]2CC[C@H](OS(=O)(=O)O)C[C@@H]21
REMARK SMILES IDX 22 1 36 2 46 3 35 4 23 5 45 6 37 7 39 8 38 9 20 10 21 11
REMARK SMILES IDX 5 12 6 13 7 14 8 15 9 17 11 18 12 19 17 20 19 21 15 22 14 23
REMARK SMILES IDX 13 24 18 25 16 26 10 28 3 30 4 31 2 32 1 33 24 34 25 35
REMARK SMILES IDX 26 36 27 38 28 39 29 40 30 41 31 42 32 43 33 44 34 45 40 50
REMARK SMILES IDX 41 51 42 52 43 53 44 54
REMARK H PARENT 6 16 16 27 10 29 26 37 33 46 33 47 34 48 34 49 44 55
ROOT
ATOM      1  N   UNL     1      -5.182  -3.128   8.518  1.00  0.00    -0.326 N 
ATOM      2  C   UNL     1      -3.877  -3.694   6.642  1.00  0.00     0.014 C 
ATOM      3  C   UNL     1      -4.473  -4.269   7.931  1.00  0.00     0.091 C 
ATOM      4  C   UNL     1      -3.543  -2.264   7.037  1.00  0.00     0.041 C 
ATOM      5  C   UNL     1      -4.829  -1.883   7.793  1.00  0.00     0.175 C 
ATOM      6  C   UNL     1      -5.279  -5.517   7.576  1.00  0.00     0.059 C 
ATOM      7  C   UNL     1      -2.780  -4.593   6.105  1.00  0.00     0.008 C 
ATOM      8  C   UNL     1      -4.717  -6.296   6.366  1.00  0.00     0.143 C 
ATOM      9  C   UNL     1      -3.201  -6.075   6.188  1.00  0.00     0.034 C 
ENDROOT
BRANCH   1  10
ATOM     10  C   UNL     1      -5.897  -3.041   9.700  1.00  0.00     0.246 C 
ATOM     11  O   UNL     1      -6.374  -4.069  10.192  1.00  0.00    -0.272 OA
BRANCH  10  12
ATOM     12  C   UNL     1      -6.050  -1.661  10.405  1.00  0.00     0.174 C 
BRANCH  12  13
ATOM     13  N   UNL     1      -5.678  -1.778  11.815  1.00  0.00    -0.342 N 
ATOM     14  C   UNL     1      -4.418  -1.553  12.321  1.00  0.00     0.249 C 
ATOM     15  O   UNL     1      -3.462  -1.200  11.641  1.00  0.00    -0.272 OA
ATOM     16  H   UNL     1      -6.322  -2.212  12.471  1.00  0.00     0.164 HD
BRANCH  14  17
ATOM     17  C   UNL     1      -4.340  -1.775  13.846  1.00  0.00     0.207 C 
BRANCH  17  18
ATOM     18  C   UNL     1      -3.696  -0.565  14.531  1.00  0.00     0.077 C 
BRANCH  18  19
ATOM     19  C   UNL     1      -4.423  -0.185  15.801  1.00  0.00    -0.043 A 
ATOM     20  C   UNL     1      -5.832  -0.793  17.680  1.00  0.00     0.083 A 
ATOM     21  C   UNL     1      -5.121  -1.157  16.536  1.00  0.00     0.028 A 
ATOM     22  C   UNL     1      -5.852   0.538  18.096  1.00  0.00     0.134 A 
ATOM     23  C   UNL     1      -5.165   1.511  17.378  1.00  0.00     0.048 A 
ATOM     24  C   UNL     1      -4.454   1.150  16.232  1.00  0.00     0.008 A 
ATOM     25  Cl  UNL     1      -6.684  -2.001  18.569  1.00  0.00    -0.080 Cl
BRANCH  22  26
ATOM     26  O   UNL     1      -6.544   0.944  19.205  1.00  0.00    -0.506 OA
ATOM     27  H   UNL     1      -6.044   1.688  19.591  1.00  0.00     0.293 HD
ENDBRANCH  22  26
ENDBRANCH  18  19
ENDBRANCH  17  18
BRANCH  17  28
ATOM     28  O   UNL     1      -3.587  -2.957  14.160  1.00  0.00    -0.383 OA
ATOM     29  H   UNL     1      -3.910  -3.656  13.547  1.00  0.00     0.211 HD
ENDBRANCH  17  28
ENDBRANCH  14  17
ENDBRANCH  12  13
BRANCH  12  30
ATOM     30  C   UNL     1      -7.460  -1.042  10.213  1.00  0.00     0.018 C 
ATOM     31  C   UNL     1      -7.359   0.381   9.642  1.00  0.00     0.010 C 
BRANCH  30  32
ATOM     32  C   UNL     1      -8.318  -1.038  11.502  1.00  0.00     0.002 C 
ATOM     33  C   UNL     1      -9.412   0.020  11.553  1.00  0.00     0.004 C 
ENDBRANCH  30  32
ENDBRANCH  12  30
ENDBRANCH  10  12
ENDBRANCH   1  10
BRANCH   5  34
ATOM     34  C   UNL     1      -5.965  -1.472   6.819  1.00  0.00     0.242 C 
ATOM     35  O   UNL     1      -6.990  -2.141   6.685  1.00  0.00    -0.273 OA
ATOM     36  N   UNL     1      -5.720  -0.338   6.078  1.00  0.00    -0.354 N 
ATOM     37  H   UNL     1      -4.803   0.105   6.145  1.00  0.00     0.163 HD
BRANCH  36  38
ATOM     38  C   UNL     1      -6.748   0.305   5.286  1.00  0.00     0.116 C 
BRANCH  38  39
ATOM     39  C   UNL     1      -6.132   0.904   4.024  1.00  0.00     0.023 C 
BRANCH  39  40
ATOM     40  C   UNL     1      -5.227  -0.082   3.293  1.00  0.00     0.026 C 
BRANCH  40  41
ATOM     41  C   UNL     1      -6.042  -0.967   2.349  1.00  0.00     0.146 C 
BRANCH  41  42
ATOM     42  N   UNL     1      -5.310  -2.197   2.073  1.00  0.00    -0.254 NA
ATOM     43  C   UNL     1      -5.492  -3.222   2.818  1.00  0.00     0.185 C 
ATOM     44  N   UNL     1      -6.295  -3.385   3.885  1.00  0.00    -0.370 N 
ATOM     45  N   UNL     1      -4.804  -4.344   2.550  1.00  0.00    -0.370 N 
ATOM     46  H   UNL     1      -6.157  -4.155   4.517  1.00  0.00     0.159 HD
ATOM     47  H   UNL     1      -6.897  -2.638   4.218  1.00  0.00     0.159 HD
ATOM     48  H   UNL     1      -4.182  -4.309   1.754  1.00  0.00     0.159 HD
ATOM     49  H   UNL     1      -5.059  -5.241   2.925  1.00  0.00     0.159 HD
ENDBRANCH  41  42
ENDBRANCH  40  41
ENDBRANCH  39  40
ENDBRANCH  38  39
ENDBRANCH  36  38
ENDBRANCH   5  34
BRANCH   8  50
ATOM     50  O   UNL     1      -5.379  -5.886   5.169  1.00  0.00    -0.245 OA
BRANCH  50  51
ATOM     51  S   UNL     1      -6.690  -6.701   4.657  1.00  0.00     0.397 S 
ATOM     52  O   UNL     1      -6.690  -7.995   5.300  1.00  0.00    -0.169 OA
ATOM     53  O   UNL     1      -6.816  -6.566   3.221  1.00  0.00    -0.169 OA
BRANCH  51  54
ATOM     54  O   UNL     1      -7.887  -5.872   5.339  1.00  0.00    -0.264 OA
ATOM     55  H   UNL     1      -8.413  -5.463   4.623  1.00  0.00     0.236 HD
ENDBRANCH  51  54
ENDBRANCH  50  51
ENDBRANCH   8  50
TORSDOF 19
ENDMDL
MODEL 33
REMARK VINA RESULT:    -7.784      4.480      8.044
REMARK INTER + INTRA:         -18.423
REMARK INTER:                 -16.387
REMARK INTRA:                  -2.036
REMARK UNBOUND:                -2.676
REMARK SMILES CC[C@@H](C)[C@@H](NC(=O)[C@@H](O)Cc1ccc(O)c(Cl)c1)C(=O)N1[C@H](C(=O)NCCCCN=C(N)N)C[C@H]2CC[C@H](OS(=O)(=O)O)C[C@@H]21
REMARK SMILES IDX 22 1 36 2 46 3 35 4 23 5 45 6 37 7 39 8 38 9 20 10 21 11
REMARK SMILES IDX 5 12 6 13 7 14 8 15 9 17 11 18 12 19 17 20 19 21 15 22 14 23
REMARK SMILES IDX 13 24 18 25 16 26 10 28 3 30 4 31 2 32 1 33 24 34 25 35
REMARK SMILES IDX 26 36 27 38 28 39 29 40 30 41 31 42 32 43 33 44 34 45 40 50
REMARK SMILES IDX 41 51 42 52 43 53 44 54
REMARK H PARENT 6 16 16 27 10 29 26 37 33 46 33 47 34 48 34 49 44 55
ROOT
ATOM      1  N   UNL     1      -4.021  -2.758   6.654  1.00  0.00    -0.326 N 
ATOM      2  C   UNL     1      -6.091  -3.268   5.655  1.00  0.00     0.014 C 
ATOM      3  C   UNL     1      -4.663  -3.791   5.834  1.00  0.00     0.091 C 
ATOM      4  C   UNL     1      -5.890  -1.762   5.586  1.00  0.00     0.041 C 
ATOM      5  C   UNL     1      -4.899  -1.566   6.748  1.00  0.00     0.175 C 
ATOM      6  C   UNL     1      -4.735  -5.213   6.387  1.00  0.00     0.059 C 
ATOM      7  C   UNL     1      -6.788  -3.978   4.511  1.00  0.00     0.008 C 
ATOM      8  C   UNL     1      -5.976  -6.001   5.914  1.00  0.00     0.143 C 
ATOM      9  C   UNL     1      -6.501  -5.494   4.556  1.00  0.00     0.034 C 
ENDROOT
BRANCH   1  10
ATOM     10  C   UNL     1      -2.720  -2.677   7.120  1.00  0.00     0.246 C 
ATOM     11  O   UNL     1      -2.177  -1.569   7.197  1.00  0.00    -0.272 OA
BRANCH  10  12
ATOM     12  C   UNL     1      -1.986  -3.971   7.577  1.00  0.00     0.174 C 
BRANCH  12  13
ATOM     13  N   UNL     1      -1.192  -3.698   8.774  1.00  0.00    -0.342 N 
ATOM     14  C   UNL     1      -1.138  -4.507   9.887  1.00  0.00     0.249 C 
ATOM     15  O   UNL     1      -1.735  -5.571   9.987  1.00  0.00    -0.272 OA
ATOM     16  H   UNL     1      -0.770  -2.782   8.901  1.00  0.00     0.164 HD
BRANCH  14  17
ATOM     17  C   UNL     1      -0.224  -3.937  10.993  1.00  0.00     0.207 C 
BRANCH  17  18
ATOM     18  C   UNL     1       1.233  -3.902  10.518  1.00  0.00     0.077 C 
BRANCH  18  19
ATOM     19  C   UNL     1       1.950  -2.660  10.997  1.00  0.00    -0.043 A 
ATOM     20  C   UNL     1       3.979  -1.343  11.183  1.00  0.00     0.083 A 
ATOM     21  C   UNL     1       3.307  -2.466  10.698  1.00  0.00     0.028 A 
ATOM     22  C   UNL     1       3.302  -0.411  11.970  1.00  0.00     0.134 A 
ATOM     23  C   UNL     1       1.957  -0.590  12.274  1.00  0.00     0.048 A 
ATOM     24  C   UNL     1       1.283  -1.714  11.791  1.00  0.00     0.008 A 
ATOM     25  Cl  UNL     1       5.647  -1.122  10.804  1.00  0.00    -0.080 Cl
BRANCH  22  26
ATOM     26  O   UNL     1       3.920   0.700  12.477  1.00  0.00    -0.506 OA
ATOM     27  H   UNL     1       4.458   1.075  11.755  1.00  0.00     0.293 HD
ENDBRANCH  22  26
ENDBRANCH  18  19
ENDBRANCH  17  18
BRANCH  17  28
ATOM     28  O   UNL     1      -0.315  -4.720  12.194  1.00  0.00    -0.383 OA
ATOM     29  H   UNL     1       0.424  -4.420  12.771  1.00  0.00     0.211 HD
ENDBRANCH  17  28
ENDBRANCH  14  17
ENDBRANCH  12  13
BRANCH  12  30
ATOM     30  C   UNL     1      -1.145  -4.616   6.442  1.00  0.00     0.018 C 
ATOM     31  C   UNL     1      -1.355  -6.137   6.403  1.00  0.00     0.010 C 
BRANCH  30  32
ATOM     32  C   UNL     1       0.366  -4.289   6.527  1.00  0.00     0.002 C 
ATOM     33  C   UNL     1       1.226  -5.355   7.193  1.00  0.00     0.004 C 
ENDBRANCH  30  32
ENDBRANCH  12  30
ENDBRANCH  10  12
ENDBRANCH   1  10
BRANCH   5  34
ATOM     34  C   UNL     1      -5.625  -1.524   8.119  1.00  0.00     0.242 C 
ATOM     35  O   UNL     1      -5.672  -2.498   8.869  1.00  0.00    -0.273 OA
ATOM     36  N   UNL     1      -6.259  -0.336   8.409  1.00  0.00    -0.354 N 
ATOM     37  H   UNL     1      -6.287   0.393   7.696  1.00  0.00     0.163 HD
BRANCH  36  38
ATOM     38  C   UNL     1      -6.797  -0.048   9.723  1.00  0.00     0.116 C 
BRANCH  38  39
ATOM     39  C   UNL     1      -8.322  -0.018   9.663  1.00  0.00     0.023 C 
BRANCH  39  40
ATOM     40  C   UNL     1      -8.965  -0.426  10.985  1.00  0.00     0.026 C 
BRANCH  40  41
ATOM     41  C   UNL     1     -10.487  -0.311  10.905  1.00  0.00     0.146 C 
BRANCH  41  42
ATOM     42  N   UNL     1     -11.023   0.047  12.212  1.00  0.00    -0.254 NA
ATOM     43  C   UNL     1     -11.431  -0.873  13.002  1.00  0.00     0.185 C 
ATOM     44  N   UNL     1     -11.457  -2.208  12.836  1.00  0.00    -0.370 N 
ATOM     45  N   UNL     1     -11.926  -0.522  14.201  1.00  0.00    -0.370 N 
ATOM     46  H   UNL     1     -12.024  -2.788  13.431  1.00  0.00     0.159 HD
ATOM     47  H   UNL     1     -11.107  -2.647  11.990  1.00  0.00     0.159 HD
ATOM     48  H   UNL     1     -11.934   0.467  14.410  1.00  0.00     0.159 HD
ATOM     49  H   UNL     1     -12.041  -1.176  14.955  1.00  0.00     0.159 HD
ENDBRANCH  41  42
ENDBRANCH  40  41
ENDBRANCH  39  40
ENDBRANCH  38  39
ENDBRANCH  36  38
ENDBRANCH   5  34
BRANCH   8  50
ATOM     50  O   UNL     1      -7.024  -5.888   6.877  1.00  0.00    -0.245 OA
BRANCH  50  51
ATOM     51  S   UNL     1      -7.499  -7.205   7.705  1.00  0.00     0.397 S 
ATOM     52  O   UNL     1      -7.059  -7.055   9.073  1.00  0.00    -0.169 OA
ATOM     53  O   UNL     1      -7.201  -8.396   6.937  1.00  0.00    -0.169 OA
BRANCH  51  54
ATOM     54  O   UNL     1      -9.097  -7.023   7.737  1.00  0.00    -0.264 OA
ATOM     55  H   UNL     1      -9.306  -6.346   8.412  1.00  0.00     0.236 HD
ENDBRANCH  51  54
ENDBRANCH  50  51
ENDBRANCH   8  50
TORSDOF 19
ENDMDL
MODEL 34
REMARK VINA RESULT:    -7.766      3.195      6.904
REMARK INTER + INTRA:         -18.387
REMARK INTER:                 -13.506
REMARK INTRA:                  -4.881
REMARK UNBOUND:                -2.676
REMARK SMILES CC[C@@H](C)[C@@H](NC(=O)[C@@H](O)Cc1ccc(O)c(Cl)c1)C(=O)N1[C@H](C(=O)NCCCCN=C(N)N)C[C@H]2CC[C@H](OS(=O)(=O)O)C[C@@H]21
REMARK SMILES IDX 22 1 36 2 46 3 35 4 23 5 45 6 37 7 39 8 38 9 20 10 21 11
REMARK SMILES IDX 5 12 6 13 7 14 8 15 9 17 11 18 12 19 17 20 19 21 15 22 14 23
REMARK SMILES IDX 13 24 18 25 16 26 10 28 3 30 4 31 2 32 1 33 24 34 25 35
REMARK SMILES IDX 26 36 27 38 28 39 29 40 30 41 31 42 32 43 33 44 34 45 40 50
REMARK SMILES IDX 41 51 42 52 43 53 44 54
REMARK H PARENT 6 16 16 27 10 29 26 37 33 46 33 47 34 48 34 49 44 55
ROOT
ATOM      1  N   UNL     1      -5.519  -3.468   8.329  1.00  0.00    -0.326 N 
ATOM      2  C   UNL     1      -6.738  -5.418   7.828  1.00  0.00     0.014 C 
ATOM      3  C   UNL     1      -5.611  -4.879   8.713  1.00  0.00     0.091 C 
ATOM      4  C   UNL     1      -6.560  -4.627   6.541  1.00  0.00     0.041 C 
ATOM      5  C   UNL     1      -6.336  -3.217   7.117  1.00  0.00     0.175 C 
ATOM      6  C   UNL     1      -5.936  -5.215  10.167  1.00  0.00     0.059 C 
ATOM      7  C   UNL     1      -6.713  -6.933   7.779  1.00  0.00     0.008 C 
ATOM      8  C   UNL     1      -6.725  -6.531  10.340  1.00  0.00     0.143 C 
ATOM      9  C   UNL     1      -6.464  -7.519   9.185  1.00  0.00     0.034 C 
ENDROOT
BRANCH   1  10
ATOM     10  C   UNL     1      -4.662  -2.479   8.782  1.00  0.00     0.246 C 
ATOM     11  O   UNL     1      -4.978  -1.819   9.778  1.00  0.00    -0.272 OA
BRANCH  10  12
ATOM     12  C   UNL     1      -3.304  -2.249   8.057  1.00  0.00     0.174 C 
BRANCH  12  13
ATOM     13  N   UNL     1      -2.604  -3.523   7.893  1.00  0.00    -0.342 N 
ATOM     14  C   UNL     1      -2.551  -4.251   6.726  1.00  0.00     0.249 C 
ATOM     15  O   UNL     1      -3.068  -3.893   5.674  1.00  0.00    -0.272 OA
ATOM     16  H   UNL     1      -2.264  -4.020   8.713  1.00  0.00     0.164 HD
BRANCH  14  17
ATOM     17  C   UNL     1      -1.750  -5.562   6.877  1.00  0.00     0.207 C 
BRANCH  17  18
ATOM     18  C   UNL     1      -0.259  -5.310   6.629  1.00  0.00     0.077 C 
BRANCH  18  19
ATOM     19  C   UNL     1       0.482  -5.016   7.914  1.00  0.00    -0.043 A 
ATOM     20  C   UNL     1       0.733  -5.301  10.310  1.00  0.00     0.083 A 
ATOM     21  C   UNL     1       0.077  -5.613   9.118  1.00  0.00     0.028 A 
ATOM     22  C   UNL     1       1.792  -4.394  10.307  1.00  0.00     0.134 A 
ATOM     23  C   UNL     1       2.204  -3.795   9.122  1.00  0.00     0.048 A 
ATOM     24  C   UNL     1       1.549  -4.104   7.928  1.00  0.00     0.008 A 
ATOM     25  Cl  UNL     1       0.220  -6.045  11.779  1.00  0.00    -0.080 Cl
BRANCH  22  26
ATOM     26  O   UNL     1       2.458  -4.049  11.452  1.00  0.00    -0.506 OA
ATOM     27  H   UNL     1       3.254  -3.558  11.176  1.00  0.00     0.293 HD
ENDBRANCH  22  26
ENDBRANCH  18  19
ENDBRANCH  17  18
BRANCH  17  28
ATOM     28  O   UNL     1      -2.222  -6.565   5.964  1.00  0.00    -0.383 OA
ATOM     29  H   UNL     1      -1.813  -6.355   5.094  1.00  0.00     0.211 HD
ENDBRANCH  17  28
ENDBRANCH  14  17
ENDBRANCH  12  13
BRANCH  12  30
ATOM     30  C   UNL     1      -2.425  -1.176   8.754  1.00  0.00     0.018 C 
ATOM     31  C   UNL     1      -2.177   0.018   7.820  1.00  0.00     0.010 C 
BRANCH  30  32
ATOM     32  C   UNL     1      -1.079  -1.725   9.285  1.00  0.00     0.002 C 
ATOM     33  C   UNL     1      -1.050  -2.053  10.772  1.00  0.00     0.004 C 
ENDBRANCH  30  32
ENDBRANCH  12  30
ENDBRANCH  10  12
ENDBRANCH   1  10
BRANCH   5  34
ATOM     34  C   UNL     1      -7.677  -2.531   7.490  1.00  0.00     0.242 C 
ATOM     35  O   UNL     1      -8.760  -3.111   7.403  1.00  0.00    -0.273 OA
ATOM     36  N   UNL     1      -7.575  -1.212   7.873  1.00  0.00    -0.354 N 
ATOM     37  H   UNL     1      -6.666  -0.752   7.810  1.00  0.00     0.163 HD
BRANCH  36  38
ATOM     38  C   UNL     1      -8.684  -0.488   8.456  1.00  0.00     0.116 C 
BRANCH  38  39
ATOM     39  C   UNL     1      -8.222   0.245   9.713  1.00  0.00     0.023 C 
BRANCH  39  40
ATOM     40  C   UNL     1      -9.351   0.451  10.717  1.00  0.00     0.026 C 
BRANCH  40  41
ATOM     41  C   UNL     1     -10.147  -0.839  10.910  1.00  0.00     0.146 C 
BRANCH  41  42
ATOM     42  N   UNL     1      -9.424  -1.736  11.802  1.00  0.00    -0.254 NA
ATOM     43  C   UNL     1      -9.213  -2.948  11.447  1.00  0.00     0.185 C 
ATOM     44  N   UNL     1      -9.561  -3.592  10.319  1.00  0.00    -0.370 N 
ATOM     45  N   UNL     1      -8.548  -3.759  12.286  1.00  0.00    -0.370 N 
ATOM     46  H   UNL     1      -9.548  -4.597  10.277  1.00  0.00     0.159 HD
ATOM     47  H   UNL     1     -10.059  -3.123   9.569  1.00  0.00     0.159 HD
ATOM     48  H   UNL     1      -8.241  -3.349  13.158  1.00  0.00     0.159 HD
ATOM     49  H   UNL     1      -8.142  -4.630  11.993  1.00  0.00     0.159 HD
ENDBRANCH  41  42
ENDBRANCH  40  41
ENDBRANCH  39  40
ENDBRANCH  38  39
ENDBRANCH  36  38
ENDBRANCH   5  34
BRANCH   8  50
ATOM     50  O   UNL     1      -8.126  -6.259  10.396  1.00  0.00    -0.245 OA
BRANCH  50  51
ATOM     51  S   UNL     1      -9.093  -7.209  11.295  1.00  0.00     0.397 S 
ATOM     52  O   UNL     1     -10.214  -6.411  11.740  1.00  0.00    -0.169 OA
ATOM     53  O   UNL     1      -8.292  -7.978  12.224  1.00  0.00    -0.169 OA
BRANCH  51  54
ATOM     54  O   UNL     1      -9.686  -8.221  10.195  1.00  0.00    -0.264 OA
ATOM     55  H   UNL     1      -9.554  -7.815   9.314  1.00  0.00     0.236 HD
ENDBRANCH  51  54
ENDBRANCH  50  51
ENDBRANCH   8  50
TORSDOF 19
ENDMDL
MODEL 35
REMARK VINA RESULT:    -7.761      4.045      7.723
REMARK INTER + INTRA:         -18.378
REMARK INTER:                 -15.071
REMARK INTRA:                  -3.307
REMARK UNBOUND:                -2.676
REMARK SMILES CC[C@@H](C)[C@@H](NC(=O)[C@@H](O)Cc1ccc(O)c(Cl)c1)C(=O)N1[C@H](C(=O)NCCCCN=C(N)N)C[C@H]2CC[C@H](OS(=O)(=O)O)C[C@@H]21
REMARK SMILES IDX 22 1 36 2 46 3 35 4 23 5 45 6 37 7 39 8 38 9 20 10 21 11
REMARK SMILES IDX 5 12 6 13 7 14 8 15 9 17 11 18 12 19 17 20 19 21 15 22 14 23
REMARK SMILES IDX 13 24 18 25 16 26 10 28 3 30 4 31 2 32 1 33 24 34 25 35
REMARK SMILES IDX 26 36 27 38 28 39 29 40 30 41 31 42 32 43 33 44 34 45 40 50
REMARK SMILES IDX 41 51 42 52 43 53 44 54
REMARK H PARENT 6 16 16 27 10 29 26 37 33 46 33 47 34 48 34 49 44 55
ROOT
ATOM      1  N   UNL     1      -3.719  -5.482  10.625  1.00  0.00    -0.326 N 
ATOM      2  C   UNL     1      -1.995  -5.839  12.188  1.00  0.00     0.014 C 
ATOM      3  C   UNL     1      -2.405  -6.122  10.740  1.00  0.00     0.091 C 
ATOM      4  C   UNL     1      -3.323  -5.890  12.928  1.00  0.00     0.041 C 
ATOM      5  C   UNL     1      -4.203  -5.071  11.966  1.00  0.00     0.175 C 
ATOM      6  C   UNL     1      -1.284  -5.644   9.819  1.00  0.00     0.059 C 
ATOM      7  C   UNL     1      -0.867  -6.755  12.621  1.00  0.00     0.008 C 
ATOM      8  C   UNL     1       0.124  -5.761  10.441  1.00  0.00     0.143 C 
ATOM      9  C   UNL     1       0.195  -6.873  11.508  1.00  0.00     0.034 C 
ENDROOT
BRANCH   1  10
ATOM     10  C   UNL     1      -4.587  -5.424   9.548  1.00  0.00     0.246 C 
ATOM     11  O   UNL     1      -4.905  -4.321   9.091  1.00  0.00    -0.272 OA
BRANCH  10  12
ATOM     12  C   UNL     1      -5.107  -6.744   8.910  1.00  0.00     0.174 C 
BRANCH  12  13
ATOM     13  N   UNL     1      -5.792  -6.454   7.651  1.00  0.00    -0.342 N 
ATOM     14  C   UNL     1      -5.335  -6.809   6.402  1.00  0.00     0.249 C 
ATOM     15  O   UNL     1      -4.304  -7.440   6.207  1.00  0.00    -0.272 OA
ATOM     16  H   UNL     1      -6.575  -5.804   7.642  1.00  0.00     0.164 HD
BRANCH  14  17
ATOM     17  C   UNL     1      -6.275  -6.344   5.269  1.00  0.00     0.207 C 
BRANCH  17  18
ATOM     18  C   UNL     1      -6.636  -4.865   5.446  1.00  0.00     0.077 C 
BRANCH  18  19
ATOM     19  C   UNL     1      -6.326  -4.059   4.205  1.00  0.00    -0.043 A 
ATOM     20  C   UNL     1      -6.280  -1.935   3.034  1.00  0.00     0.083 A 
ATOM     21  C   UNL     1      -6.520  -2.669   4.196  1.00  0.00     0.028 A 
ATOM     22  C   UNL     1      -5.847  -2.582   1.876  1.00  0.00     0.134 A 
ATOM     23  C   UNL     1      -5.650  -3.958   1.871  1.00  0.00     0.048 A 
ATOM     24  C   UNL     1      -5.891  -4.696   3.032  1.00  0.00     0.008 A 
ATOM     25  Cl  UNL     1      -6.526  -0.228   3.043  1.00  0.00    -0.080 Cl
BRANCH  22  26
ATOM     26  O   UNL     1      -5.609  -1.906   0.710  1.00  0.00    -0.506 OA
ATOM     27  H   UNL     1      -5.823  -2.519  -0.018  1.00  0.00     0.293 HD
ENDBRANCH  22  26
ENDBRANCH  18  19
ENDBRANCH  17  18
BRANCH  17  28
ATOM     28  O   UNL     1      -7.478  -7.128   5.240  1.00  0.00    -0.383 OA
ATOM     29  H   UNL     1      -8.094  -6.659   4.632  1.00  0.00     0.211 HD
ENDBRANCH  17  28
ENDBRANCH  14  17
ENDBRANCH  12  13
BRANCH  12  30
ATOM     30  C   UNL     1      -5.985  -7.576   9.884  1.00  0.00     0.018 C 
ATOM     31  C   UNL     1      -5.143  -8.643  10.602  1.00  0.00     0.010 C 
BRANCH  30  32
ATOM     32  C   UNL     1      -7.212  -8.233   9.207  1.00  0.00     0.002 C 
ATOM     33  C   UNL     1      -8.543  -7.532   9.451  1.00  0.00     0.004 C 
ENDBRANCH  30  32
ENDBRANCH  12  30
ENDBRANCH  10  12
ENDBRANCH   1  10
BRANCH   5  34
ATOM     34  C   UNL     1      -4.012  -3.545  12.176  1.00  0.00     0.242 C 
ATOM     35  O   UNL     1      -4.351  -2.976  13.213  1.00  0.00    -0.273 OA
ATOM     36  N   UNL     1      -3.486  -2.867  11.099  1.00  0.00    -0.354 N 
ATOM     37  H   UNL     1      -3.337  -3.373  10.225  1.00  0.00     0.163 HD
BRANCH  36  38
ATOM     38  C   UNL     1      -3.044  -1.491  11.192  1.00  0.00     0.116 C 
BRANCH  38  39
ATOM     39  C   UNL     1      -1.757  -1.305  10.392  1.00  0.00     0.023 C 
BRANCH  39  40
ATOM     40  C   UNL     1      -1.923  -0.315   9.244  1.00  0.00     0.026 C 
BRANCH  40  41
ATOM     41  C   UNL     1      -2.147  -1.050   7.922  1.00  0.00     0.146 C 
BRANCH  41  42
ATOM     42  N   UNL     1      -3.161  -0.356   7.138  1.00  0.00    -0.254 NA
ATOM     43  C   UNL     1      -4.359  -0.805   7.115  1.00  0.00     0.185 C 
ATOM     44  N   UNL     1      -4.894  -1.877   7.727  1.00  0.00    -0.370 N 
ATOM     45  N   UNL     1      -5.278  -0.154   6.383  1.00  0.00    -0.370 N 
ATOM     46  H   UNL     1      -5.780  -2.250   7.429  1.00  0.00     0.159 HD
ATOM     47  H   UNL     1      -4.342  -2.476   8.333  1.00  0.00     0.159 HD
ATOM     48  H   UNL     1      -4.960   0.672   5.895  1.00  0.00     0.159 HD
ATOM     49  H   UNL     1      -6.266  -0.295   6.499  1.00  0.00     0.159 HD
ENDBRANCH  41  42
ENDBRANCH  40  41
ENDBRANCH  39  40
ENDBRANCH  38  39
ENDBRANCH  36  38
ENDBRANCH   5  34
BRANCH   8  50
ATOM     50  O   UNL     1       0.496  -4.524  11.050  1.00  0.00    -0.245 OA
BRANCH  50  51
ATOM     51  S   UNL     1       1.874  -3.789  10.598  1.00  0.00     0.397 S 
ATOM     52  O   UNL     1       1.965  -3.857   9.157  1.00  0.00    -0.169 OA
ATOM     53  O   UNL     1       2.961  -4.227  11.449  1.00  0.00    -0.169 OA
BRANCH  51  54
ATOM     54  O   UNL     1       1.563  -2.250  10.944  1.00  0.00    -0.264 OA
ATOM     55  H   UNL     1       1.167  -2.220  11.839  1.00  0.00     0.236 HD
ENDBRANCH  51  54
ENDBRANCH  50  51
ENDBRANCH   8  50
TORSDOF 19
ENDMDL
MODEL 36
REMARK VINA RESULT:    -7.745      4.055      6.605
REMARK INTER + INTRA:         -18.344
REMARK INTER:                 -15.787
REMARK INTRA:                  -2.557
REMARK UNBOUND:                -2.676
REMARK SMILES CC[C@@H](C)[C@@H](NC(=O)[C@@H](O)Cc1ccc(O)c(Cl)c1)C(=O)N1[C@H](C(=O)NCCCCN=C(N)N)C[C@H]2CC[C@H](OS(=O)(=O)O)C[C@@H]21
REMARK SMILES IDX 22 1 36 2 46 3 35 4 23 5 45 6 37 7 39 8 38 9 20 10 21 11
REMARK SMILES IDX 5 12 6 13 7 14 8 15 9 17 11 18 12 19 17 20 19 21 15 22 14 23
REMARK SMILES IDX 13 24 18 25 16 26 10 28 3 30 4 31 2 32 1 33 24 34 25 35
REMARK SMILES IDX 26 36 27 38 28 39 29 40 30 41 31 42 32 43 33 44 34 45 40 50
REMARK SMILES IDX 41 51 42 52 43 53 44 54
REMARK H PARENT 6 16 16 27 10 29 26 37 33 46 33 47 34 48 34 49 44 55
ROOT
ATOM      1  N   UNL     1      -4.331  -6.107   9.553  1.00  0.00    -0.326 N 
ATOM      2  C   UNL     1      -5.883  -7.621  10.470  1.00  0.00     0.014 C 
ATOM      3  C   UNL     1      -5.104  -6.339  10.777  1.00  0.00     0.091 C 
ATOM      4  C   UNL     1      -4.908  -8.408   9.609  1.00  0.00     0.041 C 
ATOM      5  C   UNL     1      -4.417  -7.293   8.666  1.00  0.00     0.175 C 
ATOM      6  C   UNL     1      -6.097  -5.265  11.220  1.00  0.00     0.059 C 
ATOM      7  C   UNL     1      -6.422  -8.245  11.743  1.00  0.00     0.008 C 
ATOM      8  C   UNL     1      -7.324  -5.826  11.970  1.00  0.00     0.143 C 
ATOM      9  C   UNL     1      -7.014  -7.164  12.671  1.00  0.00     0.034 C 
ENDROOT
BRANCH   1  10
ATOM     10  C   UNL     1      -3.428  -5.103   9.251  1.00  0.00     0.246 C 
ATOM     11  O   UNL     1      -3.714  -3.933   9.529  1.00  0.00    -0.272 OA
BRANCH  10  12
ATOM     12  C   UNL     1      -2.059  -5.470   8.608  1.00  0.00     0.174 C 
BRANCH  12  13
ATOM     13  N   UNL     1      -0.969  -5.091   9.507  1.00  0.00    -0.342 N 
ATOM     14  C   UNL     1      -0.619  -5.768  10.654  1.00  0.00     0.249 C 
ATOM     15  O   UNL     1      -1.171  -6.792  11.037  1.00  0.00    -0.272 OA
ATOM     16  H   UNL     1      -0.524  -4.182   9.405  1.00  0.00     0.164 HD
BRANCH  14  17
ATOM     17  C   UNL     1       0.563  -5.110  11.396  1.00  0.00     0.207 C 
BRANCH  17  18
ATOM     18  C   UNL     1       1.564  -4.523  10.396  1.00  0.00     0.077 C 
BRANCH  18  19
ATOM     19  C   UNL     1       2.083  -3.175  10.846  1.00  0.00    -0.043 A 
ATOM     20  C   UNL     1       3.885  -1.558  10.991  1.00  0.00     0.083 A 
ATOM     21  C   UNL     1       3.393  -2.781  10.533  1.00  0.00     0.028 A 
ATOM     22  C   UNL     1       3.075  -0.725  11.764  1.00  0.00     0.134 A 
ATOM     23  C   UNL     1       1.776  -1.103  12.081  1.00  0.00     0.048 A 
ATOM     24  C   UNL     1       1.281  -2.327  11.625  1.00  0.00     0.008 A 
ATOM     25  Cl  UNL     1       5.498  -1.090  10.597  1.00  0.00    -0.080 Cl
BRANCH  22  26
ATOM     26  O   UNL     1       3.517   0.478  12.244  1.00  0.00    -0.506 OA
ATOM     27  H   UNL     1       2.723   0.996  12.476  1.00  0.00     0.293 HD
ENDBRANCH  22  26
ENDBRANCH  18  19
ENDBRANCH  17  18
BRANCH  17  28
ATOM     28  O   UNL     1       1.235  -6.057  12.243  1.00  0.00    -0.383 OA
ATOM     29  H   UNL     1       1.626  -6.730  11.640  1.00  0.00     0.211 HD
ENDBRANCH  17  28
ENDBRANCH  14  17
ENDBRANCH  12  13
BRANCH  12  30
ATOM     30  C   UNL     1      -1.886  -4.877   7.184  1.00  0.00     0.018 C 
ATOM     31  C   UNL     1      -1.871  -5.991   6.126  1.00  0.00     0.010 C 
BRANCH  30  32
ATOM     32  C   UNL     1      -0.631  -3.982   7.032  1.00  0.00     0.002 C 
ATOM     33  C   UNL     1       0.469  -4.548   6.144  1.00  0.00     0.004 C 
ENDBRANCH  30  32
ENDBRANCH  12  30
ENDBRANCH  10  12
ENDBRANCH   1  10
BRANCH   5  34
ATOM     34  C   UNL     1      -5.419  -7.042   7.507  1.00  0.00     0.242 C 
ATOM     35  O   UNL     1      -6.074  -7.950   6.995  1.00  0.00    -0.273 OA
ATOM     36  N   UNL     1      -5.482  -5.742   7.059  1.00  0.00    -0.354 N 
ATOM     37  H   UNL     1      -4.828  -5.058   7.442  1.00  0.00     0.163 HD
BRANCH  36  38
ATOM     38  C   UNL     1      -6.507  -5.289   6.142  1.00  0.00     0.116 C 
BRANCH  38  39
ATOM     39  C   UNL     1      -6.155  -3.900   5.615  1.00  0.00     0.023 C 
BRANCH  39  40
ATOM     40  C   UNL     1      -4.766  -3.850   4.987  1.00  0.00     0.026 C 
BRANCH  40  41
ATOM     41  C   UNL     1      -4.802  -4.364   3.548  1.00  0.00     0.146 C 
BRANCH  41  42
ATOM     42  N   UNL     1      -5.485  -3.397   2.698  1.00  0.00    -0.254 NA
ATOM     43  C   UNL     1      -5.066  -3.195   1.505  1.00  0.00     0.185 C 
ATOM     44  N   UNL     1      -4.034  -3.753   0.845  1.00  0.00    -0.370 N 
ATOM     45  N   UNL     1      -5.706  -2.297   0.739  1.00  0.00    -0.370 N 
ATOM     46  H   UNL     1      -3.671  -3.328   0.009  1.00  0.00     0.159 HD
ATOM     47  H   UNL     1      -3.450  -4.464   1.272  1.00  0.00     0.159 HD
ATOM     48  H   UNL     1      -6.502  -1.837   1.159  1.00  0.00     0.159 HD
ATOM     49  H   UNL     1      -5.594  -2.255  -0.258  1.00  0.00     0.159 HD
ENDBRANCH  41  42
ENDBRANCH  40  41
ENDBRANCH  39  40
ENDBRANCH  38  39
ENDBRANCH  36  38
ENDBRANCH   5  34
BRANCH   8  50
ATOM     50  O   UNL     1      -8.404  -6.031  11.059  1.00  0.00    -0.245 OA
BRANCH  50  51
ATOM     51  S   UNL     1      -9.651  -4.987  11.042  1.00  0.00     0.397 S 
ATOM     52  O   UNL     1     -10.848  -5.715  11.396  1.00  0.00    -0.169 OA
ATOM     53  O   UNL     1      -9.583  -4.169   9.849  1.00  0.00    -0.169 OA
BRANCH  51  54
ATOM     54  O   UNL     1      -9.319  -4.048  12.305  1.00  0.00    -0.264 OA
ATOM     55  H   UNL     1     -10.124  -3.532  12.512  1.00  0.00     0.236 HD
ENDBRANCH  51  54
ENDBRANCH  50  51
ENDBRANCH   8  50
TORSDOF 19
ENDMDL
MODEL 37
REMARK VINA RESULT:    -7.745      4.290      7.954
REMARK INTER + INTRA:         -18.344
REMARK INTER:                 -16.394
REMARK INTRA:                  -1.950
REMARK UNBOUND:                -2.676
REMARK SMILES CC[C@@H](C)[C@@H](NC(=O)[C@@H](O)Cc1ccc(O)c(Cl)c1)C(=O)N1[C@H](C(=O)NCCCCN=C(N)N)C[C@H]2CC[C@H](OS(=O)(=O)O)C[C@@H]21
REMARK SMILES IDX 22 1 36 2 46 3 35 4 23 5 45 6 37 7 39 8 38 9 20 10 21 11
REMARK SMILES IDX 5 12 6 13 7 14 8 15 9 17 11 18 12 19 17 20 19 21 15 22 14 23
REMARK SMILES IDX 13 24 18 25 16 26 10 28 3 30 4 31 2 32 1 33 24 34 25 35
REMARK SMILES IDX 26 36 27 38 28 39 29 40 30 41 31 42 32 43 33 44 34 45 40 50
REMARK SMILES IDX 41 51 42 52 43 53 44 54
REMARK H PARENT 6 16 16 27 10 29 26 37 33 46 33 47 34 48 34 49 44 55
ROOT
ATOM      1  N   UNL     1      -4.720  -3.279   7.479  1.00  0.00    -0.326 N 
ATOM      2  C   UNL     1      -6.086  -3.860   5.652  1.00  0.00     0.014 C 
ATOM      3  C   UNL     1      -4.948  -4.378   6.536  1.00  0.00     0.091 C 
ATOM      4  C   UNL     1      -5.795  -2.369   5.570  1.00  0.00     0.041 C 
ATOM      5  C   UNL     1      -5.469  -2.074   7.046  1.00  0.00     0.175 C 
ATOM      6  C   UNL     1      -5.353  -5.740   7.096  1.00  0.00     0.059 C 
ATOM      7  C   UNL     1      -6.191  -4.668   4.374  1.00  0.00     0.008 C 
ATOM      8  C   UNL     1      -6.260  -6.556   6.149  1.00  0.00     0.143 C 
ATOM      9  C   UNL     1      -6.044  -6.176   4.670  1.00  0.00     0.034 C 
ENDROOT
BRANCH   1  10
ATOM     10  C   UNL     1      -3.797  -3.167   8.505  1.00  0.00     0.246 C 
ATOM     11  O   UNL     1      -3.906  -3.900   9.495  1.00  0.00    -0.272 OA
BRANCH  10  12
ATOM     12  C   UNL     1      -2.621  -2.156   8.373  1.00  0.00     0.174 C 
BRANCH  12  13
ATOM     13  N   UNL     1      -1.624  -2.411   9.412  1.00  0.00    -0.342 N 
ATOM     14  C   UNL     1      -0.474  -3.149   9.240  1.00  0.00     0.249 C 
ATOM     15  O   UNL     1      -0.142  -3.656   8.175  1.00  0.00    -0.272 OA
ATOM     16  H   UNL     1      -1.838  -2.189  10.381  1.00  0.00     0.164 HD
BRANCH  14  17
ATOM     17  C   UNL     1       0.366  -3.252  10.530  1.00  0.00     0.207 C 
BRANCH  17  18
ATOM     18  C   UNL     1       1.735  -3.869  10.230  1.00  0.00     0.077 C 
BRANCH  18  19
ATOM     19  C   UNL     1       2.866  -2.947  10.626  1.00  0.00    -0.043 A 
ATOM     20  C   UNL     1       3.637  -0.851  11.574  1.00  0.00     0.083 A 
ATOM     21  C   UNL     1       2.594  -1.722  11.255  1.00  0.00     0.028 A 
ATOM     22  C   UNL     1       4.954  -1.196  11.267  1.00  0.00     0.134 A 
ATOM     23  C   UNL     1       5.237  -2.406  10.644  1.00  0.00     0.048 A 
ATOM     24  C   UNL     1       4.196  -3.279  10.322  1.00  0.00     0.008 A 
ATOM     25  Cl  UNL     1       3.283   0.650  12.346  1.00  0.00    -0.080 Cl
BRANCH  22  26
ATOM     26  O   UNL     1       6.008  -0.370  11.551  1.00  0.00    -0.506 OA
ATOM     27  H   UNL     1       5.700   0.541  11.392  1.00  0.00     0.293 HD
ENDBRANCH  22  26
ENDBRANCH  18  19
ENDBRANCH  17  18
BRANCH  17  28
ATOM     28  O   UNL     1      -0.306  -4.043  11.523  1.00  0.00    -0.383 OA
ATOM     29  H   UNL     1      -0.383  -4.948  11.144  1.00  0.00     0.211 HD
ENDBRANCH  17  28
ENDBRANCH  14  17
ENDBRANCH  12  13
BRANCH  12  30
ATOM     30  C   UNL     1      -3.099  -0.679   8.360  1.00  0.00     0.018 C 
ATOM     31  C   UNL     1      -2.200   0.178   7.455  1.00  0.00     0.010 C 
BRANCH  30  32
ATOM     32  C   UNL     1      -3.195  -0.045   9.769  1.00  0.00     0.002 C 
ATOM     33  C   UNL     1      -4.584  -0.051  10.393  1.00  0.00     0.004 C 
ENDBRANCH  30  32
ENDBRANCH  12  30
ENDBRANCH  10  12
ENDBRANCH   1  10
BRANCH   5  34
ATOM     34  C   UNL     1      -6.758  -1.893   7.891  1.00  0.00     0.242 C 
ATOM     35  O   UNL     1      -6.911  -2.442   8.982  1.00  0.00    -0.273 OA
ATOM     36  N   UNL     1      -7.737  -1.120   7.308  1.00  0.00    -0.354 N 
ATOM     37  H   UNL     1      -7.599  -0.792   6.352  1.00  0.00     0.163 HD
BRANCH  36  38
ATOM     38  C   UNL     1      -8.905  -0.673   8.038  1.00  0.00     0.116 C 
BRANCH  38  39
ATOM     39  C   UNL     1      -8.596   0.638   8.758  1.00  0.00     0.023 C 
BRANCH  39  40
ATOM     40  C   UNL     1      -8.327   0.435  10.246  1.00  0.00     0.026 C 
BRANCH  40  41
ATOM     41  C   UNL     1      -9.607   0.625  11.059  1.00  0.00     0.146 C 
BRANCH  41  42
ATOM     42  N   UNL     1     -10.145  -0.674  11.441  1.00  0.00    -0.254 NA
ATOM     43  C   UNL     1     -11.022  -0.747  12.371  1.00  0.00     0.185 C 
ATOM     44  N   UNL     1     -11.578   0.227  13.115  1.00  0.00    -0.370 N 
ATOM     45  N   UNL     1     -11.502  -1.954  12.711  1.00  0.00    -0.370 N 
ATOM     46  H   UNL     1     -12.064   0.007  13.967  1.00  0.00     0.159 HD
ATOM     47  H   UNL     1     -11.338   1.204  12.979  1.00  0.00     0.159 HD
ATOM     48  H   UNL     1     -11.141  -2.743  12.192  1.00  0.00     0.159 HD
ATOM     49  H   UNL     1     -12.343  -2.074  13.248  1.00  0.00     0.159 HD
ENDBRANCH  41  42
ENDBRANCH  40  41
ENDBRANCH  39  40
ENDBRANCH  38  39
ENDBRANCH  36  38
ENDBRANCH   5  34
BRANCH   8  50
ATOM     50  O   UNL     1      -7.632  -6.341   6.477  1.00  0.00    -0.245 OA
BRANCH  50  51
ATOM     51  S   UNL     1      -8.204  -6.848   7.913  1.00  0.00     0.397 S 
ATOM     52  O   UNL     1      -7.928  -5.821   8.892  1.00  0.00    -0.169 OA
ATOM     53  O   UNL     1      -7.818  -8.227   8.130  1.00  0.00    -0.169 OA
BRANCH  51  54
ATOM     54  O   UNL     1      -9.793  -6.811   7.674  1.00  0.00    -0.264 OA
ATOM     55  H   UNL     1     -10.043  -7.629   7.198  1.00  0.00     0.236 HD
ENDBRANCH  51  54
ENDBRANCH  50  51
ENDBRANCH   8  50
TORSDOF 19
ENDMDL
MODEL 38
REMARK VINA RESULT:    -7.739      4.116      7.118
REMARK INTER + INTRA:         -18.332
REMARK INTER:                 -15.329
REMARK INTRA:                  -3.002
REMARK UNBOUND:                -2.676
REMARK SMILES CC[C@@H](C)[C@@H](NC(=O)[C@@H](O)Cc1ccc(O)c(Cl)c1)C(=O)N1[C@H](C(=O)NCCCCN=C(N)N)C[C@H]2CC[C@H](OS(=O)(=O)O)C[C@@H]21
REMARK SMILES IDX 22 1 36 2 46 3 35 4 23 5 45 6 37 7 39 8 38 9 20 10 21 11
REMARK SMILES IDX 5 12 6 13 7 14 8 15 9 17 11 18 12 19 17 20 19 21 15 22 14 23
REMARK SMILES IDX 13 24 18 25 16 26 10 28 3 30 4 31 2 32 1 33 24 34 25 35
REMARK SMILES IDX 26 36 27 38 28 39 29 40 30 41 31 42 32 43 33 44 34 45 40 50
REMARK SMILES IDX 41 51 42 52 43 53 44 54
REMARK H PARENT 6 16 16 27 10 29 26 37 33 46 33 47 34 48 34 49 44 55
ROOT
ATOM      1  N   UNL     1      -3.688  -4.467   9.625  1.00  0.00    -0.326 N 
ATOM      2  C   UNL     1      -4.428  -6.399   8.502  1.00  0.00     0.014 C 
ATOM      3  C   UNL     1      -4.207  -5.810   9.898  1.00  0.00     0.091 C 
ATOM      4  C   UNL     1      -3.289  -5.792   7.698  1.00  0.00     0.041 C 
ATOM      5  C   UNL     1      -3.359  -4.332   8.184  1.00  0.00     0.175 C 
ATOM      6  C   UNL     1      -5.509  -5.936  10.688  1.00  0.00     0.059 C 
ATOM      7  C   UNL     1      -4.572  -7.906   8.566  1.00  0.00     0.008 C 
ATOM      8  C   UNL     1      -6.348  -7.175  10.308  1.00  0.00     0.143 C 
ATOM      9  C   UNL     1      -5.475  -8.317   9.749  1.00  0.00     0.034 C 
ENDROOT
BRANCH   1  10
ATOM     10  C   UNL     1      -3.288  -3.474  10.503  1.00  0.00     0.246 C 
ATOM     11  O   UNL     1      -3.740  -3.471  11.653  1.00  0.00    -0.272 OA
BRANCH  10  12
ATOM     12  C   UNL     1      -2.250  -2.411  10.039  1.00  0.00     0.174 C 
BRANCH  12  13
ATOM     13  N   UNL     1      -0.952  -2.679  10.658  1.00  0.00    -0.342 N 
ATOM     14  C   UNL     1       0.048  -3.442  10.098  1.00  0.00     0.249 C 
ATOM     15  O   UNL     1      -0.030  -3.963   8.992  1.00  0.00    -0.272 OA
ATOM     16  H   UNL     1      -0.802  -2.445  11.636  1.00  0.00     0.164 HD
BRANCH  14  17
ATOM     17  C   UNL     1       1.292  -3.552  11.005  1.00  0.00     0.207 C 
BRANCH  17  18
ATOM     18  C   UNL     1       2.574  -3.421  10.175  1.00  0.00     0.077 C 
BRANCH  18  19
ATOM     19  C   UNL     1       3.452  -2.295  10.672  1.00  0.00    -0.043 A 
ATOM     20  C   UNL     1       3.759  -0.313  12.037  1.00  0.00     0.083 A 
ATOM     21  C   UNL     1       2.964  -1.380  11.618  1.00  0.00     0.028 A 
ATOM     22  C   UNL     1       5.043  -0.152  11.514  1.00  0.00     0.134 A 
ATOM     23  C   UNL     1       5.539  -1.050  10.577  1.00  0.00     0.048 A 
ATOM     24  C   UNL     1       4.744  -2.118  10.154  1.00  0.00     0.008 A 
ATOM     25  Cl  UNL     1       3.142   0.800  13.200  1.00  0.00    -0.080 Cl
BRANCH  22  26
ATOM     26  O   UNL     1       5.856   0.884  11.886  1.00  0.00    -0.506 OA
ATOM     27  H   UNL     1       5.285   1.669  11.977  1.00  0.00     0.293 HD
ENDBRANCH  22  26
ENDBRANCH  18  19
ENDBRANCH  17  18
BRANCH  17  28
ATOM     28  O   UNL     1       1.308  -4.803  11.711  1.00  0.00    -0.383 OA
ATOM     29  H   UNL     1       2.252  -5.078  11.756  1.00  0.00     0.211 HD
ENDBRANCH  17  28
ENDBRANCH  14  17
ENDBRANCH  12  13
BRANCH  12  30
ATOM     30  C   UNL     1      -2.732  -0.956  10.281  1.00  0.00     0.018 C 
ATOM     31  C   UNL     1      -4.248  -0.838  10.059  1.00  0.00     0.010 C 
BRANCH  30  32
ATOM     32  C   UNL     1      -1.986   0.096   9.425  1.00  0.00     0.002 C 
ATOM     33  C   UNL     1      -2.234   0.009   7.924  1.00  0.00     0.004 C 
ENDBRANCH  30  32
ENDBRANCH  12  30
ENDBRANCH  10  12
ENDBRANCH   1  10
BRANCH   5  34
ATOM     34  C   UNL     1      -4.464  -3.535   7.440  1.00  0.00     0.242 C 
ATOM     35  O   UNL     1      -5.576  -3.338   7.930  1.00  0.00    -0.273 OA
ATOM     36  N   UNL     1      -4.128  -3.111   6.174  1.00  0.00    -0.354 N 
ATOM     37  H   UNL     1      -3.236  -3.408   5.777  1.00  0.00     0.163 HD
BRANCH  36  38
ATOM     38  C   UNL     1      -4.947  -2.179   5.428  1.00  0.00     0.116 C 
BRANCH  38  39
ATOM     39  C   UNL     1      -5.353  -2.798   4.093  1.00  0.00     0.023 C 
BRANCH  39  40
ATOM     40  C   UNL     1      -6.643  -3.605   4.193  1.00  0.00     0.026 C 
BRANCH  40  41
ATOM     41  C   UNL     1      -6.359  -5.101   4.060  1.00  0.00     0.146 C 
BRANCH  41  42
ATOM     42  N   UNL     1      -6.842  -5.801   5.243  1.00  0.00    -0.254 NA
ATOM     43  C   UNL     1      -6.975  -7.073   5.216  1.00  0.00     0.185 C 
ATOM     44  N   UNL     1      -6.731  -7.948   4.222  1.00  0.00    -0.370 N 
ATOM     45  N   UNL     1      -7.426  -7.699   6.315  1.00  0.00    -0.370 N 
ATOM     46  H   UNL     1      -7.108  -8.880   4.255  1.00  0.00     0.159 HD
ATOM     47  H   UNL     1      -6.371  -7.645   3.323  1.00  0.00     0.159 HD
ATOM     48  H   UNL     1      -7.627  -7.113   7.114  1.00  0.00     0.159 HD
ATOM     49  H   UNL     1      -7.333  -8.690   6.454  1.00  0.00     0.159 HD
ENDBRANCH  41  42
ENDBRANCH  40  41
ENDBRANCH  39  40
ENDBRANCH  38  39
ENDBRANCH  36  38
ENDBRANCH   5  34
BRANCH   8  50
ATOM     50  O   UNL     1      -7.322  -6.825   9.324  1.00  0.00    -0.245 OA
BRANCH  50  51
ATOM     51  S   UNL     1      -8.886  -7.189   9.578  1.00  0.00     0.397 S 
ATOM     52  O   UNL     1      -8.950  -8.514  10.152  1.00  0.00    -0.169 OA
ATOM     53  O   UNL     1      -9.665  -6.828   8.411  1.00  0.00    -0.169 OA
BRANCH  51  54
ATOM     54  O   UNL     1      -9.277  -6.178  10.766  1.00  0.00    -0.264 OA
ATOM     55  H   UNL     1      -8.572  -5.501  10.826  1.00  0.00     0.236 HD
ENDBRANCH  51  54
ENDBRANCH  50  51
ENDBRANCH   8  50
TORSDOF 19
ENDMDL
MODEL 39
REMARK VINA RESULT:    -7.733      3.584      7.653
REMARK INTER + INTRA:         -18.321
REMARK INTER:                 -14.029
REMARK INTRA:                  -4.292
REMARK UNBOUND:                -2.676
REMARK SMILES CC[C@@H](C)[C@@H](NC(=O)[C@@H](O)Cc1ccc(O)c(Cl)c1)C(=O)N1[C@H](C(=O)NCCCCN=C(N)N)C[C@H]2CC[C@H](OS(=O)(=O)O)C[C@@H]21
REMARK SMILES IDX 22 1 36 2 46 3 35 4 23 5 45 6 37 7 39 8 38 9 20 10 21 11
REMARK SMILES IDX 5 12 6 13 7 14 8 15 9 17 11 18 12 19 17 20 19 21 15 22 14 23
REMARK SMILES IDX 13 24 18 25 16 26 10 28 3 30 4 31 2 32 1 33 24 34 25 35
REMARK SMILES IDX 26 36 27 38 28 39 29 40 30 41 31 42 32 43 33 44 34 45 40 50
REMARK SMILES IDX 41 51 42 52 43 53 44 54
REMARK H PARENT 6 16 16 27 10 29 26 37 33 46 33 47 34 48 34 49 44 55
ROOT
ATOM      1  N   UNL     1      -6.940  -3.827   7.901  1.00  0.00    -0.326 N 
ATOM      2  C   UNL     1      -6.042  -2.772   9.804  1.00  0.00     0.014 C 
ATOM      3  C   UNL     1      -6.347  -2.554   8.319  1.00  0.00     0.091 C 
ATOM      4  C   UNL     1      -5.661  -4.244   9.855  1.00  0.00     0.041 C 
ATOM      5  C   UNL     1      -6.769  -4.843   8.969  1.00  0.00     0.175 C 
ATOM      6  C   UNL     1      -7.184  -1.284   8.179  1.00  0.00     0.059 C 
ATOM      7  C   UNL     1      -5.064  -1.733  10.315  1.00  0.00     0.008 C 
ATOM      8  C   UNL     1      -6.871  -0.213   9.246  1.00  0.00     0.143 C 
ATOM      9  C   UNL     1      -5.430  -0.332   9.782  1.00  0.00     0.034 C 
ENDROOT
BRANCH   1  10
ATOM     10  C   UNL     1      -7.395  -4.228   6.656  1.00  0.00     0.246 C 
ATOM     11  O   UNL     1      -8.528  -3.891   6.294  1.00  0.00    -0.272 OA
BRANCH  10  12
ATOM     12  C   UNL     1      -6.460  -5.053   5.725  1.00  0.00     0.174 C 
BRANCH  12  13
ATOM     13  N   UNL     1      -5.066  -4.868   6.128  1.00  0.00    -0.342 N 
ATOM     14  C   UNL     1      -4.201  -5.883   6.471  1.00  0.00     0.249 C 
ATOM     15  O   UNL     1      -4.500  -7.070   6.449  1.00  0.00    -0.272 OA
ATOM     16  H   UNL     1      -4.724  -3.934   6.344  1.00  0.00     0.164 HD
BRANCH  14  17
ATOM     17  C   UNL     1      -2.802  -5.364   6.867  1.00  0.00     0.207 C 
BRANCH  17  18
ATOM     18  C   UNL     1      -2.680  -3.867   6.565  1.00  0.00     0.077 C 
BRANCH  18  19
ATOM     19  C   UNL     1      -2.198  -3.089   7.768  1.00  0.00    -0.043 A 
ATOM     20  C   UNL     1      -1.807  -0.970   8.883  1.00  0.00     0.083 A 
ATOM     21  C   UNL     1      -2.298  -1.689   7.793  1.00  0.00     0.028 A 
ATOM     22  C   UNL     1      -1.212  -1.642   9.952  1.00  0.00     0.134 A 
ATOM     23  C   UNL     1      -1.106  -3.028   9.940  1.00  0.00     0.048 A 
ATOM     24  C   UNL     1      -1.596  -3.750   8.850  1.00  0.00     0.008 A 
ATOM     25  Cl  UNL     1      -1.939   0.749   8.895  1.00  0.00    -0.080 Cl
BRANCH  22  26
ATOM     26  O   UNL     1      -0.707  -0.980  11.038  1.00  0.00    -0.506 OA
ATOM     27  H   UNL     1      -1.454  -0.510  11.452  1.00  0.00     0.293 HD
ENDBRANCH  22  26
ENDBRANCH  18  19
ENDBRANCH  17  18
BRANCH  17  28
ATOM     28  O   UNL     1      -1.769  -6.078   6.168  1.00  0.00    -0.383 OA
ATOM     29  H   UNL     1      -1.779  -6.993   6.530  1.00  0.00     0.211 HD
ENDBRANCH  17  28
ENDBRANCH  14  17
ENDBRANCH  12  13
BRANCH  12  30
ATOM     30  C   UNL     1      -6.687  -4.745   4.221  1.00  0.00     0.018 C 
ATOM     31  C   UNL     1      -6.637  -6.034   3.386  1.00  0.00     0.010 C 
BRANCH  30  32
ATOM     32  C   UNL     1      -5.703  -3.699   3.645  1.00  0.00     0.002 C 
ATOM     33  C   UNL     1      -5.421  -3.822   2.153  1.00  0.00     0.004 C 
ENDBRANCH  30  32
ENDBRANCH  12  30
ENDBRANCH  10  12
ENDBRANCH   1  10
BRANCH   5  34
ATOM     34  C   UNL     1      -8.091  -5.037   9.759  1.00  0.00     0.242 C 
ATOM     35  O   UNL     1      -9.158  -4.551   9.386  1.00  0.00    -0.273 OA
ATOM     36  N   UNL     1      -7.972  -5.747  10.933  1.00  0.00    -0.354 N 
ATOM     37  H   UNL     1      -7.042  -6.022  11.250  1.00  0.00     0.163 HD
BRANCH  36  38
ATOM     38  C   UNL     1      -9.126  -6.205  11.679  1.00  0.00     0.116 C 
BRANCH  38  39
ATOM     39  C   UNL     1      -9.293  -5.364  12.943  1.00  0.00     0.023 C 
BRANCH  39  40
ATOM     40  C   UNL     1     -10.641  -4.654  12.997  1.00  0.00     0.026 C 
BRANCH  40  41
ATOM     41  C   UNL     1     -10.591  -3.338  12.220  1.00  0.00     0.146 C 
BRANCH  41  42
ATOM     42  N   UNL     1     -11.503  -2.375  12.824  1.00  0.00    -0.254 NA
ATOM     43  C   UNL     1     -11.032  -1.354  13.435  1.00  0.00     0.185 C 
ATOM     44  N   UNL     1      -9.756  -0.978  13.636  1.00  0.00    -0.370 N 
ATOM     45  N   UNL     1     -11.890  -0.481  13.988  1.00  0.00    -0.370 N 
ATOM     46  H   UNL     1      -9.528  -0.293  14.337  1.00  0.00     0.159 HD
ATOM     47  H   UNL     1      -8.978  -1.519  13.272  1.00  0.00     0.159 HD
ATOM     48  H   UNL     1     -12.874  -0.685  13.875  1.00  0.00     0.159 HD
ATOM     49  H   UNL     1     -11.618   0.445  14.269  1.00  0.00     0.159 HD
ENDBRANCH  41  42
ENDBRANCH  40  41
ENDBRANCH  39  40
ENDBRANCH  38  39
ENDBRANCH  36  38
ENDBRANCH   5  34
BRANCH   8  50
ATOM     50  O   UNL     1      -7.775  -0.336  10.345  1.00  0.00    -0.245 OA
BRANCH  50  51
ATOM     51  S   UNL     1      -9.276   0.277  10.223  1.00  0.00     0.397 S 
ATOM     52  O   UNL     1      -9.533   1.068  11.405  1.00  0.00    -0.169 OA
ATOM     53  O   UNL     1     -10.191  -0.758   9.787  1.00  0.00    -0.169 OA
BRANCH  51  54
ATOM     54  O   UNL     1      -9.112   1.331   9.019  1.00  0.00    -0.264 OA
ATOM     55  H   UNL     1      -8.659   0.873   8.281  1.00  0.00     0.236 HD
ENDBRANCH  51  54
ENDBRANCH  50  51
ENDBRANCH   8  50
TORSDOF 19
ENDMDL
MODEL 40
REMARK VINA RESULT:    -7.727      2.718      7.108
REMARK INTER + INTRA:         -18.308
REMARK INTER:                 -14.851
REMARK INTRA:                  -3.457
REMARK UNBOUND:                -2.676
REMARK SMILES CC[C@@H](C)[C@@H](NC(=O)[C@@H](O)Cc1ccc(O)c(Cl)c1)C(=O)N1[C@H](C(=O)NCCCCN=C(N)N)C[C@H]2CC[C@H](OS(=O)(=O)O)C[C@@H]21
REMARK SMILES IDX 22 1 36 2 46 3 35 4 23 5 45 6 37 7 39 8 38 9 20 10 21 11
REMARK SMILES IDX 5 12 6 13 7 14 8 15 9 17 11 18 12 19 17 20 19 21 15 22 14 23
REMARK SMILES IDX 13 24 18 25 16 26 10 28 3 30 4 31 2 32 1 33 24 34 25 35
REMARK SMILES IDX 26 36 27 38 28 39 29 40 30 41 31 42 32 43 33 44 34 45 40 50
REMARK SMILES IDX 41 51 42 52 43 53 44 54
REMARK H PARENT 6 16 16 27 10 29 26 37 33 46 33 47 34 48 34 49 44 55
ROOT
ATOM      1  N   UNL     1      -5.494  -1.862   7.831  1.00  0.00    -0.326 N 
ATOM      2  C   UNL     1      -6.492  -0.507   9.478  1.00  0.00     0.014 C 
ATOM      3  C   UNL     1      -6.733  -1.125   8.097  1.00  0.00     0.091 C 
ATOM      4  C   UNL     1      -5.003  -0.202   9.453  1.00  0.00     0.041 C 
ATOM      5  C   UNL     1      -4.466  -1.510   8.842  1.00  0.00     0.175 C 
ATOM      6  C   UNL     1      -8.045  -1.905   8.139  1.00  0.00     0.059 C 
ATOM      7  C   UNL     1      -7.477   0.613   9.749  1.00  0.00     0.008 C 
ATOM      8  C   UNL     1      -9.094  -1.306   9.100  1.00  0.00     0.143 C 
ATOM      9  C   UNL     1      -8.897   0.210   9.300  1.00  0.00     0.034 C 
ENDROOT
BRANCH   1  10
ATOM     10  C   UNL     1      -5.124  -2.605   6.723  1.00  0.00     0.246 C 
ATOM     11  O   UNL     1      -4.098  -3.292   6.776  1.00  0.00    -0.272 OA
BRANCH  10  12
ATOM     12  C   UNL     1      -6.027  -2.594   5.456  1.00  0.00     0.174 C 
BRANCH  12  13
ATOM     13  N   UNL     1      -6.080  -3.934   4.870  1.00  0.00    -0.342 N 
ATOM     14  C   UNL     1      -7.032  -4.885   5.161  1.00  0.00     0.249 C 
ATOM     15  O   UNL     1      -7.966  -4.703   5.931  1.00  0.00    -0.272 OA
ATOM     16  H   UNL     1      -5.288  -4.282   4.337  1.00  0.00     0.164 HD
BRANCH  14  17
ATOM     17  C   UNL     1      -6.807  -6.206   4.393  1.00  0.00     0.207 C 
BRANCH  17  18
ATOM     18  C   UNL     1      -5.573  -6.935   4.933  1.00  0.00     0.077 C 
BRANCH  18  19
ATOM     19  C   UNL     1      -5.758  -7.364   6.371  1.00  0.00    -0.043 A 
ATOM     20  C   UNL     1      -4.969  -7.427   8.664  1.00  0.00     0.083 A 
ATOM     21  C   UNL     1      -4.822  -6.989   7.348  1.00  0.00     0.028 A 
ATOM     22  C   UNL     1      -6.047  -8.242   9.013  1.00  0.00     0.134 A 
ATOM     23  C   UNL     1      -6.982  -8.620   8.056  1.00  0.00     0.048 A 
ATOM     24  C   UNL     1      -6.836  -8.185   6.737  1.00  0.00     0.008 A 
ATOM     25  Cl  UNL     1      -3.809  -6.956   9.850  1.00  0.00    -0.080 Cl
BRANCH  22  26
ATOM     26  O   UNL     1      -6.228  -8.705  10.288  1.00  0.00    -0.506 OA
ATOM     27  H   UNL     1      -6.954  -9.354  10.250  1.00  0.00     0.293 HD
ENDBRANCH  22  26
ENDBRANCH  18  19
ENDBRANCH  17  18
BRANCH  17  28
ATOM     28  O   UNL     1      -6.641  -5.964   2.987  1.00  0.00    -0.383 OA
ATOM     29  H   UNL     1      -5.672  -5.881   2.838  1.00  0.00     0.211 HD
ENDBRANCH  17  28
ENDBRANCH  14  17
ENDBRANCH  12  13
BRANCH  12  30
ATOM     30  C   UNL     1      -5.601  -1.514   4.425  1.00  0.00     0.018 C 
ATOM     31  C   UNL     1      -6.158  -0.136   4.817  1.00  0.00     0.010 C 
BRANCH  30  32
ATOM     32  C   UNL     1      -5.998  -1.854   2.968  1.00  0.00     0.002 C 
ATOM     33  C   UNL     1      -6.657  -0.722   2.192  1.00  0.00     0.004 C 
ENDBRANCH  30  32
ENDBRANCH  12  30
ENDBRANCH  10  12
ENDBRANCH   1  10
BRANCH   5  34
ATOM     34  C   UNL     1      -4.338  -2.629   9.909  1.00  0.00     0.242 C 
ATOM     35  O   UNL     1      -5.179  -3.519  10.034  1.00  0.00    -0.273 OA
ATOM     36  N   UNL     1      -3.245  -2.524  10.740  1.00  0.00    -0.354 N 
ATOM     37  H   UNL     1      -2.649  -1.698  10.666  1.00  0.00     0.163 HD
BRANCH  36  38
ATOM     38  C   UNL     1      -2.854  -3.587  11.642  1.00  0.00     0.116 C 
BRANCH  38  39
ATOM     39  C   UNL     1      -1.387  -3.422  12.033  1.00  0.00     0.023 C 
BRANCH  39  40
ATOM     40  C   UNL     1      -0.537  -2.877  10.890  1.00  0.00     0.026 C 
BRANCH  40  41
ATOM     41  C   UNL     1      -0.187  -3.987   9.899  1.00  0.00     0.146 C 
BRANCH  41  42
ATOM     42  N   UNL     1      -0.964  -3.819   8.678  1.00  0.00    -0.254 NA
ATOM     43  C   UNL     1      -0.453  -4.149   7.551  1.00  0.00     0.185 C 
ATOM     44  N   UNL     1       0.759  -4.659   7.268  1.00  0.00    -0.370 N 
ATOM     45  N   UNL     1      -1.184  -3.982   6.437  1.00  0.00    -0.370 N 
ATOM     46  H   UNL     1       1.117  -4.640   6.328  1.00  0.00     0.159 HD
ATOM     47  H   UNL     1       1.436  -4.861   7.997  1.00  0.00     0.159 HD
ATOM     48  H   UNL     1      -2.115  -3.609   6.563  1.00  0.00     0.159 HD
ATOM     49  H   UNL     1      -0.956  -4.426   5.565  1.00  0.00     0.159 HD
ENDBRANCH  41  42
ENDBRANCH  40  41
ENDBRANCH  39  40
ENDBRANCH  38  39
ENDBRANCH  36  38
ENDBRANCH   5  34
BRANCH   8  50
ATOM     50  O   UNL     1      -9.013  -1.946  10.374  1.00  0.00    -0.245 OA
BRANCH  50  51
ATOM     51  S   UNL     1     -10.378  -2.271  11.198  1.00  0.00     0.397 S 
ATOM     52  O   UNL     1     -11.181  -3.165  10.395  1.00  0.00    -0.169 OA
ATOM     53  O   UNL     1     -10.921  -1.043  11.742  1.00  0.00    -0.169 OA
BRANCH  51  54
ATOM     54  O   UNL     1      -9.828  -3.156  12.422  1.00  0.00    -0.264 OA
ATOM     55  H   UNL     1      -9.057  -3.665  12.100  1.00  0.00     0.236 HD
ENDBRANCH  51  54
ENDBRANCH  50  51
ENDBRANCH   8  50
TORSDOF 19
ENDMDL
MODEL 41
REMARK VINA RESULT:    -7.713      3.426      7.525
REMARK INTER + INTRA:         -18.280
REMARK INTER:                 -14.244
REMARK INTRA:                  -4.036
REMARK UNBOUND:                -2.676
REMARK SMILES CC[C@@H](C)[C@@H](NC(=O)[C@@H](O)Cc1ccc(O)c(Cl)c1)C(=O)N1[C@H](C(=O)NCCCCN=C(N)N)C[C@H]2CC[C@H](OS(=O)(=O)O)C[C@@H]21
REMARK SMILES IDX 22 1 36 2 46 3 35 4 23 5 45 6 37 7 39 8 38 9 20 10 21 11
REMARK SMILES IDX 5 12 6 13 7 14 8 15 9 17 11 18 12 19 17 20 19 21 15 22 14 23
REMARK SMILES IDX 13 24 18 25 16 26 10 28 3 30 4 31 2 32 1 33 24 34 25 35
REMARK SMILES IDX 26 36 27 38 28 39 29 40 30 41 31 42 32 43 33 44 34 45 40 50
REMARK SMILES IDX 41 51 42 52 43 53 44 54
REMARK H PARENT 6 16 16 27 10 29 26 37 33 46 33 47 34 48 34 49 44 55
ROOT
ATOM      1  N   UNL     1      -5.420  -2.310   7.188  1.00  0.00    -0.326 N 
ATOM      2  C   UNL     1      -6.392  -2.146   5.050  1.00  0.00     0.014 C 
ATOM      3  C   UNL     1      -5.112  -2.566   5.779  1.00  0.00     0.091 C 
ATOM      4  C   UNL     1      -6.880  -0.971   5.884  1.00  0.00     0.041 C 
ATOM      5  C   UNL     1      -6.684  -1.542   7.300  1.00  0.00     0.175 C 
ATOM      6  C   UNL     1      -4.766  -3.994   5.361  1.00  0.00     0.059 C 
ATOM      7  C   UNL     1      -6.133  -1.950   3.569  1.00  0.00     0.008 C 
ATOM      8  C   UNL     1      -5.186  -4.338   3.915  1.00  0.00     0.143 C 
ATOM      9  C   UNL     1      -5.247  -3.087   3.017  1.00  0.00     0.034 C 
ENDROOT
BRANCH   1  10
ATOM     10  C   UNL     1      -4.633  -2.482   8.315  1.00  0.00     0.246 C 
ATOM     11  O   UNL     1      -5.012  -2.008   9.391  1.00  0.00    -0.272 OA
BRANCH  10  12
ATOM     12  C   UNL     1      -3.314  -3.302   8.211  1.00  0.00     0.174 C 
BRANCH  12  13
ATOM     13  N   UNL     1      -3.110  -4.075   9.435  1.00  0.00    -0.342 N 
ATOM     14  C   UNL     1      -3.006  -5.447   9.495  1.00  0.00     0.249 C 
ATOM     15  O   UNL     1      -3.045  -6.177   8.513  1.00  0.00    -0.272 OA
ATOM     16  H   UNL     1      -3.214  -3.622  10.340  1.00  0.00     0.164 HD
BRANCH  14  17
ATOM     17  C   UNL     1      -2.811  -5.966  10.936  1.00  0.00     0.207 C 
BRANCH  17  18
ATOM     18  C   UNL     1      -1.405  -6.549  11.110  1.00  0.00     0.077 C 
BRANCH  18  19
ATOM     19  C   UNL     1      -0.332  -5.529  10.801  1.00  0.00    -0.043 A 
ATOM     20  C   UNL     1       0.741  -3.402  11.258  1.00  0.00     0.083 A 
ATOM     21  C   UNL     1      -0.218  -4.364  11.576  1.00  0.00     0.028 A 
ATOM     22  C   UNL     1       1.588  -3.595  10.166  1.00  0.00     0.134 A 
ATOM     23  C   UNL     1       1.486  -4.743   9.390  1.00  0.00     0.048 A 
ATOM     24  C   UNL     1       0.526  -5.708   9.705  1.00  0.00     0.008 A 
ATOM     25  Cl  UNL     1       0.866  -1.978  12.222  1.00  0.00    -0.080 Cl
BRANCH  22  26
ATOM     26  O   UNL     1       2.536  -2.675   9.809  1.00  0.00    -0.506 OA
ATOM     27  H   UNL     1       2.470  -1.941  10.448  1.00  0.00     0.293 HD
ENDBRANCH  22  26
ENDBRANCH  18  19
ENDBRANCH  17  18
BRANCH  17  28
ATOM     28  O   UNL     1      -3.787  -6.971  11.259  1.00  0.00    -0.383 OA
ATOM     29  H   UNL     1      -3.279  -7.793  11.444  1.00  0.00     0.211 HD
ENDBRANCH  17  28
ENDBRANCH  14  17
ENDBRANCH  12  13
BRANCH  12  30
ATOM     30  C   UNL     1      -2.087  -2.420   7.855  1.00  0.00     0.018 C 
ATOM     31  C   UNL     1      -1.021  -3.242   7.112  1.00  0.00     0.010 C 
BRANCH  30  32
ATOM     32  C   UNL     1      -1.455  -1.712   9.078  1.00  0.00     0.002 C 
ATOM     33  C   UNL     1      -1.822  -0.243   9.241  1.00  0.00     0.004 C 
ENDBRANCH  30  32
ENDBRANCH  12  30
ENDBRANCH  10  12
ENDBRANCH   1  10
BRANCH   5  34
ATOM     34  C   UNL     1      -7.858  -2.471   7.710  1.00  0.00     0.242 C 
ATOM     35  O   UNL     1      -9.026  -2.231   7.402  1.00  0.00    -0.273 OA
ATOM     36  N   UNL     1      -7.506  -3.551   8.487  1.00  0.00    -0.354 N 
ATOM     37  H   UNL     1      -6.541  -3.631   8.810  1.00  0.00     0.163 HD
BRANCH  36  38
ATOM     38  C   UNL     1      -8.429  -4.629   8.777  1.00  0.00     0.116 C 
BRANCH  38  39
ATOM     39  C   UNL     1      -8.107  -5.235  10.141  1.00  0.00     0.023 C 
BRANCH  39  40
ATOM     40  C   UNL     1      -8.984  -6.439  10.466  1.00  0.00     0.026 C 
BRANCH  40  41
ATOM     41  C   UNL     1      -8.164  -7.729  10.442  1.00  0.00     0.146 C 
BRANCH  41  42
ATOM     42  N   UNL     1      -8.106  -8.250   9.082  1.00  0.00    -0.254 NA
ATOM     43  C   UNL     1      -6.996  -8.234   8.445  1.00  0.00     0.185 C 
ATOM     44  N   UNL     1      -5.784  -7.793   8.829  1.00  0.00    -0.370 N 
ATOM     45  N   UNL     1      -6.964  -8.715   7.192  1.00  0.00    -0.370 N 
ATOM     46  H   UNL     1      -5.064  -7.616   8.150  1.00  0.00     0.159 HD
ATOM     47  H   UNL     1      -5.626  -7.409   9.756  1.00  0.00     0.159 HD
ATOM     48  H   UNL     1      -7.836  -9.077   6.828  1.00  0.00     0.159 HD
ATOM     49  H   UNL     1      -6.109  -8.955   6.722  1.00  0.00     0.159 HD
ENDBRANCH  41  42
ENDBRANCH  40  41
ENDBRANCH  39  40
ENDBRANCH  38  39
ENDBRANCH  36  38
ENDBRANCH   5  34
BRANCH   8  50
ATOM     50  O   UNL     1      -6.470  -4.961   3.913  1.00  0.00    -0.245 OA
BRANCH  50  51
ATOM     51  S   UNL     1      -6.639  -6.456   4.533  1.00  0.00     0.397 S 
ATOM     52  O   UNL     1      -7.775  -6.442   5.427  1.00  0.00    -0.169 OA
ATOM     53  O   UNL     1      -5.347  -6.956   4.954  1.00  0.00    -0.169 OA
BRANCH  51  54
ATOM     54  O   UNL     1      -7.104  -7.302   3.248  1.00  0.00    -0.264 OA
ATOM     55  H   UNL     1      -7.956  -7.731   3.465  1.00  0.00     0.236 HD
ENDBRANCH  51  54
ENDBRANCH  50  51
ENDBRANCH   8  50
TORSDOF 19
ENDMDL
MODEL 42
REMARK VINA RESULT:    -7.681      4.575      7.575
REMARK INTER + INTRA:         -18.215
REMARK INTER:                 -13.608
REMARK INTRA:                  -4.607
REMARK UNBOUND:                -2.676
REMARK SMILES CC[C@@H](C)[C@@H](NC(=O)[C@@H](O)Cc1ccc(O)c(Cl)c1)C(=O)N1[C@H](C(=O)NCCCCN=C(N)N)C[C@H]2CC[C@H](OS(=O)(=O)O)C[C@@H]21
REMARK SMILES IDX 22 1 36 2 46 3 35 4 23 5 45 6 37 7 39 8 38 9 20 10 21 11
REMARK SMILES IDX 5 12 6 13 7 14 8 15 9 17 11 18 12 19 17 20 19 21 15 22 14 23
REMARK SMILES IDX 13 24 18 25 16 26 10 28 3 30 4 31 2 32 1 33 24 34 25 35
REMARK SMILES IDX 26 36 27 38 28 39 29 40 30 41 31 42 32 43 33 44 34 45 40 50
REMARK SMILES IDX 41 51 42 52 43 53 44 54
REMARK H PARENT 6 16 16 27 10 29 26 37 33 46 33 47 34 48 34 49 44 55
ROOT
ATOM      1  N   UNL     1      -4.790  -6.783  10.773  1.00  0.00    -0.326 N 
ATOM      2  C   UNL     1      -3.657  -4.766  11.212  1.00  0.00     0.014 C 
ATOM      3  C   UNL     1      -4.170  -6.046  11.878  1.00  0.00     0.091 C 
ATOM      4  C   UNL     1      -4.713  -4.494  10.152  1.00  0.00     0.041 C 
ATOM      5  C   UNL     1      -4.892  -5.911   9.576  1.00  0.00     0.175 C 
ATOM      6  C   UNL     1      -3.008  -6.701  12.624  1.00  0.00     0.059 C 
ATOM      7  C   UNL     1      -3.352  -3.701  12.247  1.00  0.00     0.008 C 
ATOM      8  C   UNL     1      -1.981  -5.693  13.182  1.00  0.00     0.143 C 
ATOM      9  C   UNL     1      -2.613  -4.313  13.456  1.00  0.00     0.034 C 
ENDROOT
BRANCH   1  10
ATOM     10  C   UNL     1      -5.439  -8.005  10.775  1.00  0.00     0.246 C 
ATOM     11  O   UNL     1      -4.770  -9.042  10.712  1.00  0.00    -0.272 OA
BRANCH  10  12
ATOM     12  C   UNL     1      -6.990  -8.050  10.900  1.00  0.00     0.174 C 
BRANCH  12  13
ATOM     13  N   UNL     1      -7.603  -7.397   9.744  1.00  0.00    -0.342 N 
ATOM     14  C   UNL     1      -7.686  -7.941   8.482  1.00  0.00     0.249 C 
ATOM     15  O   UNL     1      -7.275  -9.057   8.192  1.00  0.00    -0.272 OA
ATOM     16  H   UNL     1      -7.845  -6.410   9.792  1.00  0.00     0.164 HD
BRANCH  14  17
ATOM     17  C   UNL     1      -8.374  -6.998   7.471  1.00  0.00     0.207 C 
BRANCH  17  18
ATOM     18  C   UNL     1      -7.616  -5.670   7.376  1.00  0.00     0.077 C 
BRANCH  18  19
ATOM     19  C   UNL     1      -7.091  -5.422   5.979  1.00  0.00    -0.043 A 
ATOM     20  C   UNL     1      -6.197  -3.910   4.307  1.00  0.00     0.083 A 
ATOM     21  C   UNL     1      -6.634  -4.147   5.610  1.00  0.00     0.028 A 
ATOM     22  C   UNL     1      -6.215  -4.940   3.366  1.00  0.00     0.134 A 
ATOM     23  C   UNL     1      -6.665  -6.207   3.717  1.00  0.00     0.048 A 
ATOM     24  C   UNL     1      -7.104  -6.448   5.021  1.00  0.00     0.008 A 
ATOM     25  Cl  UNL     1      -5.640  -2.336   3.872  1.00  0.00    -0.080 Cl
BRANCH  22  26
ATOM     26  O   UNL     1      -5.806  -4.752   2.073  1.00  0.00    -0.506 OA
ATOM     27  H   UNL     1      -6.563  -4.367   1.593  1.00  0.00     0.293 HD
ENDBRANCH  22  26
ENDBRANCH  18  19
ENDBRANCH  17  18
BRANCH  17  28
ATOM     28  O   UNL     1      -9.737  -6.743   7.847  1.00  0.00    -0.383 OA
ATOM     29  H   UNL     1     -10.209  -7.602   7.759  1.00  0.00     0.211 HD
ENDBRANCH  17  28
ENDBRANCH  14  17
ENDBRANCH  12  13
BRANCH  12  30
ATOM     30  C   UNL     1      -7.500  -7.470  12.247  1.00  0.00     0.018 C 
ATOM     31  C   UNL     1      -7.666  -5.945  12.157  1.00  0.00     0.010 C 
BRANCH  30  32
ATOM     32  C   UNL     1      -6.610  -7.837  13.459  1.00  0.00     0.002 C 
ATOM     33  C   UNL     1      -6.575  -6.805  14.579  1.00  0.00     0.004 C 
ENDBRANCH  30  32
ENDBRANCH  12  30
ENDBRANCH  10  12
ENDBRANCH   1  10
BRANCH   5  34
ATOM     34  C   UNL     1      -3.781  -6.256   8.549  1.00  0.00     0.242 C 
ATOM     35  O   UNL     1      -2.764  -6.873   8.862  1.00  0.00    -0.273 OA
ATOM     36  N   UNL     1      -3.991  -5.774   7.276  1.00  0.00    -0.354 N 
ATOM     37  H   UNL     1      -4.794  -5.167   7.106  1.00  0.00     0.163 HD
BRANCH  36  38
ATOM     38  C   UNL     1      -3.174  -6.180   6.151  1.00  0.00     0.116 C 
BRANCH  38  39
ATOM     39  C   UNL     1      -2.498  -4.958   5.534  1.00  0.00     0.023 C 
BRANCH  39  40
ATOM     40  C   UNL     1      -2.783  -3.679   6.314  1.00  0.00     0.026 C 
BRANCH  40  41
ATOM     41  C   UNL     1      -1.543  -3.227   7.086  1.00  0.00     0.146 C 
BRANCH  41  42
ATOM     42  N   UNL     1      -0.816  -4.392   7.575  1.00  0.00    -0.254 NA
ATOM     43  C   UNL     1      -0.463  -4.447   8.804  1.00  0.00     0.185 C 
ATOM     44  N   UNL     1      -0.655  -3.563   9.800  1.00  0.00    -0.370 N 
ATOM     45  N   UNL     1       0.210  -5.527   9.234  1.00  0.00    -0.370 N 
ATOM     46  H   UNL     1      -0.117  -3.621  10.648  1.00  0.00     0.159 HD
ATOM     47  H   UNL     1      -1.159  -2.695   9.652  1.00  0.00     0.159 HD
ATOM     48  H   UNL     1       0.389  -6.247   8.547  1.00  0.00     0.159 HD
ATOM     49  H   UNL     1       0.310  -5.753  10.208  1.00  0.00     0.159 HD
ENDBRANCH  41  42
ENDBRANCH  40  41
ENDBRANCH  39  40
ENDBRANCH  38  39
ENDBRANCH  36  38
ENDBRANCH   5  34
BRANCH   8  50
ATOM     50  O   UNL     1      -0.907  -5.524  12.256  1.00  0.00    -0.245 OA
BRANCH  50  51
ATOM     51  S   UNL     1       0.480  -6.343  12.478  1.00  0.00     0.397 S 
ATOM     52  O   UNL     1       0.527  -6.778  13.855  1.00  0.00    -0.169 OA
ATOM     53  O   UNL     1       1.577  -5.615  11.874  1.00  0.00    -0.169 OA
BRANCH  51  54
ATOM     54  O   UNL     1       0.228  -7.671  11.607  1.00  0.00    -0.264 OA
ATOM     55  H   UNL     1       0.462  -7.468  10.678  1.00  0.00     0.236 HD
ENDBRANCH  51  54
ENDBRANCH  50  51
ENDBRANCH   8  50
TORSDOF 19
ENDMDL
MODEL 43
REMARK VINA RESULT:    -7.666      3.761      6.956
REMARK INTER + INTRA:         -18.185
REMARK INTER:                 -14.886
REMARK INTRA:                  -3.299
REMARK UNBOUND:                -2.676
REMARK SMILES CC[C@@H](C)[C@@H](NC(=O)[C@@H](O)Cc1ccc(O)c(Cl)c1)C(=O)N1[C@H](C(=O)NCCCCN=C(N)N)C[C@H]2CC[C@H](OS(=O)(=O)O)C[C@@H]21
REMARK SMILES IDX 22 1 36 2 46 3 35 4 23 5 45 6 37 7 39 8 38 9 20 10 21 11
REMARK SMILES IDX 5 12 6 13 7 14 8 15 9 17 11 18 12 19 17 20 19 21 15 22 14 23
REMARK SMILES IDX 13 24 18 25 16 26 10 28 3 30 4 31 2 32 1 33 24 34 25 35
REMARK SMILES IDX 26 36 27 38 28 39 29 40 30 41 31 42 32 43 33 44 34 45 40 50
REMARK SMILES IDX 41 51 42 52 43 53 44 54
REMARK H PARENT 6 16 16 27 10 29 26 37 33 46 33 47 34 48 34 49 44 55
ROOT
ATOM      1  N   UNL     1      -3.888  -4.616   9.022  1.00  0.00    -0.326 N 
ATOM      2  C   UNL     1      -3.014  -5.017   6.873  1.00  0.00     0.014 C 
ATOM      3  C   UNL     1      -3.694  -5.705   8.060  1.00  0.00     0.091 C 
ATOM      4  C   UNL     1      -2.148  -3.964   7.547  1.00  0.00     0.041 C 
ATOM      5  C   UNL     1      -3.147  -3.409   8.578  1.00  0.00     0.175 C 
ATOM      6  C   UNL     1      -4.927  -6.447   7.547  1.00  0.00     0.059 C 
ATOM      7  C   UNL     1      -2.367  -6.035   5.954  1.00  0.00     0.008 C 
ATOM      8  C   UNL     1      -4.776  -6.981   6.106  1.00  0.00     0.143 C 
ATOM      9  C   UNL     1      -3.302  -7.244   5.737  1.00  0.00     0.034 C 
ENDROOT
BRANCH   1  10
ATOM     10  C   UNL     1      -4.440  -4.641  10.291  1.00  0.00     0.246 C 
ATOM     11  O   UNL     1      -5.611  -4.279  10.444  1.00  0.00    -0.272 OA
BRANCH  10  12
ATOM     12  C   UNL     1      -3.591  -5.162  11.487  1.00  0.00     0.174 C 
BRANCH  12  13
ATOM     13  N   UNL     1      -2.380  -4.354  11.628  1.00  0.00    -0.342 N 
ATOM     14  C   UNL     1      -2.329  -3.098  12.191  1.00  0.00     0.249 C 
ATOM     15  O   UNL     1      -3.301  -2.524  12.667  1.00  0.00    -0.272 OA
ATOM     16  H   UNL     1      -1.531  -4.630  11.141  1.00  0.00     0.164 HD
BRANCH  14  17
ATOM     17  C   UNL     1      -0.907  -2.497  12.178  1.00  0.00     0.207 C 
BRANCH  17  18
ATOM     18  C   UNL     1       0.145  -3.608  12.261  1.00  0.00     0.077 C 
BRANCH  18  19
ATOM     19  C   UNL     1       1.070  -3.596  11.065  1.00  0.00    -0.043 A 
ATOM     20  C   UNL     1       3.050  -2.751   9.946  1.00  0.00     0.083 A 
ATOM     21  C   UNL     1       2.225  -2.798  11.071  1.00  0.00     0.028 A 
ATOM     22  C   UNL     1       2.728  -3.498   8.812  1.00  0.00     0.134 A 
ATOM     23  C   UNL     1       1.587  -4.292   8.793  1.00  0.00     0.048 A 
ATOM     24  C   UNL     1       0.758  -4.340   9.916  1.00  0.00     0.008 A 
ATOM     25  Cl  UNL     1       4.464  -1.765   9.972  1.00  0.00    -0.080 Cl
BRANCH  22  26
ATOM     26  O   UNL     1       3.500  -3.476   7.683  1.00  0.00    -0.506 OA
ATOM     27  H   UNL     1       2.890  -3.385   6.928  1.00  0.00     0.293 HD
ENDBRANCH  22  26
ENDBRANCH  18  19
ENDBRANCH  17  18
BRANCH  17  28
ATOM     28  O   UNL     1      -0.722  -1.583  13.270  1.00  0.00    -0.383 OA
ATOM     29  H   UNL     1       0.243  -1.578  13.460  1.00  0.00     0.211 HD
ENDBRANCH  17  28
ENDBRANCH  14  17
ENDBRANCH  12  13
BRANCH  12  30
ATOM     30  C   UNL     1      -3.281  -6.680  11.386  1.00  0.00     0.018 C 
ATOM     31  C   UNL     1      -4.561  -7.511  11.569  1.00  0.00     0.010 C 
BRANCH  30  32
ATOM     32  C   UNL     1      -2.190  -7.158  12.374  1.00  0.00     0.002 C 
ATOM     33  C   UNL     1      -0.856  -7.531  11.741  1.00  0.00     0.004 C 
ENDBRANCH  30  32
ENDBRANCH  12  30
ENDBRANCH  10  12
ENDBRANCH   1  10
BRANCH   5  34
ATOM     34  C   UNL     1      -4.113  -2.374   7.941  1.00  0.00     0.242 C 
ATOM     35  O   UNL     1      -3.789  -1.202   7.752  1.00  0.00    -0.273 OA
ATOM     36  N   UNL     1      -5.373  -2.849   7.652  1.00  0.00    -0.354 N 
ATOM     37  H   UNL     1      -5.619  -3.796   7.942  1.00  0.00     0.163 HD
BRANCH  36  38
ATOM     38  C   UNL     1      -6.323  -2.091   6.865  1.00  0.00     0.116 C 
BRANCH  38  39
ATOM     39  C   UNL     1      -7.017  -3.012   5.864  1.00  0.00     0.023 C 
BRANCH  39  40
ATOM     40  C   UNL     1      -6.871  -2.525   4.426  1.00  0.00     0.026 C 
BRANCH  40  41
ATOM     41  C   UNL     1      -5.520  -1.839   4.220  1.00  0.00     0.146 C 
BRANCH  41  42
ATOM     42  N   UNL     1      -5.727  -0.462   3.793  1.00  0.00    -0.254 NA
ATOM     43  C   UNL     1      -5.784  -0.189   2.543  1.00  0.00     0.185 C 
ATOM     44  N   UNL     1      -5.681  -0.999   1.475  1.00  0.00    -0.370 N 
ATOM     45  N   UNL     1      -5.970   1.088   2.170  1.00  0.00    -0.370 N 
ATOM     46  H   UNL     1      -5.499  -0.622   0.560  1.00  0.00     0.159 HD
ATOM     47  H   UNL     1      -5.550  -2.001   1.576  1.00  0.00     0.159 HD
ATOM     48  H   UNL     1      -6.067   1.764   2.915  1.00  0.00     0.159 HD
ATOM     49  H   UNL     1      -6.259   1.347   1.243  1.00  0.00     0.159 HD
ENDBRANCH  41  42
ENDBRANCH  40  41
ENDBRANCH  39  40
ENDBRANCH  38  39
ENDBRANCH  36  38
ENDBRANCH   5  34
BRANCH   8  50
ATOM     50  O   UNL     1      -5.316  -6.042   5.176  1.00  0.00    -0.245 OA
BRANCH  50  51
ATOM     51  S   UNL     1      -6.659  -6.422   4.340  1.00  0.00     0.397 S 
ATOM     52  O   UNL     1      -6.537  -5.852   3.017  1.00  0.00    -0.169 OA
ATOM     53  O   UNL     1      -7.827  -6.187   5.164  1.00  0.00    -0.169 OA
BRANCH  51  54
ATOM     54  O   UNL     1      -6.497  -8.010   4.149  1.00  0.00    -0.264 OA
ATOM     55  H   UNL     1      -6.342  -8.182   3.198  1.00  0.00     0.236 HD
ENDBRANCH  51  54
ENDBRANCH  50  51
ENDBRANCH   8  50
TORSDOF 19
ENDMDL
MODEL 44
REMARK VINA RESULT:    -7.603      3.824      8.134
REMARK INTER + INTRA:         -18.057
REMARK INTER:                 -14.919
REMARK INTRA:                  -3.139
REMARK UNBOUND:                -2.676
REMARK SMILES CC[C@@H](C)[C@@H](NC(=O)[C@@H](O)Cc1ccc(O)c(Cl)c1)C(=O)N1[C@H](C(=O)NCCCCN=C(N)N)C[C@H]2CC[C@H](OS(=O)(=O)O)C[C@@H]21
REMARK SMILES IDX 22 1 36 2 46 3 35 4 23 5 45 6 37 7 39 8 38 9 20 10 21 11
REMARK SMILES IDX 5 12 6 13 7 14 8 15 9 17 11 18 12 19 17 20 19 21 15 22 14 23
REMARK SMILES IDX 13 24 18 25 16 26 10 28 3 30 4 31 2 32 1 33 24 34 25 35
REMARK SMILES IDX 26 36 27 38 28 39 29 40 30 41 31 42 32 43 33 44 34 45 40 50
REMARK SMILES IDX 41 51 42 52 43 53 44 54
REMARK H PARENT 6 16 16 27 10 29 26 37 33 46 33 47 34 48 34 49 44 55
ROOT
ATOM      1  N   UNL     1      -7.153  -3.917   7.671  1.00  0.00    -0.326 N 
ATOM      2  C   UNL     1      -6.145  -2.809   9.487  1.00  0.00     0.014 C 
ATOM      3  C   UNL     1      -6.569  -2.621   8.028  1.00  0.00     0.091 C 
ATOM      4  C   UNL     1      -5.717  -4.267   9.526  1.00  0.00     0.041 C 
ATOM      5  C   UNL     1      -6.870  -4.911   8.736  1.00  0.00     0.175 C 
ATOM      6  C   UNL     1      -7.453  -1.378   7.938  1.00  0.00     0.059 C 
ATOM      7  C   UNL     1      -5.162  -1.734   9.909  1.00  0.00     0.008 C 
ATOM      8  C   UNL     1      -7.092  -0.283   8.964  1.00  0.00     0.143 C 
ATOM      9  C   UNL     1      -5.611  -0.352   9.388  1.00  0.00     0.034 C 
ENDROOT
BRANCH   1  10
ATOM     10  C   UNL     1      -7.691  -4.348   6.471  1.00  0.00     0.246 C 
ATOM     11  O   UNL     1      -8.913  -4.280   6.301  1.00  0.00    -0.272 OA
BRANCH  10  12
ATOM     12  C   UNL     1      -6.746  -4.867   5.349  1.00  0.00     0.174 C 
BRANCH  12  13
ATOM     13  N   UNL     1      -5.472  -5.292   5.928  1.00  0.00    -0.342 N 
ATOM     14  C   UNL     1      -4.957  -6.567   5.854  1.00  0.00     0.249 C 
ATOM     15  O   UNL     1      -5.504  -7.491   5.265  1.00  0.00    -0.272 OA
ATOM     16  H   UNL     1      -4.984  -4.680   6.577  1.00  0.00     0.164 HD
BRANCH  14  17
ATOM     17  C   UNL     1      -3.601  -6.705   6.580  1.00  0.00     0.207 C 
BRANCH  17  18
ATOM     18  C   UNL     1      -3.138  -5.345   7.112  1.00  0.00     0.077 C 
BRANCH  18  19
ATOM     19  C   UNL     1      -2.027  -5.487   8.127  1.00  0.00    -0.043 A 
ATOM     20  C   UNL     1      -1.294  -5.976  10.387  1.00  0.00     0.083 A 
ATOM     21  C   UNL     1      -2.315  -5.893   9.440  1.00  0.00     0.028 A 
ATOM     22  C   UNL     1       0.016  -5.654  10.032  1.00  0.00     0.134 A 
ATOM     23  C   UNL     1       0.315  -5.250   8.736  1.00  0.00     0.048 A 
ATOM     24  C   UNL     1      -0.705  -5.165   7.786  1.00  0.00     0.008 A 
ATOM     25  Cl  UNL     1      -1.667  -6.477  11.995  1.00  0.00    -0.080 Cl
BRANCH  22  26
ATOM     26  O   UNL     1       1.048  -5.710  10.930  1.00  0.00    -0.506 OA
ATOM     27  H   UNL     1       0.648  -5.687  11.819  1.00  0.00     0.293 HD
ENDBRANCH  22  26
ENDBRANCH  18  19
ENDBRANCH  17  18
BRANCH  17  28
ATOM     28  O   UNL     1      -2.597  -7.240   5.702  1.00  0.00    -0.383 OA
ATOM     29  H   UNL     1      -2.645  -8.218   5.800  1.00  0.00     0.211 HD
ENDBRANCH  17  28
ENDBRANCH  14  17
ENDBRANCH  12  13
BRANCH  12  30
ATOM     30  C   UNL     1      -6.560  -3.841   4.198  1.00  0.00     0.018 C 
ATOM     31  C   UNL     1      -5.949  -4.514   2.959  1.00  0.00     0.010 C 
BRANCH  30  32
ATOM     32  C   UNL     1      -5.723  -2.603   4.599  1.00  0.00     0.002 C 
ATOM     33  C   UNL     1      -5.739  -1.454   3.599  1.00  0.00     0.004 C 
ENDBRANCH  30  32
ENDBRANCH  12  30
ENDBRANCH  10  12
ENDBRANCH   1  10
BRANCH   5  34
ATOM     34  C   UNL     1      -8.121  -5.133   9.628  1.00  0.00     0.242 C 
ATOM     35  O   UNL     1      -9.240  -5.328   9.154  1.00  0.00    -0.273 OA
ATOM     36  N   UNL     1      -7.897  -5.043  10.983  1.00  0.00    -0.354 N 
ATOM     37  H   UNL     1      -6.972  -4.760  11.311  1.00  0.00     0.163 HD
BRANCH  36  38
ATOM     38  C   UNL     1      -8.894  -5.432  11.959  1.00  0.00     0.116 C 
BRANCH  38  39
ATOM     39  C   UNL     1      -8.265  -5.485  13.349  1.00  0.00     0.023 C 
BRANCH  39  40
ATOM     40  C   UNL     1      -8.862  -4.452  14.299  1.00  0.00     0.026 C 
BRANCH  40  41
ATOM     41  C   UNL     1      -9.673  -3.411  13.527  1.00  0.00     0.146 C 
BRANCH  41  42
ATOM     42  N   UNL     1     -10.455  -2.607  14.457  1.00  0.00    -0.254 NA
ATOM     43  C   UNL     1     -11.230  -1.693  14.007  1.00  0.00     0.185 C 
ATOM     44  N   UNL     1     -11.474  -1.312  12.739  1.00  0.00    -0.370 N 
ATOM     45  N   UNL     1     -11.939  -0.960  14.881  1.00  0.00    -0.370 N 
ATOM     46  H   UNL     1     -11.913  -0.428  12.545  1.00  0.00     0.159 HD
ATOM     47  H   UNL     1     -11.031  -1.771  11.950  1.00  0.00     0.159 HD
ATOM     48  H   UNL     1     -11.820  -1.188  15.858  1.00  0.00     0.159 HD
ATOM     49  H   UNL     1     -12.728  -0.402  14.608  1.00  0.00     0.159 HD
ENDBRANCH  41  42
ENDBRANCH  40  41
ENDBRANCH  39  40
ENDBRANCH  38  39
ENDBRANCH  36  38
ENDBRANCH   5  34
BRANCH   8  50
ATOM     50  O   UNL     1      -7.904  -0.417  10.131  1.00  0.00    -0.245 OA
BRANCH  50  51
ATOM     51  S   UNL     1      -9.327   0.366  10.213  1.00  0.00     0.397 S 
ATOM     52  O   UNL     1      -9.404   1.272   9.089  1.00  0.00    -0.169 OA
ATOM     53  O   UNL     1      -9.556   0.817  11.569  1.00  0.00    -0.169 OA
BRANCH  51  54
ATOM     54  O   UNL     1     -10.376  -0.812   9.898  1.00  0.00    -0.264 OA
ATOM     55  H   UNL     1     -11.277  -0.451  10.026  1.00  0.00     0.236 HD
ENDBRANCH  51  54
ENDBRANCH  50  51
ENDBRANCH   8  50
TORSDOF 19
ENDMDL
MODEL 45
REMARK VINA RESULT:    -7.556      2.970      6.200
REMARK INTER + INTRA:         -17.962
REMARK INTER:                 -14.703
REMARK INTRA:                  -3.259
REMARK UNBOUND:                -2.676
REMARK SMILES CC[C@@H](C)[C@@H](NC(=O)[C@@H](O)Cc1ccc(O)c(Cl)c1)C(=O)N1[C@H](C(=O)NCCCCN=C(N)N)C[C@H]2CC[C@H](OS(=O)(=O)O)C[C@@H]21
REMARK SMILES IDX 22 1 36 2 46 3 35 4 23 5 45 6 37 7 39 8 38 9 20 10 21 11
REMARK SMILES IDX 5 12 6 13 7 14 8 15 9 17 11 18 12 19 17 20 19 21 15 22 14 23
REMARK SMILES IDX 13 24 18 25 16 26 10 28 3 30 4 31 2 32 1 33 24 34 25 35
REMARK SMILES IDX 26 36 27 38 28 39 29 40 30 41 31 42 32 43 33 44 34 45 40 50
REMARK SMILES IDX 41 51 42 52 43 53 44 54
REMARK H PARENT 6 16 16 27 10 29 26 37 33 46 33 47 34 48 34 49 44 55
ROOT
ATOM      1  N   UNL     1      -4.802  -4.530   6.837  1.00  0.00    -0.326 N 
ATOM      2  C   UNL     1      -4.253  -4.163   4.578  1.00  0.00     0.014 C 
ATOM      3  C   UNL     1      -5.438  -4.282   5.540  1.00  0.00     0.091 C 
ATOM      4  C   UNL     1      -3.253  -5.155   5.152  1.00  0.00     0.041 C 
ATOM      5  C   UNL     1      -3.357  -4.810   6.649  1.00  0.00     0.175 C 
ATOM      6  C   UNL     1      -6.312  -3.039   5.387  1.00  0.00     0.059 C 
ATOM      7  C   UNL     1      -4.706  -4.313   3.139  1.00  0.00     0.008 C 
ATOM      8  C   UNL     1      -6.310  -2.450   3.960  1.00  0.00     0.143 C 
ATOM      9  C   UNL     1      -6.007  -3.520   2.892  1.00  0.00     0.034 C 
ENDROOT
BRANCH   1  10
ATOM     10  C   UNL     1      -5.374  -4.741   8.080  1.00  0.00     0.246 C 
ATOM     11  O   UNL     1      -4.893  -4.173   9.067  1.00  0.00    -0.272 OA
BRANCH  10  12
ATOM     12  C   UNL     1      -6.631  -5.650   8.202  1.00  0.00     0.174 C 
BRANCH  12  13
ATOM     13  N   UNL     1      -7.472  -5.193   9.309  1.00  0.00    -0.342 N 
ATOM     14  C   UNL     1      -8.472  -4.253   9.205  1.00  0.00     0.249 C 
ATOM     15  O   UNL     1      -8.790  -3.709   8.155  1.00  0.00    -0.272 OA
ATOM     16  H   UNL     1      -7.223  -5.438  10.264  1.00  0.00     0.164 HD
BRANCH  14  17
ATOM     17  C   UNL     1      -9.167  -3.972  10.554  1.00  0.00     0.207 C 
BRANCH  17  18
ATOM     18  C   UNL     1      -9.970  -2.669  10.482  1.00  0.00     0.077 C 
BRANCH  18  19
ATOM     19  C   UNL     1     -10.369  -2.178  11.855  1.00  0.00    -0.043 A 
ATOM     20  C   UNL     1     -11.546  -2.516  13.949  1.00  0.00     0.083 A 
ATOM     21  C   UNL     1     -11.137  -2.991  12.703  1.00  0.00     0.028 A 
ATOM     22  C   UNL     1     -11.192  -1.229  14.356  1.00  0.00     0.134 A 
ATOM     23  C   UNL     1     -10.431  -0.413  13.527  1.00  0.00     0.048 A 
ATOM     24  C   UNL     1     -10.023  -0.885  12.278  1.00  0.00     0.008 A 
ATOM     25  Cl  UNL     1     -12.490  -3.530  14.977  1.00  0.00    -0.080 Cl
BRANCH  22  26
ATOM     26  O   UNL     1     -11.578  -0.716  15.565  1.00  0.00    -0.506 OA
ATOM     27  H   UNL     1     -10.856  -0.132  15.864  1.00  0.00     0.293 HD
ENDBRANCH  22  26
ENDBRANCH  18  19
ENDBRANCH  17  18
BRANCH  17  28
ATOM     28  O   UNL     1      -8.208  -3.882  11.621  1.00  0.00    -0.383 OA
ATOM     29  H   UNL     1      -7.686  -3.066  11.449  1.00  0.00     0.211 HD
ENDBRANCH  17  28
ENDBRANCH  14  17
ENDBRANCH  12  13
BRANCH  12  30
ATOM     30  C   UNL     1      -6.273  -7.157   8.313  1.00  0.00     0.018 C 
ATOM     31  C   UNL     1      -7.434  -8.032   7.815  1.00  0.00     0.010 C 
BRANCH  30  32
ATOM     32  C   UNL     1      -5.851  -7.592   9.737  1.00  0.00     0.002 C 
ATOM     33  C   UNL     1      -4.384  -7.970   9.895  1.00  0.00     0.004 C 
ENDBRANCH  30  32
ENDBRANCH  12  30
ENDBRANCH  10  12
ENDBRANCH   1  10
BRANCH   5  34
ATOM     34  C   UNL     1      -2.504  -3.564   7.010  1.00  0.00     0.242 C 
ATOM     35  O   UNL     1      -1.284  -3.533   6.850  1.00  0.00    -0.273 OA
ATOM     36  N   UNL     1      -3.203  -2.518   7.570  1.00  0.00    -0.354 N 
ATOM     37  H   UNL     1      -4.191  -2.649   7.789  1.00  0.00     0.163 HD
BRANCH  36  38
ATOM     38  C   UNL     1      -2.612  -1.211   7.766  1.00  0.00     0.116 C 
BRANCH  38  39
ATOM     39  C   UNL     1      -3.687  -0.214   8.192  1.00  0.00     0.023 C 
BRANCH  39  40
ATOM     40  C   UNL     1      -4.174  -0.456   9.617  1.00  0.00     0.026 C 
BRANCH  40  41
ATOM     41  C   UNL     1      -5.691  -0.291   9.708  1.00  0.00     0.146 C 
BRANCH  41  42
ATOM     42  N   UNL     1      -6.290  -0.517   8.399  1.00  0.00    -0.254 NA
ATOM     43  C   UNL     1      -7.521  -0.225   8.207  1.00  0.00     0.185 C 
ATOM     44  N   UNL     1      -8.430   0.291   9.054  1.00  0.00    -0.370 N 
ATOM     45  N   UNL     1      -8.056  -0.446   6.995  1.00  0.00    -0.370 N 
ATOM     46  H   UNL     1      -9.413   0.240   8.846  1.00  0.00     0.159 HD
ATOM     47  H   UNL     1      -8.191   0.531  10.011  1.00  0.00     0.159 HD
ATOM     48  H   UNL     1      -7.435  -0.826   6.294  1.00  0.00     0.159 HD
ATOM     49  H   UNL     1      -8.923  -0.033   6.699  1.00  0.00     0.159 HD
ENDBRANCH  41  42
ENDBRANCH  40  41
ENDBRANCH  39  40
ENDBRANCH  38  39
ENDBRANCH  36  38
ENDBRANCH   5  34
BRANCH   8  50
ATOM     50  O   UNL     1      -5.331  -1.416   3.857  1.00  0.00    -0.245 OA
BRANCH  50  51
ATOM     51  S   UNL     1      -5.804   0.111   3.556  1.00  0.00     0.397 S 
ATOM     52  O   UNL     1      -6.247   0.695   4.802  1.00  0.00    -0.169 OA
ATOM     53  O   UNL     1      -6.631   0.139   2.368  1.00  0.00    -0.169 OA
BRANCH  51  54
ATOM     54  O   UNL     1      -4.409   0.831   3.207  1.00  0.00    -0.264 OA
ATOM     55  H   UNL     1      -4.587   1.788   3.099  1.00  0.00     0.236 HD
ENDBRANCH  51  54
ENDBRANCH  50  51
ENDBRANCH   8  50
TORSDOF 19
ENDMDL
MODEL 46
REMARK VINA RESULT:    -7.545      2.412      3.521
REMARK INTER + INTRA:         -17.940
REMARK INTER:                 -14.468
REMARK INTRA:                  -3.472
REMARK UNBOUND:                -2.676
REMARK SMILES CC[C@@H](C)[C@@H](NC(=O)[C@@H](O)Cc1ccc(O)c(Cl)c1)C(=O)N1[C@H](C(=O)NCCCCN=C(N)N)C[C@H]2CC[C@H](OS(=O)(=O)O)C[C@@H]21
REMARK SMILES IDX 22 1 36 2 46 3 35 4 23 5 45 6 37 7 39 8 38 9 20 10 21 11
REMARK SMILES IDX 5 12 6 13 7 14 8 15 9 17 11 18 12 19 17 20 19 21 15 22 14 23
REMARK SMILES IDX 13 24 18 25 16 26 10 28 3 30 4 31 2 32 1 33 24 34 25 35
REMARK SMILES IDX 26 36 27 38 28 39 29 40 30 41 31 42 32 43 33 44 34 45 40 50
REMARK SMILES IDX 41 51 42 52 43 53 44 54
REMARK H PARENT 6 16 16 27 10 29 26 37 33 46 33 47 34 48 34 49 44 55
ROOT
ATOM      1  N   UNL     1      -4.527  -6.005   8.773  1.00  0.00    -0.326 N 
ATOM      2  C   UNL     1      -5.722  -7.415  10.232  1.00  0.00     0.014 C 
ATOM      3  C   UNL     1      -5.002  -6.065  10.159  1.00  0.00     0.091 C 
ATOM      4  C   UNL     1      -4.891  -8.288   9.305  1.00  0.00     0.041 C 
ATOM      5  C   UNL     1      -4.703  -7.325   8.119  1.00  0.00     0.175 C 
ATOM      6  C   UNL     1      -5.961  -4.979  10.643  1.00  0.00     0.059 C 
ATOM      7  C   UNL     1      -5.926  -7.842  11.673  1.00  0.00     0.008 C 
ATOM      8  C   UNL     1      -6.952  -5.462  11.724  1.00  0.00     0.143 C 
ATOM      9  C   UNL     1      -6.393  -6.650  12.533  1.00  0.00     0.034 C 
ENDROOT
BRANCH   1  10
ATOM     10  C   UNL     1      -3.793  -5.025   8.128  1.00  0.00     0.246 C 
ATOM     11  O   UNL     1      -4.198  -4.583   7.048  1.00  0.00    -0.272 OA
BRANCH  10  12
ATOM     12  C   UNL     1      -2.500  -4.471   8.795  1.00  0.00     0.174 C 
BRANCH  12  13
ATOM     13  N   UNL     1      -2.336  -3.056   8.466  1.00  0.00    -0.342 N 
ATOM     14  C   UNL     1      -1.943  -2.079   9.352  1.00  0.00     0.249 C 
ATOM     15  O   UNL     1      -1.657  -2.295  10.523  1.00  0.00    -0.272 OA
ATOM     16  H   UNL     1      -2.685  -2.702   7.579  1.00  0.00     0.164 HD
BRANCH  14  17
ATOM     17  C   UNL     1      -1.880  -0.679   8.706  1.00  0.00     0.207 C 
BRANCH  17  18
ATOM     18  C   UNL     1      -2.862   0.274   9.395  1.00  0.00     0.077 C 
BRANCH  18  19
ATOM     19  C   UNL     1      -4.238  -0.338   9.530  1.00  0.00    -0.043 A 
ATOM     20  C   UNL     1      -6.312  -1.090   8.522  1.00  0.00     0.083 A 
ATOM     21  C   UNL     1      -5.024  -0.571   8.390  1.00  0.00     0.028 A 
ATOM     22  C   UNL     1      -6.824  -1.377   9.788  1.00  0.00     0.134 A 
ATOM     23  C   UNL     1      -6.056  -1.151  10.925  1.00  0.00     0.048 A 
ATOM     24  C   UNL     1      -4.767  -0.630  10.796  1.00  0.00     0.008 A 
ATOM     25  Cl  UNL     1      -7.263  -1.370   7.110  1.00  0.00    -0.080 Cl
BRANCH  22  26
ATOM     26  O   UNL     1      -8.085  -1.877   9.968  1.00  0.00    -0.506 OA
ATOM     27  H   UNL     1      -8.511  -1.324  10.649  1.00  0.00     0.293 HD
ENDBRANCH  22  26
ENDBRANCH  18  19
ENDBRANCH  17  18
BRANCH  17  28
ATOM     28  O   UNL     1      -2.183  -0.742   7.303  1.00  0.00    -0.383 OA
ATOM     29  H   UNL     1      -2.095   0.177   6.964  1.00  0.00     0.211 HD
ENDBRANCH  17  28
ENDBRANCH  14  17
ENDBRANCH  12  13
BRANCH  12  30
ATOM     30  C   UNL     1      -1.240  -5.310   8.449  1.00  0.00     0.018 C 
ATOM     31  C   UNL     1      -0.409  -5.594   9.710  1.00  0.00     0.010 C 
BRANCH  30  32
ATOM     32  C   UNL     1      -0.348  -4.671   7.357  1.00  0.00     0.002 C 
ATOM     33  C   UNL     1      -0.731  -5.009   5.923  1.00  0.00     0.004 C 
ENDBRANCH  30  32
ENDBRANCH  12  30
ENDBRANCH  10  12
ENDBRANCH   1  10
BRANCH   5  34
ATOM     34  C   UNL     1      -5.945  -7.316   7.188  1.00  0.00     0.242 C 
ATOM     35  O   UNL     1      -7.094  -7.379   7.623  1.00  0.00    -0.273 OA
ATOM     36  N   UNL     1      -5.666  -7.289   5.840  1.00  0.00    -0.354 N 
ATOM     37  H   UNL     1      -4.693  -7.359   5.537  1.00  0.00     0.163 HD
BRANCH  36  38
ATOM     38  C   UNL     1      -6.691  -7.060   4.842  1.00  0.00     0.116 C 
BRANCH  38  39
ATOM     39  C   UNL     1      -6.289  -5.893   3.943  1.00  0.00     0.023 C 
BRANCH  39  40
ATOM     40  C   UNL     1      -6.586  -4.539   4.578  1.00  0.00     0.026 C 
BRANCH  40  41
ATOM     41  C   UNL     1      -6.156  -3.400   3.654  1.00  0.00     0.146 C 
BRANCH  41  42
ATOM     42  N   UNL     1      -5.107  -3.865   2.755  1.00  0.00    -0.254 NA
ATOM     43  C   UNL     1      -4.960  -3.308   1.612  1.00  0.00     0.185 C 
ATOM     44  N   UNL     1      -5.645  -2.297   1.048  1.00  0.00    -0.370 N 
ATOM     45  N   UNL     1      -3.990  -3.754   0.797  1.00  0.00    -0.370 N 
ATOM     46  H   UNL     1      -5.583  -2.125   0.059  1.00  0.00     0.159 HD
ATOM     47  H   UNL     1      -6.406  -1.832   1.533  1.00  0.00     0.159 HD
ATOM     48  H   UNL     1      -3.420  -4.510   1.151  1.00  0.00     0.159 HD
ATOM     49  H   UNL     1      -3.660  -3.230   0.006  1.00  0.00     0.159 HD
ENDBRANCH  41  42
ENDBRANCH  40  41
ENDBRANCH  39  40
ENDBRANCH  38  39
ENDBRANCH  36  38
ENDBRANCH   5  34
BRANCH   8  50
ATOM     50  O   UNL     1      -8.180  -5.865  11.117  1.00  0.00    -0.245 OA
BRANCH  50  51
ATOM     51  S   UNL     1      -9.499  -4.925  11.271  1.00  0.00     0.397 S 
ATOM     52  O   UNL     1      -9.140  -3.783  12.082  1.00  0.00    -0.169 OA
ATOM     53  O   UNL     1     -10.649  -5.748  11.584  1.00  0.00    -0.169 OA
BRANCH  51  54
ATOM     54  O   UNL     1      -9.685  -4.361   9.777  1.00  0.00    -0.264 OA
ATOM     55  H   UNL     1     -10.228  -5.006   9.280  1.00  0.00     0.236 HD
ENDBRANCH  51  54
ENDBRANCH  50  51
ENDBRANCH   8  50
TORSDOF 19
ENDMDL
MODEL 47
REMARK VINA RESULT:    -7.536      3.059      5.310
REMARK INTER + INTRA:         -17.921
REMARK INTER:                 -13.824
REMARK INTRA:                  -4.097
REMARK UNBOUND:                -2.676
REMARK SMILES CC[C@@H](C)[C@@H](NC(=O)[C@@H](O)Cc1ccc(O)c(Cl)c1)C(=O)N1[C@H](C(=O)NCCCCN=C(N)N)C[C@H]2CC[C@H](OS(=O)(=O)O)C[C@@H]21
REMARK SMILES IDX 22 1 36 2 46 3 35 4 23 5 45 6 37 7 39 8 38 9 20 10 21 11
REMARK SMILES IDX 5 12 6 13 7 14 8 15 9 17 11 18 12 19 17 20 19 21 15 22 14 23
REMARK SMILES IDX 13 24 18 25 16 26 10 28 3 30 4 31 2 32 1 33 24 34 25 35
REMARK SMILES IDX 26 36 27 38 28 39 29 40 30 41 31 42 32 43 33 44 34 45 40 50
REMARK SMILES IDX 41 51 42 52 43 53 44 54
REMARK H PARENT 6 16 16 27 10 29 26 37 33 46 33 47 34 48 34 49 44 55
ROOT
ATOM      1  N   UNL     1      -2.487  -3.232   7.647  1.00  0.00    -0.326 N 
ATOM      2  C   UNL     1      -0.695  -4.570   8.381  1.00  0.00     0.014 C 
ATOM      3  C   UNL     1      -1.670  -3.481   8.838  1.00  0.00     0.091 C 
ATOM      4  C   UNL     1      -0.451  -4.211   6.923  1.00  0.00     0.041 C 
ATOM      5  C   UNL     1      -1.892  -3.914   6.471  1.00  0.00     0.175 C 
ATOM      6  C   UNL     1      -2.369  -3.961  10.108  1.00  0.00     0.059 C 
ATOM      7  C   UNL     1       0.485  -4.673   9.328  1.00  0.00     0.008 C 
ATOM      8  C   UNL     1      -1.493  -4.875  10.992  1.00  0.00     0.143 C 
ATOM      9  C   UNL     1       0.012  -4.602  10.796  1.00  0.00     0.034 C 
ENDROOT
BRANCH   1  10
ATOM     10  C   UNL     1      -3.523  -2.334   7.453  1.00  0.00     0.246 C 
ATOM     11  O   UNL     1      -3.640  -1.778   6.356  1.00  0.00    -0.272 OA
BRANCH  10  12
ATOM     12  C   UNL     1      -4.540  -2.077   8.603  1.00  0.00     0.174 C 
BRANCH  12  13
ATOM     13  N   UNL     1      -5.877  -2.501   8.190  1.00  0.00    -0.342 N 
ATOM     14  C   UNL     1      -6.724  -3.286   8.940  1.00  0.00     0.249 C 
ATOM     15  O   UNL     1      -6.457  -3.698  10.062  1.00  0.00    -0.272 OA
ATOM     16  H   UNL     1      -6.172  -2.369   7.226  1.00  0.00     0.164 HD
BRANCH  14  17
ATOM     17  C   UNL     1      -8.059  -3.576   8.222  1.00  0.00     0.207 C 
BRANCH  17  18
ATOM     18  C   UNL     1      -8.769  -2.267   7.861  1.00  0.00     0.077 C 
BRANCH  18  19
ATOM     19  C   UNL     1      -9.068  -1.434   9.087  1.00  0.00    -0.043 A 
ATOM     20  C   UNL     1     -10.176  -1.166  11.228  1.00  0.00     0.083 A 
ATOM     21  C   UNL     1      -9.860  -1.955  10.121  1.00  0.00     0.028 A 
ATOM     22  C   UNL     1      -9.705   0.145  11.307  1.00  0.00     0.134 A 
ATOM     23  C   UNL     1      -8.920   0.674  10.290  1.00  0.00     0.048 A 
ATOM     24  C   UNL     1      -8.604  -0.112   9.180  1.00  0.00     0.008 A 
ATOM     25  Cl  UNL     1     -11.150  -1.824  12.489  1.00  0.00    -0.080 Cl
BRANCH  22  26
ATOM     26  O   UNL     1      -9.997   0.961  12.367  1.00  0.00    -0.506 OA
ATOM     27  H   UNL     1      -9.792   0.454  13.175  1.00  0.00     0.293 HD
ENDBRANCH  22  26
ENDBRANCH  18  19
ENDBRANCH  17  18
BRANCH  17  28
ATOM     28  O   UNL     1      -8.925  -4.376   9.044  1.00  0.00    -0.383 OA
ATOM     29  H   UNL     1      -8.702  -4.149   9.975  1.00  0.00     0.211 HD
ENDBRANCH  17  28
ENDBRANCH  14  17
ENDBRANCH  12  13
BRANCH  12  30
ATOM     30  C   UNL     1      -4.514  -0.610   9.110  1.00  0.00     0.018 C 
ATOM     31  C   UNL     1      -3.071  -0.089   9.202  1.00  0.00     0.010 C 
BRANCH  30  32
ATOM     32  C   UNL     1      -5.240  -0.407  10.462  1.00  0.00     0.002 C 
ATOM     33  C   UNL     1      -4.609  -1.116  11.653  1.00  0.00     0.004 C 
ENDBRANCH  30  32
ENDBRANCH  12  30
ENDBRANCH  10  12
ENDBRANCH   1  10
BRANCH   5  34
ATOM     34  C   UNL     1      -2.668  -5.218   6.141  1.00  0.00     0.242 C 
ATOM     35  O   UNL     1      -2.322  -5.978   5.237  1.00  0.00    -0.273 OA
ATOM     36  N   UNL     1      -3.799  -5.433   6.896  1.00  0.00    -0.354 N 
ATOM     37  H   UNL     1      -4.100  -4.708   7.548  1.00  0.00     0.163 HD
BRANCH  36  38
ATOM     38  C   UNL     1      -4.516  -6.691   6.873  1.00  0.00     0.116 C 
BRANCH  38  39
ATOM     39  C   UNL     1      -6.020  -6.430   6.881  1.00  0.00     0.023 C 
BRANCH  39  40
ATOM     40  C   UNL     1      -6.835  -7.719   6.932  1.00  0.00     0.026 C 
BRANCH  40  41
ATOM     41  C   UNL     1      -7.610  -7.818   8.246  1.00  0.00     0.146 C 
BRANCH  41  42
ATOM     42  N   UNL     1      -7.025  -6.919   9.232  1.00  0.00    -0.254 NA
ATOM     43  C   UNL     1      -6.283  -7.394  10.161  1.00  0.00     0.185 C 
ATOM     44  N   UNL     1      -5.916  -8.664  10.411  1.00  0.00    -0.370 N 
ATOM     45  N   UNL     1      -5.757  -6.548  11.062  1.00  0.00    -0.370 N 
ATOM     46  H   UNL     1      -5.536  -8.921  11.306  1.00  0.00     0.159 HD
ATOM     47  H   UNL     1      -6.214  -9.431   9.817  1.00  0.00     0.159 HD
ATOM     48  H   UNL     1      -5.977  -5.569  10.941  1.00  0.00     0.159 HD
ATOM     49  H   UNL     1      -4.992  -6.800  11.662  1.00  0.00     0.159 HD
ENDBRANCH  41  42
ENDBRANCH  40  41
ENDBRANCH  39  40
ENDBRANCH  38  39
ENDBRANCH  36  38
ENDBRANCH   5  34
BRANCH   8  50
ATOM     50  O   UNL     1      -1.749  -6.246  10.685  1.00  0.00    -0.245 OA
BRANCH  50  51
ATOM     51  S   UNL     1      -2.252  -7.252  11.859  1.00  0.00     0.397 S 
ATOM     52  O   UNL     1      -1.121  -7.547  12.710  1.00  0.00    -0.169 OA
ATOM     53  O   UNL     1      -3.064  -8.304  11.283  1.00  0.00    -0.169 OA
BRANCH  51  54
ATOM     54  O   UNL     1      -3.216  -6.300  12.726  1.00  0.00    -0.264 OA
ATOM     55  H   UNL     1      -2.700  -5.969  13.489  1.00  0.00     0.236 HD
ENDBRANCH  51  54
ENDBRANCH  50  51
ENDBRANCH   8  50
TORSDOF 19
ENDMDL
MODEL 48
REMARK VINA RESULT:    -7.491      2.783      5.287
REMARK INTER + INTRA:         -17.831
REMARK INTER:                 -13.738
REMARK INTRA:                  -4.093
REMARK UNBOUND:                -2.676
REMARK SMILES CC[C@@H](C)[C@@H](NC(=O)[C@@H](O)Cc1ccc(O)c(Cl)c1)C(=O)N1[C@H](C(=O)NCCCCN=C(N)N)C[C@H]2CC[C@H](OS(=O)(=O)O)C[C@@H]21
REMARK SMILES IDX 22 1 36 2 46 3 35 4 23 5 45 6 37 7 39 8 38 9 20 10 21 11
REMARK SMILES IDX 5 12 6 13 7 14 8 15 9 17 11 18 12 19 17 20 19 21 15 22 14 23
REMARK SMILES IDX 13 24 18 25 16 26 10 28 3 30 4 31 2 32 1 33 24 34 25 35
REMARK SMILES IDX 26 36 27 38 28 39 29 40 30 41 31 42 32 43 33 44 34 45 40 50
REMARK SMILES IDX 41 51 42 52 43 53 44 54
REMARK H PARENT 6 16 16 27 10 29 26 37 33 46 33 47 34 48 34 49 44 55
ROOT
ATOM      1  N   UNL     1      -5.520  -3.325   7.755  1.00  0.00    -0.326 N 
ATOM      2  C   UNL     1      -4.103  -5.204   7.826  1.00  0.00     0.014 C 
ATOM      3  C   UNL     1      -5.121  -4.413   8.652  1.00  0.00     0.091 C 
ATOM      4  C   UNL     1      -3.408  -4.116   7.021  1.00  0.00     0.041 C 
ATOM      5  C   UNL     1      -4.626  -3.289   6.571  1.00  0.00     0.175 C 
ATOM      6  C   UNL     1      -6.197  -5.378   9.145  1.00  0.00     0.059 C 
ATOM      7  C   UNL     1      -3.278  -6.117   8.711  1.00  0.00     0.008 C 
ATOM      8  C   UNL     1      -5.678  -6.808   9.405  1.00  0.00     0.143 C 
ATOM      9  C   UNL     1      -4.174  -6.825   9.748  1.00  0.00     0.034 C 
ENDROOT
BRANCH   1  10
ATOM     10  C   UNL     1      -6.405  -2.281   7.964  1.00  0.00     0.246 C 
ATOM     11  O   UNL     1      -7.536  -2.344   7.471  1.00  0.00    -0.272 OA
BRANCH  10  12
ATOM     12  C   UNL     1      -5.973  -1.075   8.848  1.00  0.00     0.174 C 
BRANCH  12  13
ATOM     13  N   UNL     1      -4.588  -1.248   9.285  1.00  0.00    -0.342 N 
ATOM     14  C   UNL     1      -3.483  -0.767   8.620  1.00  0.00     0.249 C 
ATOM     15  O   UNL     1      -3.542  -0.108   7.589  1.00  0.00    -0.272 OA
ATOM     16  H   UNL     1      -4.375  -1.903  10.034  1.00  0.00     0.164 HD
BRANCH  14  17
ATOM     17  C   UNL     1      -2.159  -1.129   9.325  1.00  0.00     0.207 C 
BRANCH  17  18
ATOM     18  C   UNL     1      -2.433  -1.928  10.603  1.00  0.00     0.077 C 
BRANCH  18  19
ATOM     19  C   UNL     1      -1.608  -3.194  10.662  1.00  0.00    -0.043 A 
ATOM     20  C   UNL     1      -0.005  -4.708   9.652  1.00  0.00     0.083 A 
ATOM     21  C   UNL     1      -0.727  -3.515   9.617  1.00  0.00     0.028 A 
ATOM     22  C   UNL     1      -0.157  -5.586  10.726  1.00  0.00     0.134 A 
ATOM     23  C   UNL     1      -1.025  -5.280  11.767  1.00  0.00     0.048 A 
ATOM     24  C   UNL     1      -1.752  -4.088  11.734  1.00  0.00     0.008 A 
ATOM     25  Cl  UNL     1       1.072  -5.085   8.359  1.00  0.00    -0.080 Cl
BRANCH  22  26
ATOM     26  O   UNL     1       0.523  -6.772  10.798  1.00  0.00    -0.506 OA
ATOM     27  H   UNL     1       1.133  -6.791  10.038  1.00  0.00     0.293 HD
ENDBRANCH  22  26
ENDBRANCH  18  19
ENDBRANCH  17  18
BRANCH  17  28
ATOM     28  O   UNL     1      -1.408   0.051   9.652  1.00  0.00    -0.383 OA
ATOM     29  H   UNL     1      -0.597   0.021   9.096  1.00  0.00     0.211 HD
ENDBRANCH  17  28
ENDBRANCH  14  17
ENDBRANCH  12  13
BRANCH  12  30
ATOM     30  C   UNL     1      -6.942  -0.824  10.034  1.00  0.00     0.018 C 
ATOM     31  C   UNL     1      -7.151  -2.109  10.851  1.00  0.00     0.010 C 
BRANCH  30  32
ATOM     32  C   UNL     1      -8.309  -0.237   9.607  1.00  0.00     0.002 C 
ATOM     33  C   UNL     1      -8.410   1.282   9.656  1.00  0.00     0.004 C 
ENDBRANCH  30  32
ENDBRANCH  12  30
ENDBRANCH  10  12
ENDBRANCH   1  10
BRANCH   5  34
ATOM     34  C   UNL     1      -5.321  -3.920   5.336  1.00  0.00     0.242 C 
ATOM     35  O   UNL     1      -6.434  -4.442   5.403  1.00  0.00    -0.273 OA
ATOM     36  N   UNL     1      -4.582  -3.901   4.174  1.00  0.00    -0.354 N 
ATOM     37  H   UNL     1      -3.620  -3.563   4.210  1.00  0.00     0.163 HD
BRANCH  36  38
ATOM     38  C   UNL     1      -5.152  -4.247   2.889  1.00  0.00     0.116 C 
BRANCH  38  39
ATOM     39  C   UNL     1      -4.815  -3.167   1.864  1.00  0.00     0.023 C 
BRANCH  39  40
ATOM     40  C   UNL     1      -6.037  -2.352   1.452  1.00  0.00     0.026 C 
BRANCH  40  41
ATOM     41  C   UNL     1      -5.890  -0.895   1.889  1.00  0.00     0.146 C 
BRANCH  41  42
ATOM     42  N   UNL     1      -5.307  -0.837   3.224  1.00  0.00    -0.254 NA
ATOM     43  C   UNL     1      -5.850  -0.102   4.120  1.00  0.00     0.185 C 
ATOM     44  N   UNL     1      -6.939   0.685   4.051  1.00  0.00    -0.370 N 
ATOM     45  N   UNL     1      -5.295  -0.059   5.342  1.00  0.00    -0.370 N 
ATOM     46  H   UNL     1      -7.108   1.389   4.749  1.00  0.00     0.159 HD
ATOM     47  H   UNL     1      -7.490   0.760   3.201  1.00  0.00     0.159 HD
ATOM     48  H   UNL     1      -4.473  -0.630   5.482  1.00  0.00     0.159 HD
ATOM     49  H   UNL     1      -5.780   0.294   6.148  1.00  0.00     0.159 HD
ENDBRANCH  41  42
ENDBRANCH  40  41
ENDBRANCH  39  40
ENDBRANCH  38  39
ENDBRANCH  36  38
ENDBRANCH   5  34
BRANCH   8  50
ATOM     50  O   UNL     1      -5.889  -7.624   8.252  1.00  0.00    -0.245 OA
BRANCH  50  51
ATOM     51  S   UNL     1      -7.406  -7.947   7.764  1.00  0.00     0.397 S 
ATOM     52  O   UNL     1      -8.261  -7.939   8.929  1.00  0.00    -0.169 OA
ATOM     53  O   UNL     1      -7.393  -9.061   6.839  1.00  0.00    -0.169 OA
BRANCH  51  54
ATOM     54  O   UNL     1      -7.782  -6.620   6.936  1.00  0.00    -0.264 OA
ATOM     55  H   UNL     1      -8.436  -6.871   6.252  1.00  0.00     0.236 HD
ENDBRANCH  51  54
ENDBRANCH  50  51
ENDBRANCH   8  50
TORSDOF 19
ENDMDL
MODEL 49
REMARK VINA RESULT:    -7.484      4.082      8.148
REMARK INTER + INTRA:         -17.817
REMARK INTER:                 -13.788
REMARK INTRA:                  -4.029
REMARK UNBOUND:                -2.676
REMARK SMILES CC[C@@H](C)[C@@H](NC(=O)[C@@H](O)Cc1ccc(O)c(Cl)c1)C(=O)N1[C@H](C(=O)NCCCCN=C(N)N)C[C@H]2CC[C@H](OS(=O)(=O)O)C[C@@H]21
REMARK SMILES IDX 22 1 36 2 46 3 35 4 23 5 45 6 37 7 39 8 38 9 20 10 21 11
REMARK SMILES IDX 5 12 6 13 7 14 8 15 9 17 11 18 12 19 17 20 19 21 15 22 14 23
REMARK SMILES IDX 13 24 18 25 16 26 10 28 3 30 4 31 2 32 1 33 24 34 25 35
REMARK SMILES IDX 26 36 27 38 28 39 29 40 30 41 31 42 32 43 33 44 34 45 40 50
REMARK SMILES IDX 41 51 42 52 43 53 44 54
REMARK H PARENT 6 16 16 27 10 29 26 37 33 46 33 47 34 48 34 49 44 55
ROOT
ATOM      1  N   UNL     1      -5.379  -2.648  10.410  1.00  0.00    -0.326 N 
ATOM      2  C   UNL     1      -6.287  -0.496  10.118  1.00  0.00     0.014 C 
ATOM      3  C   UNL     1      -6.466  -1.960   9.707  1.00  0.00     0.091 C 
ATOM      4  C   UNL     1      -4.777  -0.361  10.228  1.00  0.00     0.041 C 
ATOM      5  C   UNL     1      -4.442  -1.655  10.992  1.00  0.00     0.175 C 
ATOM      6  C   UNL     1      -7.904  -2.375  10.013  1.00  0.00     0.059 C 
ATOM      7  C   UNL     1      -7.050   0.426   9.186  1.00  0.00     0.008 C 
ATOM      8  C   UNL     1      -8.926  -1.225   9.878  1.00  0.00     0.143 C 
ATOM      9  C   UNL     1      -8.452  -0.145   8.885  1.00  0.00     0.034 C 
ENDROOT
BRANCH   1  10
ATOM     10  C   UNL     1      -5.027  -3.987  10.406  1.00  0.00     0.246 C 
ATOM     11  O   UNL     1      -5.520  -4.741  11.251  1.00  0.00    -0.272 OA
BRANCH  10  12
ATOM     12  C   UNL     1      -4.054  -4.520   9.315  1.00  0.00     0.174 C 
BRANCH  12  13
ATOM     13  N   UNL     1      -4.766  -4.683   8.048  1.00  0.00    -0.342 N 
ATOM     14  C   UNL     1      -4.271  -4.330   6.812  1.00  0.00     0.249 C 
ATOM     15  O   UNL     1      -3.153  -3.861   6.633  1.00  0.00    -0.272 OA
ATOM     16  H   UNL     1      -5.757  -4.911   8.052  1.00  0.00     0.164 HD
BRANCH  14  17
ATOM     17  C   UNL     1      -5.269  -4.610   5.669  1.00  0.00     0.207 C 
BRANCH  17  18
ATOM     18  C   UNL     1      -6.547  -3.788   5.861  1.00  0.00     0.077 C 
BRANCH  18  19
ATOM     19  C   UNL     1      -6.438  -2.422   5.222  1.00  0.00    -0.043 A 
ATOM     20  C   UNL     1      -6.294  -1.034   3.237  1.00  0.00     0.083 A 
ATOM     21  C   UNL     1      -6.445  -2.291   3.824  1.00  0.00     0.028 A 
ATOM     22  C   UNL     1      -6.135   0.097   4.039  1.00  0.00     0.134 A 
ATOM     23  C   UNL     1      -6.127  -0.018   5.424  1.00  0.00     0.048 A 
ATOM     24  C   UNL     1      -6.276  -1.275   6.015  1.00  0.00     0.008 A 
ATOM     25  Cl  UNL     1      -6.305  -0.894   1.518  1.00  0.00    -0.080 Cl
BRANCH  22  26
ATOM     26  O   UNL     1      -5.974   1.348   3.509  1.00  0.00    -0.506 OA
ATOM     27  H   UNL     1      -6.458   1.963   4.090  1.00  0.00     0.293 HD
ENDBRANCH  22  26
ENDBRANCH  18  19
ENDBRANCH  17  18
BRANCH  17  28
ATOM     28  O   UNL     1      -5.605  -6.005   5.605  1.00  0.00    -0.383 OA
ATOM     29  H   UNL     1      -6.024  -6.224   6.468  1.00  0.00     0.211 HD
ENDBRANCH  17  28
ENDBRANCH  14  17
ENDBRANCH  12  13
BRANCH  12  30
ATOM     30  C   UNL     1      -3.316  -5.815   9.750  1.00  0.00     0.018 C 
ATOM     31  C   UNL     1      -1.810  -5.708   9.464  1.00  0.00     0.010 C 
BRANCH  30  32
ATOM     32  C   UNL     1      -3.889  -7.102   9.108  1.00  0.00     0.002 C 
ATOM     33  C   UNL     1      -4.452  -8.123  10.089  1.00  0.00     0.004 C 
ENDBRANCH  30  32
ENDBRANCH  12  30
ENDBRANCH  10  12
ENDBRANCH   1  10
BRANCH   5  34
ATOM     34  C   UNL     1      -4.684  -1.498  12.517  1.00  0.00     0.242 C 
ATOM     35  O   UNL     1      -3.936  -0.837  13.237  1.00  0.00    -0.273 OA
ATOM     36  N   UNL     1      -5.763  -2.195  13.014  1.00  0.00    -0.354 N 
ATOM     37  H   UNL     1      -6.273  -2.821  12.389  1.00  0.00     0.163 HD
BRANCH  36  38
ATOM     38  C   UNL     1      -6.260  -1.994  14.359  1.00  0.00     0.116 C 
BRANCH  38  39
ATOM     39  C   UNL     1      -7.767  -1.752  14.324  1.00  0.00     0.023 C 
BRANCH  39  40
ATOM     40  C   UNL     1      -8.566  -3.051  14.320  1.00  0.00     0.026 C 
BRANCH  40  41
ATOM     41  C   UNL     1      -9.531  -3.097  15.504  1.00  0.00     0.146 C 
BRANCH  41  42
ATOM     42  N   UNL     1     -10.375  -1.909  15.498  1.00  0.00    -0.254 NA
ATOM     43  C   UNL     1     -11.577  -1.989  15.065  1.00  0.00     0.185 C 
ATOM     44  N   UNL     1     -12.254  -3.045  14.579  1.00  0.00    -0.370 N 
ATOM     45  N   UNL     1     -12.337  -0.881  15.063  1.00  0.00    -0.370 N 
ATOM     46  H   UNL     1     -13.100  -2.913  14.051  1.00  0.00     0.159 HD
ATOM     47  H   UNL     1     -11.832  -3.967  14.521  1.00  0.00     0.159 HD
ATOM     48  H   UNL     1     -11.905  -0.041  15.423  1.00  0.00     0.159 HD
ATOM     49  H   UNL     1     -13.337  -0.908  14.968  1.00  0.00     0.159 HD
ENDBRANCH  41  42
ENDBRANCH  40  41
ENDBRANCH  39  40
ENDBRANCH  38  39
ENDBRANCH  36  38
ENDBRANCH   5  34
BRANCH   8  50
ATOM     50  O   UNL     1      -9.143  -0.610  11.148  1.00  0.00    -0.245 OA
BRANCH  50  51
ATOM     51  S   UNL     1     -10.653  -0.511  11.744  1.00  0.00     0.397 S 
ATOM     52  O   UNL     1     -10.653   0.478  12.798  1.00  0.00    -0.169 OA
ATOM     53  O   UNL     1     -11.182  -1.843  11.952  1.00  0.00    -0.169 OA
BRANCH  51  54
ATOM     54  O   UNL     1     -11.454   0.154  10.519  1.00  0.00    -0.264 OA
ATOM     55  H   UNL     1     -11.287   1.118  10.541  1.00  0.00     0.236 HD
ENDBRANCH  51  54
ENDBRANCH  50  51
ENDBRANCH   8  50
TORSDOF 19
ENDMDL
MODEL 50
REMARK VINA RESULT:    -7.475      3.158      6.961
REMARK INTER + INTRA:         -17.799
REMARK INTER:                 -13.530
REMARK INTRA:                  -4.269
REMARK UNBOUND:                -2.676
REMARK SMILES CC[C@@H](C)[C@@H](NC(=O)[C@@H](O)Cc1ccc(O)c(Cl)c1)C(=O)N1[C@H](C(=O)NCCCCN=C(N)N)C[C@H]2CC[C@H](OS(=O)(=O)O)C[C@@H]21
REMARK SMILES IDX 22 1 36 2 46 3 35 4 23 5 45 6 37 7 39 8 38 9 20 10 21 11
REMARK SMILES IDX 5 12 6 13 7 14 8 15 9 17 11 18 12 19 17 20 19 21 15 22 14 23
REMARK SMILES IDX 13 24 18 25 16 26 10 28 3 30 4 31 2 32 1 33 24 34 25 35
REMARK SMILES IDX 26 36 27 38 28 39 29 40 30 41 31 42 32 43 33 44 34 45 40 50
REMARK SMILES IDX 41 51 42 52 43 53 44 54
REMARK H PARENT 6 16 16 27 10 29 26 37 33 46 33 47 34 48 34 49 44 55
ROOT
ATOM      1  N   UNL     1      -6.986  -1.247   7.957  1.00  0.00    -0.326 N 
ATOM      2  C   UNL     1      -4.716  -1.092   7.356  1.00  0.00     0.014 C 
ATOM      3  C   UNL     1      -5.678  -0.925   8.535  1.00  0.00     0.091 C 
ATOM      4  C   UNL     1      -5.551  -0.627   6.173  1.00  0.00     0.041 C 
ATOM      5  C   UNL     1      -6.880  -1.342   6.480  1.00  0.00     0.175 C 
ATOM      6  C   UNL     1      -5.171  -1.777   9.697  1.00  0.00     0.059 C 
ATOM      7  C   UNL     1      -3.388  -0.416   7.640  1.00  0.00     0.008 C 
ATOM      8  C   UNL     1      -3.633  -1.909   9.745  1.00  0.00     0.143 C 
ATOM      9  C   UNL     1      -2.927  -0.708   9.083  1.00  0.00     0.034 C 
ENDROOT
BRANCH   1  10
ATOM     10  C   UNL     1      -8.240  -1.249   8.545  1.00  0.00     0.246 C 
ATOM     11  O   UNL     1      -9.234  -1.458   7.841  1.00  0.00    -0.272 OA
BRANCH  10  12
ATOM     12  C   UNL     1      -8.368  -1.031  10.080  1.00  0.00     0.174 C 
BRANCH  12  13
ATOM     13  N   UNL     1      -8.513  -2.320  10.756  1.00  0.00    -0.342 N 
ATOM     14  C   UNL     1      -9.644  -3.105  10.727  1.00  0.00     0.249 C 
ATOM     15  O   UNL     1     -10.656  -2.819  10.100  1.00  0.00    -0.272 OA
ATOM     16  H   UNL     1      -7.818  -2.612  11.439  1.00  0.00     0.164 HD
BRANCH  14  17
ATOM     17  C   UNL     1      -9.492  -4.399  11.554  1.00  0.00     0.207 C 
BRANCH  17  18
ATOM     18  C   UNL     1      -9.789  -5.627  10.687  1.00  0.00     0.077 C 
BRANCH  18  19
ATOM     19  C   UNL     1      -8.554  -6.469  10.463  1.00  0.00    -0.043 A 
ATOM     20  C   UNL     1      -6.181  -6.851  10.794  1.00  0.00     0.083 A 
ATOM     21  C   UNL     1      -7.330  -6.099  11.043  1.00  0.00     0.028 A 
ATOM     22  C   UNL     1      -6.246  -7.973   9.967  1.00  0.00     0.134 A 
ATOM     23  C   UNL     1      -7.451  -8.350   9.386  1.00  0.00     0.048 A 
ATOM     24  C   UNL     1      -8.603  -7.599   9.632  1.00  0.00     0.008 A 
ATOM     25  Cl  UNL     1      -4.687  -6.381  11.515  1.00  0.00    -0.080 Cl
BRANCH  22  26
ATOM     26  O   UNL     1      -5.144  -8.735   9.685  1.00  0.00    -0.506 OA
ATOM     27  H   UNL     1      -5.251  -9.054   8.770  1.00  0.00     0.293 HD
ENDBRANCH  22  26
ENDBRANCH  18  19
ENDBRANCH  17  18
BRANCH  17  28
ATOM     28  O   UNL     1     -10.372  -4.394  12.690  1.00  0.00    -0.383 OA
ATOM     29  H   UNL     1      -9.817  -4.637  13.465  1.00  0.00     0.211 HD
ENDBRANCH  17  28
ENDBRANCH  14  17
ENDBRANCH  12  13
BRANCH  12  30
ATOM     30  C   UNL     1      -9.499  -0.036  10.453  1.00  0.00     0.018 C 
ATOM     31  C   UNL     1      -9.282   1.321   9.765  1.00  0.00     0.010 C 
BRANCH  30  32
ATOM     32  C   UNL     1      -9.674   0.163  11.978  1.00  0.00     0.002 C 
ATOM     33  C   UNL     1     -11.013  -0.293  12.545  1.00  0.00     0.004 C 
ENDBRANCH  30  32
ENDBRANCH  12  30
ENDBRANCH  10  12
ENDBRANCH   1  10
BRANCH   5  34
ATOM     34  C   UNL     1      -6.850  -2.825   6.025  1.00  0.00     0.242 C 
ATOM     35  O   UNL     1      -6.551  -3.155   4.877  1.00  0.00    -0.273 OA
ATOM     36  N   UNL     1      -7.233  -3.739   6.980  1.00  0.00    -0.354 N 
ATOM     37  H   UNL     1      -7.585  -3.396   7.875  1.00  0.00     0.163 HD
BRANCH  36  38
ATOM     38  C   UNL     1      -7.060  -5.165   6.800  1.00  0.00     0.116 C 
BRANCH  38  39
ATOM     39  C   UNL     1      -5.681  -5.588   7.302  1.00  0.00     0.023 C 
BRANCH  39  40
ATOM     40  C   UNL     1      -5.105  -6.757   6.511  1.00  0.00     0.026 C 
BRANCH  40  41
ATOM     41  C   UNL     1      -4.254  -6.255   5.344  1.00  0.00     0.146 C 
BRANCH  41  42
ATOM     42  N   UNL     1      -2.841  -6.401   5.667  1.00  0.00    -0.254 NA
ATOM     43  C   UNL     1      -2.171  -5.380   6.052  1.00  0.00     0.185 C 
ATOM     44  N   UNL     1      -2.561  -4.105   6.228  1.00  0.00    -0.370 N 
ATOM     45  N   UNL     1      -0.868  -5.535   6.340  1.00  0.00    -0.370 N 
ATOM     46  H   UNL     1      -1.882  -3.366   6.296  1.00  0.00     0.159 HD
ATOM     47  H   UNL     1      -3.521  -3.814   6.068  1.00  0.00     0.159 HD
ATOM     48  H   UNL     1      -0.495  -6.470   6.242  1.00  0.00     0.159 HD
ATOM     49  H   UNL     1      -0.343  -4.858   6.865  1.00  0.00     0.159 HD
ENDBRANCH  41  42
ENDBRANCH  40  41
ENDBRANCH  39  40
ENDBRANCH  38  39
ENDBRANCH  36  38
ENDBRANCH   5  34
BRANCH   8  50
ATOM     50  O   UNL     1      -3.222  -3.102   9.076  1.00  0.00    -0.245 OA
BRANCH  50  51
ATOM     51  S   UNL     1      -1.965  -3.955   9.655  1.00  0.00     0.397 S 
ATOM     52  O   UNL     1      -2.176  -5.345   9.319  1.00  0.00    -0.169 OA
ATOM     53  O   UNL     1      -1.677  -3.537  11.011  1.00  0.00    -0.169 OA
BRANCH  51  54
ATOM     54  O   UNL     1      -0.759  -3.456   8.715  1.00  0.00    -0.264 OA
ATOM     55  H   UNL     1      -0.671  -2.488   8.832  1.00  0.00     0.236 HD
ENDBRANCH  51  54
ENDBRANCH  50  51
ENDBRANCH   8  50
TORSDOF 19
ENDMDL
