MODEL 1
REMARK VINA RESULT:    -4.339      0.000      0.000
REMARK INTER + INTRA:          -9.027
REMARK INTER:                  -7.384
REMARK INTRA:                  -1.644
REMARK UNBOUND:                -1.644
REMARK SMILES CC[C@H](C)[C@@H]1NC(=O)[C@H]2CSC(=N2)[C@@H]([C@@H](C)CC)NC(=O)c2csc(n2)CNC(=O)[C@H]2N=C1O[C@@H]2C
REMARK SMILES IDX 27 1 25 2 22 3 26 4 23 5 24 6 20 7 19 8 21 9 14 11 12 12
REMARK SMILES IDX 11 13 10 14 13 15 9 16 15 18 16 19 17 20 18 21 28 22 29 23
REMARK SMILES IDX 30 24 31 26 32 27 35 28 33 29 34 30 36 31 5 32 6 33 7 34
REMARK SMILES IDX 8 35 3 38 4 39 2 40 1 41
REMARK H PARENT 19 10 28 25 6 36
REMARK Flexibility Score:   91.900
ROOT
ATOM      1  C   UNL     1       4.864   4.045   2.676  1.00  0.00     0.183 C 
ENDROOT
BRANCH   1   2
ATOM      2  C   UNL     1       5.804   4.970   1.957  1.00  0.00     0.113 A 
ATOM      3  C   UNL     1       7.621   6.196   1.554  1.00  0.00     0.139 A 
ATOM      4  N   UNL     1       7.039   5.212   2.357  1.00  0.00    -0.234 NA
ATOM      5  C   UNL     1       6.821   6.636   0.519  1.00  0.00     0.101 A 
ATOM      6  S   UNL     1       5.306   5.830   0.558  1.00  0.00    -0.125 S 
BRANCH   3   7
ATOM      7  C   UNL     1       8.959   6.702   1.869  1.00  0.00     0.271 C 
ATOM      8  N   UNL     1       9.686   5.791   2.595  1.00  0.00    -0.341 N 
ATOM      9  O   UNL     1       9.357   7.815   1.551  1.00  0.00    -0.267 OA
ATOM     10  H   UNL     1       9.229   4.896   2.764  1.00  0.00     0.164 HD
BRANCH   8  11
ATOM     11  C   UNL     1      10.972   6.077   3.211  1.00  0.00     0.140 C 
BRANCH  11  12
ATOM     12  C   UNL     1      10.880   5.691   4.690  1.00  0.00     0.091 C 
ATOM     13  S   UNL     1      11.874   4.407   5.336  1.00  0.00    -0.106 SA
ATOM     14  C   UNL     1      11.423   4.886   7.017  1.00  0.00     0.113 C 
ATOM     15  N   UNL     1      10.022   6.241   5.491  1.00  0.00    -0.267 NA
ATOM     16  C   UNL     1      10.088   5.593   6.839  1.00  0.00     0.205 CG0
ATOM     17  G   UNL     1       8.922   4.611   7.033  1.00  0.00     0.000 G0
ENDBRANCH  11  12
BRANCH  11  18
ATOM     18  C   UNL     1      12.185   5.515   2.427  1.00  0.00     0.015 C 
ATOM     19  C   UNL     1      11.709   4.684   1.227  1.00  0.00     0.010 C 
BRANCH  18  20
ATOM     20  C   UNL     1      13.224   6.573   2.002  1.00  0.00     0.002 C 
ATOM     21  C   UNL     1      12.755   8.002   2.252  1.00  0.00     0.004 C 
ENDBRANCH  18  20
ENDBRANCH  11  18
ENDBRANCH   8  11
ENDBRANCH   3   7
ENDBRANCH   1   2
BRANCH   1  22
ATOM     22  N   UNL     1       4.720   4.539   4.028  1.00  0.00    -0.348 N 
ATOM     23  C   UNL     1       3.796   4.085   4.929  1.00  0.00     0.249 C 
ATOM     24  O   UNL     1       3.044   3.143   4.704  1.00  0.00    -0.272 OA
ATOM     25  H   UNL     1       5.283   5.339   4.313  1.00  0.00     0.163 HD
BRANCH  23  26
ATOM     26  C   UNL     1       3.847   4.840   6.266  1.00  0.00     0.238 C 
ATOM     27  N   UNL     1       4.565   4.009   7.272  1.00  0.00    -0.236 NA
ATOM     28  C   UNL     1       4.644   6.129   6.160  1.00  0.00     0.206 C 
ATOM     29  C   UNL     1       5.672   4.662   7.462  1.00  0.00     0.208 C 
ATOM     30  O   UNL     1       5.885   5.822   6.794  1.00  0.00    -0.474 OA
ATOM     31  C   UNL     1       3.990   7.284   6.907  1.00  0.00     0.056 C 
BRANCH  29  32
ATOM     32  C   UNL     1       6.836   4.230   8.350  1.00  0.00     0.171 C 
BRANCH  32  33
ATOM     33  N   UNL     1       8.036   4.991   8.042  1.00  0.00    -0.342 N 
ATOM     34  C   UNL     1       8.922   4.614   7.061  1.00  0.00     0.246 CG0
ATOM     35  O   UNL     1       8.784   3.594   6.390  1.00  0.00    -0.273 OA
ATOM     36  H   UNL     1       8.282   5.820   8.573  1.00  0.00     0.164 HD
ATOM     37  G   UNL     1      10.094   5.586   6.853  1.00  0.00     0.000 G0
ENDBRANCH  32  33
BRANCH  32  38
ATOM     38  C   UNL     1       6.440   4.324   9.847  1.00  0.00     0.017 C 
ATOM     39  C   UNL     1       6.516   2.938  10.501  1.00  0.00     0.010 C 
BRANCH  38  40
ATOM     40  C   UNL     1       7.274   5.367  10.626  1.00  0.00     0.002 C 
ATOM     41  C   UNL     1       7.765   4.867  11.979  1.00  0.00     0.004 C 
ENDBRANCH  38  40
ENDBRANCH  32  38
ENDBRANCH  29  32
ENDBRANCH  23  26
ENDBRANCH   1  22
TORSDOF 4
ENDMDL
MODEL 2
REMARK VINA RESULT:    -3.852      1.701      2.186
REMARK INTER + INTRA:          -8.198
REMARK INTER:                  -7.354
REMARK INTRA:                  -0.844
REMARK UNBOUND:                -1.644
REMARK SMILES CC[C@H](C)[C@@H]1NC(=O)[C@H]2CSC(=N2)[C@@H]([C@@H](C)CC)NC(=O)c2csc(n2)CNC(=O)[C@H]2N=C1O[C@@H]2C
REMARK SMILES IDX 27 1 25 2 22 3 26 4 23 5 24 6 20 7 19 8 21 9 14 11 12 12
REMARK SMILES IDX 11 13 10 14 13 15 9 16 15 18 16 19 17 20 18 21 28 22 29 23
REMARK SMILES IDX 30 24 31 26 32 27 35 28 33 29 34 30 36 31 5 32 6 33 7 34
REMARK SMILES IDX 8 35 3 38 4 39 2 40 1 41
REMARK H PARENT 19 10 28 25 6 36
REMARK Flexibility Score:   91.900
ROOT
ATOM      1  C   UNL     1       5.466   3.883   2.728  1.00  0.00     0.183 C 
ENDROOT
BRANCH   1   2
ATOM      2  C   UNL     1       6.204   4.913   1.923  1.00  0.00     0.113 A 
ATOM      3  C   UNL     1       7.838   6.294   1.299  1.00  0.00     0.139 A 
ATOM      4  N   UNL     1       7.470   5.228   2.123  1.00  0.00    -0.234 NA
ATOM      5  C   UNL     1       6.844   6.726   0.444  1.00  0.00     0.101 A 
ATOM      6  S   UNL     1       5.415   5.805   0.686  1.00  0.00    -0.125 S 
BRANCH   3   7
ATOM      7  C   UNL     1       9.174   6.884   1.417  1.00  0.00     0.271 C 
ATOM      8  N   UNL     1      10.045   6.040   2.062  1.00  0.00    -0.341 N 
ATOM      9  O   UNL     1       9.460   8.005   1.017  1.00  0.00    -0.267 OA
ATOM     10  H   UNL     1       9.668   5.128   2.316  1.00  0.00     0.164 HD
BRANCH   8  11
ATOM     11  C   UNL     1      11.381   6.418   2.490  1.00  0.00     0.140 C 
BRANCH  11  12
ATOM     12  C   UNL     1      11.247   7.257   3.764  1.00  0.00     0.091 C 
ATOM     13  S   UNL     1      12.654   7.635   4.730  1.00  0.00    -0.106 SA
ATOM     14  C   UNL     1      11.696   8.837   5.678  1.00  0.00     0.113 C 
ATOM     15  N   UNL     1      10.095   7.649   4.210  1.00  0.00    -0.267 NA
ATOM     16  C   UNL     1      10.263   8.353   5.520  1.00  0.00     0.205 CG0
ATOM     17  G   UNL     1       9.868   7.436   6.689  1.00  0.00     0.000 G0
ENDBRANCH  11  12
BRANCH  11  18
ATOM     18  C   UNL     1      12.383   5.236   2.546  1.00  0.00     0.015 C 
ATOM     19  C   UNL     1      11.919   4.189   3.568  1.00  0.00     0.010 C 
BRANCH  18  20
ATOM     20  C   UNL     1      12.695   4.590   1.180  1.00  0.00     0.002 C 
ATOM     21  C   UNL     1      11.781   3.414   0.855  1.00  0.00     0.004 C 
ENDBRANCH  18  20
ENDBRANCH  11  18
ENDBRANCH   8  11
ENDBRANCH   3   7
ENDBRANCH   1   2
BRANCH   1  22
ATOM     22  N   UNL     1       5.327   4.401   4.071  1.00  0.00    -0.348 N 
ATOM     23  C   UNL     1       4.851   3.687   5.137  1.00  0.00     0.249 C 
ATOM     24  O   UNL     1       4.570   2.495   5.076  1.00  0.00    -0.272 OA
ATOM     25  H   UNL     1       5.513   5.391   4.230  1.00  0.00     0.163 HD
BRANCH  23  26
ATOM     26  C   UNL     1       4.768   4.522   6.423  1.00  0.00     0.238 C 
ATOM     27  N   UNL     1       6.063   4.433   7.152  1.00  0.00    -0.236 NA
ATOM     28  C   UNL     1       4.567   5.999   6.130  1.00  0.00     0.206 C 
ATOM     29  C   UNL     1       6.556   5.630   7.032  1.00  0.00     0.208 C 
ATOM     30  O   UNL     1       5.850   6.577   6.367  1.00  0.00    -0.474 OA
ATOM     31  C   UNL     1       3.560   6.650   7.070  1.00  0.00     0.056 C 
BRANCH  29  32
ATOM     32  C   UNL     1       7.919   6.101   7.531  1.00  0.00     0.171 C 
BRANCH  32  33
ATOM     33  N   UNL     1       8.525   7.027   6.587  1.00  0.00    -0.342 N 
ATOM     34  C   UNL     1       9.835   7.432   6.684  1.00  0.00     0.246 CG0
ATOM     35  O   UNL     1      10.585   7.066   7.586  1.00  0.00    -0.273 OA
ATOM     36  H   UNL     1       7.983   7.439   5.835  1.00  0.00     0.164 HD
ATOM     37  G   UNL     1      10.298   8.366   5.554  1.00  0.00     0.000 G0
ENDBRANCH  32  33
BRANCH  32  38
ATOM     38  C   UNL     1       7.798   6.700   8.957  1.00  0.00     0.017 C 
ATOM     39  C   UNL     1       6.377   7.228   9.187  1.00  0.00     0.010 C 
BRANCH  38  40
ATOM     40  C   UNL     1       8.224   5.709  10.065  1.00  0.00     0.002 C 
ATOM     41  C   UNL     1       7.076   5.273  10.966  1.00  0.00     0.004 C 
ENDBRANCH  38  40
ENDBRANCH  32  38
ENDBRANCH  29  32
ENDBRANCH  23  26
ENDBRANCH   1  22
TORSDOF 4
ENDMDL
MODEL 3
REMARK VINA RESULT:    -3.785      5.288      8.719
REMARK INTER + INTRA:          -8.083
REMARK INTER:                  -6.174
REMARK INTRA:                  -1.909
REMARK UNBOUND:                -1.644
REMARK SMILES CC[C@H](C)[C@@H]1NC(=O)[C@H]2CSC(=N2)[C@@H]([C@@H](C)CC)NC(=O)c2csc(n2)CNC(=O)[C@H]2N=C1O[C@@H]2C
REMARK SMILES IDX 27 1 25 2 22 3 26 4 23 5 24 6 20 7 19 8 21 9 14 11 12 12
REMARK SMILES IDX 11 13 10 14 13 15 9 16 15 18 16 19 17 20 18 21 28 22 29 23
REMARK SMILES IDX 30 24 31 26 32 27 35 28 33 29 34 30 36 31 5 32 6 33 7 34
REMARK SMILES IDX 8 35 3 38 4 39 2 40 1 41
REMARK H PARENT 19 10 28 25 6 36
REMARK Flexibility Score:   91.900
ROOT
ATOM      1  C   UNL     1       9.570   3.361   8.413  1.00  0.00     0.183 C 
ENDROOT
BRANCH   1   2
ATOM      2  C   UNL     1       9.379   4.674   9.116  1.00  0.00     0.113 A 
ATOM      3  C   UNL     1       8.494   6.201  10.476  1.00  0.00     0.139 A 
ATOM      4  N   UNL     1       8.527   4.854  10.108  1.00  0.00    -0.234 NA
ATOM      5  C   UNL     1       9.376   7.005   9.782  1.00  0.00     0.101 A 
ATOM      6  S   UNL     1      10.246   6.074   8.632  1.00  0.00    -0.125 S 
BRANCH   3   7
ATOM      7  C   UNL     1       7.545   6.660  11.493  1.00  0.00     0.271 C 
ATOM      8  N   UNL     1       7.290   5.683  12.424  1.00  0.00    -0.341 N 
ATOM      9  O   UNL     1       7.023   7.768  11.487  1.00  0.00    -0.267 OA
ATOM     10  H   UNL     1       7.819   4.819  12.312  1.00  0.00     0.164 HD
BRANCH   8  11
ATOM     11  C   UNL     1       6.257   5.775  13.443  1.00  0.00     0.140 C 
BRANCH  11  12
ATOM     12  C   UNL     1       5.314   4.581  13.264  1.00  0.00     0.091 C 
ATOM     13  S   UNL     1       5.938   2.948  13.275  1.00  0.00    -0.106 SA
ATOM     14  C   UNL     1       4.259   2.294  13.386  1.00  0.00     0.113 C 
ATOM     15  N   UNL     1       4.049   4.734  13.028  1.00  0.00    -0.267 NA
ATOM     16  C   UNL     1       3.405   3.403  12.793  1.00  0.00     0.205 CG0
ATOM     17  G   UNL     1       3.170   3.165  11.292  1.00  0.00     0.000 G0
ENDBRANCH  11  12
BRANCH  11  18
ATOM     18  C   UNL     1       6.802   6.014  14.874  1.00  0.00     0.015 C 
ATOM     19  C   UNL     1       7.015   7.514  15.121  1.00  0.00     0.010 C 
BRANCH  18  20
ATOM     20  C   UNL     1       5.965   5.371  15.999  1.00  0.00     0.002 C 
ATOM     21  C   UNL     1       4.808   6.252  16.457  1.00  0.00     0.004 C 
ENDBRANCH  18  20
ENDBRANCH  11  18
ENDBRANCH   8  11
ENDBRANCH   3   7
ENDBRANCH   1   2
BRANCH   1  22
ATOM     22  N   UNL     1       8.263   2.768   8.240  1.00  0.00    -0.348 N 
ATOM     23  C   UNL     1       7.905   1.524   8.684  1.00  0.00     0.249 C 
ATOM     24  O   UNL     1       8.644   0.813   9.356  1.00  0.00    -0.272 OA
ATOM     25  H   UNL     1       7.576   3.266   7.674  1.00  0.00     0.163 HD
BRANCH  23  26
ATOM     26  C   UNL     1       6.466   1.146   8.303  1.00  0.00     0.238 C 
ATOM     27  N   UNL     1       5.520   1.798   9.251  1.00  0.00    -0.236 NA
ATOM     28  C   UNL     1       6.087   1.667   6.928  1.00  0.00     0.206 C 
ATOM     29  C   UNL     1       4.924   2.686   8.513  1.00  0.00     0.208 C 
ATOM     30  O   UNL     1       5.248   2.789   7.201  1.00  0.00    -0.474 OA
ATOM     31  C   UNL     1       5.292   0.653   6.117  1.00  0.00     0.056 C 
BRANCH  29  32
ATOM     32  C   UNL     1       3.892   3.707   8.984  1.00  0.00     0.171 C 
BRANCH  32  33
ATOM     33  N   UNL     1       3.940   3.867  10.429  1.00  0.00    -0.342 N 
ATOM     34  C   UNL     1       3.150   3.133  11.282  1.00  0.00     0.246 CG0
ATOM     35  O   UNL     1       2.328   2.309  10.892  1.00  0.00    -0.273 OA
ATOM     36  H   UNL     1       4.541   4.561  10.860  1.00  0.00     0.164 HD
ATOM     37  G   UNL     1       3.397   3.411  12.774  1.00  0.00     0.000 G0
ENDBRANCH  32  33
BRANCH  32  38
ATOM     38  C   UNL     1       4.075   5.051   8.231  1.00  0.00     0.017 C 
ATOM     39  C   UNL     1       2.788   5.880   8.312  1.00  0.00     0.010 C 
BRANCH  38  40
ATOM     40  C   UNL     1       5.302   5.854   8.722  1.00  0.00     0.002 C 
ATOM     41  C   UNL     1       5.721   6.967   7.770  1.00  0.00     0.004 C 
ENDBRANCH  38  40
ENDBRANCH  32  38
ENDBRANCH  29  32
ENDBRANCH  23  26
ENDBRANCH   1  22
TORSDOF 4
ENDMDL
MODEL 4
REMARK VINA RESULT:    -3.748     11.051     13.868
REMARK INTER + INTRA:          -8.020
REMARK INTER:                  -6.437
REMARK INTRA:                  -1.583
REMARK UNBOUND:                -1.644
REMARK SMILES CC[C@H](C)[C@@H]1NC(=O)[C@H]2CSC(=N2)[C@@H]([C@@H](C)CC)NC(=O)c2csc(n2)CNC(=O)[C@H]2N=C1O[C@@H]2C
REMARK SMILES IDX 27 1 25 2 22 3 26 4 23 5 24 6 20 7 19 8 21 9 14 11 12 12
REMARK SMILES IDX 11 13 10 14 13 15 9 16 15 18 16 19 17 20 18 21 28 22 29 23
REMARK SMILES IDX 30 24 31 26 32 27 35 28 33 29 34 30 36 31 5 32 6 33 7 34
REMARK SMILES IDX 8 35 3 38 4 39 2 40 1 41
REMARK H PARENT 19 10 28 25 6 36
REMARK Flexibility Score:   91.900
ROOT
ATOM      1  C   UNL     1       1.452  -3.274   8.245  1.00  0.00     0.183 C 
ENDROOT
BRANCH   1   2
ATOM      2  C   UNL     1       1.157  -4.745   8.189  1.00  0.00     0.113 A 
ATOM      3  C   UNL     1       1.431  -6.912   7.743  1.00  0.00     0.139 A 
ATOM      4  N   UNL     1       2.033  -5.653   7.798  1.00  0.00    -0.234 NA
ATOM      5  C   UNL     1       0.113  -6.934   8.156  1.00  0.00     0.101 A 
ATOM      6  S   UNL     1      -0.395  -5.355   8.597  1.00  0.00    -0.125 S 
BRANCH   3   7
ATOM      7  C   UNL     1       2.184  -8.062   7.239  1.00  0.00     0.271 C 
ATOM      8  N   UNL     1       3.098  -8.512   8.159  1.00  0.00    -0.341 N 
ATOM      9  O   UNL     1       2.033  -8.536   6.120  1.00  0.00    -0.267 OA
ATOM     10  H   UNL     1       3.091  -8.031   9.058  1.00  0.00     0.164 HD
BRANCH   8  11
ATOM     11  C   UNL     1       4.114  -9.514   7.880  1.00  0.00     0.140 C 
BRANCH  11  12
ATOM     12  C   UNL     1       5.484  -8.843   8.008  1.00  0.00     0.091 C 
ATOM     13  S   UNL     1       5.816  -7.749   9.331  1.00  0.00    -0.106 SA
ATOM     14  C   UNL     1       7.575  -7.769   8.923  1.00  0.00     0.113 C 
ATOM     15  N   UNL     1       6.411  -8.998   7.116  1.00  0.00    -0.267 NA
ATOM     16  C   UNL     1       7.593  -8.142   7.448  1.00  0.00     0.205 CG0
ATOM     17  G   UNL     1       7.622  -6.881   6.569  1.00  0.00     0.000 G0
ENDBRANCH  11  12
BRANCH  11  18
ATOM     18  C   UNL     1       3.921 -10.841   8.659  1.00  0.00     0.015 C 
ATOM     19  C   UNL     1       2.428 -11.168   8.796  1.00  0.00     0.010 C 
BRANCH  18  20
ATOM     20  C   UNL     1       4.711 -12.039   8.097  1.00  0.00     0.002 C 
ATOM     21  C   UNL     1       4.198 -12.507   6.739  1.00  0.00     0.004 C 
ENDBRANCH  18  20
ENDBRANCH  11  18
ENDBRANCH   8  11
ENDBRANCH   3   7
ENDBRANCH   1   2
BRANCH   1  22
ATOM     22  N   UNL     1       2.801  -3.085   7.759  1.00  0.00    -0.348 N 
ATOM     23  C   UNL     1       3.920  -3.075   8.547  1.00  0.00     0.249 C 
ATOM     24  O   UNL     1       3.897  -3.313   9.749  1.00  0.00    -0.272 OA
ATOM     25  H   UNL     1       2.933  -2.857   6.774  1.00  0.00     0.163 HD
BRANCH  23  26
ATOM     26  C   UNL     1       5.205  -2.795   7.753  1.00  0.00     0.238 C 
ATOM     27  N   UNL     1       5.869  -4.087   7.423  1.00  0.00    -0.236 NA
ATOM     28  C   UNL     1       4.915  -2.134   6.416  1.00  0.00     0.206 C 
ATOM     29  C   UNL     1       5.719  -4.179   6.135  1.00  0.00     0.208 C 
ATOM     30  O   UNL     1       5.084  -3.185   5.466  1.00  0.00    -0.474 OA
ATOM     31  C   UNL     1       5.900  -1.020   6.090  1.00  0.00     0.056 C 
BRANCH  29  32
ATOM     32  C   UNL     1       6.146  -5.350   5.256  1.00  0.00     0.171 C 
BRANCH  32  33
ATOM     33  N   UNL     1       6.380  -6.542   6.056  1.00  0.00    -0.342 N 
ATOM     34  C   UNL     1       7.619  -6.871   6.553  1.00  0.00     0.246 CG0
ATOM     35  O   UNL     1       8.625  -6.200   6.339  1.00  0.00    -0.273 OA
ATOM     36  H   UNL     1       5.632  -7.201   6.247  1.00  0.00     0.164 HD
ATOM     37  G   UNL     1       7.641  -8.138   7.423  1.00  0.00     0.000 G0
ENDBRANCH  32  33
BRANCH  32  38
ATOM     38  C   UNL     1       5.111  -5.587   4.125  1.00  0.00     0.017 C 
ATOM     39  C   UNL     1       5.672  -6.574   3.094  1.00  0.00     0.010 C 
BRANCH  38  40
ATOM     40  C   UNL     1       3.732  -6.041   4.656  1.00  0.00     0.002 C 
ATOM     41  C   UNL     1       2.582  -5.148   4.209  1.00  0.00     0.004 C 
ENDBRANCH  38  40
ENDBRANCH  32  38
ENDBRANCH  29  32
ENDBRANCH  23  26
ENDBRANCH   1  22
TORSDOF 4
ENDMDL
MODEL 5
REMARK VINA RESULT:    -3.740      9.910     11.982
REMARK INTER + INTRA:          -8.007
REMARK INTER:                  -6.185
REMARK INTRA:                  -1.821
REMARK UNBOUND:                -1.644
REMARK SMILES CC[C@H](C)[C@@H]1NC(=O)[C@H]2CSC(=N2)[C@@H]([C@@H](C)CC)NC(=O)c2csc(n2)CNC(=O)[C@H]2N=C1O[C@@H]2C
REMARK SMILES IDX 27 1 25 2 22 3 26 4 23 5 24 6 20 7 19 8 21 9 14 11 12 12
REMARK SMILES IDX 11 13 10 14 13 15 9 16 15 18 16 19 17 20 18 21 28 22 29 23
REMARK SMILES IDX 30 24 31 26 32 27 35 28 33 29 34 30 36 31 5 32 6 33 7 34
REMARK SMILES IDX 8 35 3 38 4 39 2 40 1 41
REMARK H PARENT 19 10 28 25 6 36
REMARK Flexibility Score:   91.900
ROOT
ATOM      1  C   UNL     1       2.854  -7.711   4.932  1.00  0.00     0.183 C 
ENDROOT
BRANCH   1   2
ATOM      2  C   UNL     1       4.188  -7.033   5.053  1.00  0.00     0.113 A 
ATOM      3  C   UNL     1       5.701  -5.489   5.596  1.00  0.00     0.139 A 
ATOM      4  N   UNL     1       4.393  -5.945   5.773  1.00  0.00    -0.234 NA
ATOM      5  C   UNL     1       6.480  -6.287   4.781  1.00  0.00     0.101 A 
ATOM      6  S   UNL     1       5.561  -7.617   4.203  1.00  0.00    -0.125 S 
BRANCH   3   7
ATOM      7  C   UNL     1       6.131  -4.236   6.220  1.00  0.00     0.271 C 
ATOM      8  N   UNL     1       6.885  -4.464   7.345  1.00  0.00    -0.341 N 
ATOM      9  O   UNL     1       5.822  -3.127   5.803  1.00  0.00    -0.267 OA
ATOM     10  H   UNL     1       7.079  -5.442   7.555  1.00  0.00     0.164 HD
BRANCH   8  11
ATOM     11  C   UNL     1       7.296  -3.427   8.278  1.00  0.00     0.140 C 
BRANCH  11  12
ATOM     12  C   UNL     1       6.468  -3.589   9.556  1.00  0.00     0.091 C 
ATOM     13  S   UNL     1       7.208  -4.185  11.023  1.00  0.00    -0.106 SA
ATOM     14  C   UNL     1       5.743  -3.715  11.968  1.00  0.00     0.113 C 
ATOM     15  N   UNL     1       5.191  -3.367   9.580  1.00  0.00    -0.267 NA
ATOM     16  C   UNL     1       4.635  -3.710  10.927  1.00  0.00     0.205 CG0
ATOM     17  G   UNL     1       3.915  -5.068  10.893  1.00  0.00     0.000 G0
ENDBRANCH  11  12
BRANCH  11  18
ATOM     18  C   UNL     1       8.831  -3.316   8.460  1.00  0.00     0.015 C 
ATOM     19  C   UNL     1       9.547  -4.399   7.642  1.00  0.00     0.010 C 
BRANCH  18  20
ATOM     20  C   UNL     1       9.414  -1.917   8.176  1.00  0.00     0.002 C 
ATOM     21  C   UNL     1       8.363  -0.813   8.219  1.00  0.00     0.004 C 
ENDBRANCH  18  20
ENDBRANCH  11  18
ENDBRANCH   8  11
ENDBRANCH   3   7
ENDBRANCH   1   2
BRANCH   1  22
ATOM     22  N   UNL     1       1.967  -7.096   5.895  1.00  0.00    -0.348 N 
ATOM     23  C   UNL     1       0.792  -7.644   6.333  1.00  0.00     0.249 C 
ATOM     24  O   UNL     1       0.412  -8.764   6.012  1.00  0.00    -0.272 OA
ATOM     25  H   UNL     1       2.178  -6.151   6.213  1.00  0.00     0.163 HD
BRANCH  23  26
ATOM     26  C   UNL     1       0.040  -6.732   7.313  1.00  0.00     0.238 C 
ATOM     27  N   UNL     1       0.319  -7.173   8.708  1.00  0.00    -0.236 NA
ATOM     28  C   UNL     1       0.523  -5.294   7.237  1.00  0.00     0.206 C 
ATOM     29  C   UNL     1       1.045  -6.207   9.186  1.00  0.00     0.208 C 
ATOM     30  O   UNL     1       1.329  -5.137   8.404  1.00  0.00    -0.474 OA
ATOM     31  C   UNL     1      -0.620  -4.289   7.298  1.00  0.00     0.056 C 
BRANCH  29  32
ATOM     32  C   UNL     1       1.685  -6.157  10.571  1.00  0.00     0.171 C 
BRANCH  32  33
ATOM     33  N   UNL     1       2.540  -4.988  10.705  1.00  0.00    -0.342 N 
ATOM     34  C   UNL     1       3.899  -5.080  10.887  1.00  0.00     0.246 CG0
ATOM     35  O   UNL     1       4.492  -6.153  10.975  1.00  0.00    -0.273 OA
ATOM     36  H   UNL     1       2.151  -4.051  10.707  1.00  0.00     0.164 HD
ATOM     37  G   UNL     1       4.628  -3.728  10.947  1.00  0.00     0.000 G0
ENDBRANCH  32  33
BRANCH  32  38
ATOM     38  C   UNL     1       0.598  -6.228  11.675  1.00  0.00     0.017 C 
ATOM     39  C   UNL     1       1.252  -6.200  13.062  1.00  0.00     0.010 C 
BRANCH  38  40
ATOM     40  C   UNL     1      -0.480  -5.129  11.532  1.00  0.00     0.002 C 
ATOM     41  C   UNL     1      -0.982  -4.591  12.865  1.00  0.00     0.004 C 
ENDBRANCH  38  40
ENDBRANCH  32  38
ENDBRANCH  29  32
ENDBRANCH  23  26
ENDBRANCH   1  22
TORSDOF 4
ENDMDL
MODEL 6
REMARK VINA RESULT:    -3.720      5.435      8.098
REMARK INTER + INTRA:          -7.974
REMARK INTER:                  -6.521
REMARK INTRA:                  -1.453
REMARK UNBOUND:                -1.644
REMARK SMILES CC[C@H](C)[C@@H]1NC(=O)[C@H]2CSC(=N2)[C@@H]([C@@H](C)CC)NC(=O)c2csc(n2)CNC(=O)[C@H]2N=C1O[C@@H]2C
REMARK SMILES IDX 27 1 25 2 22 3 26 4 23 5 24 6 20 7 19 8 21 9 14 11 12 12
REMARK SMILES IDX 11 13 10 14 13 15 9 16 15 18 16 19 17 20 18 21 28 22 29 23
REMARK SMILES IDX 30 24 31 26 32 27 35 28 33 29 34 30 36 31 5 32 6 33 7 34
REMARK SMILES IDX 8 35 3 38 4 39 2 40 1 41
REMARK H PARENT 19 10 28 25 6 36
REMARK Flexibility Score:   91.900
ROOT
ATOM      1  C   UNL     1       2.695   2.933  11.663  1.00  0.00     0.183 C 
ENDROOT
BRANCH   1   2
ATOM      2  C   UNL     1       3.984   3.154  10.927  1.00  0.00     0.113 A 
ATOM      3  C   UNL     1       5.584   4.216   9.796  1.00  0.00     0.139 A 
ATOM      4  N   UNL     1       4.422   4.344  10.559  1.00  0.00    -0.234 NA
ATOM      5  C   UNL     1       6.035   2.919   9.653  1.00  0.00     0.101 A 
ATOM      6  S   UNL     1       4.979   1.834  10.462  1.00  0.00    -0.125 S 
BRANCH   3   7
ATOM      7  C   UNL     1       6.198   5.401   9.191  1.00  0.00     0.271 C 
ATOM      8  N   UNL     1       7.424   5.673   9.746  1.00  0.00    -0.341 N 
ATOM      9  O   UNL     1       5.661   6.077   8.324  1.00  0.00    -0.267 OA
ATOM     10  H   UNL     1       7.751   5.005  10.443  1.00  0.00     0.164 HD
BRANCH   8  11
ATOM     11  C   UNL     1       8.187   6.883   9.487  1.00  0.00     0.140 C 
BRANCH  11  12
ATOM     12  C   UNL     1       8.250   7.687  10.788  1.00  0.00     0.091 C 
ATOM     13  S   UNL     1       9.789   8.182  11.453  1.00  0.00    -0.106 SA
ATOM     14  C   UNL     1       8.948   9.276  12.619  1.00  0.00     0.113 C 
ATOM     15  N   UNL     1       7.187   7.964  11.476  1.00  0.00    -0.267 NA
ATOM     16  C   UNL     1       7.563   8.661  12.746  1.00  0.00     0.205 CG0
ATOM     17  G   UNL     1       7.505   7.695  13.940  1.00  0.00     0.000 G0
ENDBRANCH  11  12
BRANCH  11  18
ATOM     18  C   UNL     1       9.537   6.635   8.765  1.00  0.00     0.015 C 
ATOM     19  C   UNL     1       9.574   5.220   8.172  1.00  0.00     0.010 C 
BRANCH  18  20
ATOM     20  C   UNL     1       9.910   7.698   7.712  1.00  0.00     0.002 C 
ATOM     21  C   UNL     1      11.257   8.358   7.983  1.00  0.00     0.004 C 
ENDBRANCH  18  20
ENDBRANCH  11  18
ENDBRANCH   8  11
ENDBRANCH   3   7
ENDBRANCH   1   2
BRANCH   1  22
ATOM     22  N   UNL     1       2.737   3.740  12.862  1.00  0.00    -0.348 N 
ATOM     23  C   UNL     1       3.169   3.300  14.083  1.00  0.00     0.249 C 
ATOM     24  O   UNL     1       3.649   2.186  14.266  1.00  0.00    -0.272 OA
ATOM     25  H   UNL     1       2.341   4.679  12.828  1.00  0.00     0.163 HD
BRANCH  23  26
ATOM     26  C   UNL     1       3.045   4.369  15.180  1.00  0.00     0.238 C 
ATOM     27  N   UNL     1       4.391   4.638  15.758  1.00  0.00    -0.236 NA
ATOM     28  C   UNL     1       2.567   5.699  14.625  1.00  0.00     0.206 C 
ATOM     29  C   UNL     1       4.655   5.843  15.347  1.00  0.00     0.208 C 
ATOM     30  O   UNL     1       3.744   6.505  14.593  1.00  0.00    -0.474 OA
ATOM     31  C   UNL     1       1.541   6.374  15.526  1.00  0.00     0.056 C 
BRANCH  29  32
ATOM     32  C   UNL     1       5.951   6.614  15.581  1.00  0.00     0.171 C 
BRANCH  32  33
ATOM     33  N   UNL     1       6.225   7.518  14.475  1.00  0.00    -0.342 N 
ATOM     34  C   UNL     1       7.485   7.692  13.955  1.00  0.00     0.246 CG0
ATOM     35  O   UNL     1       8.478   7.119  14.398  1.00  0.00    -0.273 OA
ATOM     36  H   UNL     1       5.490   8.087  14.069  1.00  0.00     0.164 HD
ATOM     37  G   UNL     1       7.551   8.646  12.751  1.00  0.00     0.000 G0
ENDBRANCH  32  33
BRANCH  32  38
ATOM     38  C   UNL     1       5.908   7.344  16.950  1.00  0.00     0.017 C 
ATOM     39  C   UNL     1       4.547   7.123  17.622  1.00  0.00     0.010 C 
BRANCH  38  40
ATOM     40  C   UNL     1       7.075   6.947  17.882  1.00  0.00     0.002 C 
ATOM     41  C   UNL     1       8.285   7.865  17.769  1.00  0.00     0.004 C 
ENDBRANCH  38  40
ENDBRANCH  32  38
ENDBRANCH  29  32
ENDBRANCH  23  26
ENDBRANCH   1  22
TORSDOF 4
ENDMDL
MODEL 7
REMARK VINA RESULT:    -3.673     13.236     16.913
REMARK INTER + INTRA:          -7.893
REMARK INTER:                  -6.426
REMARK INTRA:                  -1.467
REMARK UNBOUND:                -1.644
REMARK SMILES CC[C@H](C)[C@@H]1NC(=O)[C@H]2CSC(=N2)[C@@H]([C@@H](C)CC)NC(=O)c2csc(n2)CNC(=O)[C@H]2N=C1O[C@@H]2C
REMARK SMILES IDX 27 1 25 2 22 3 26 4 23 5 24 6 20 7 19 8 21 9 14 11 12 12
REMARK SMILES IDX 11 13 10 14 13 15 9 16 15 18 16 19 17 20 18 21 28 22 29 23
REMARK SMILES IDX 30 24 31 26 32 27 35 28 33 29 34 30 36 31 5 32 6 33 7 34
REMARK SMILES IDX 8 35 3 38 4 39 2 40 1 41
REMARK H PARENT 19 10 28 25 6 36
REMARK Flexibility Score:   91.900
ROOT
ATOM      1  C   UNL     1      -0.471  -2.866   9.534  1.00  0.00     0.183 C 
ENDROOT
BRANCH   1   2
ATOM      2  C   UNL     1      -1.082  -3.945  10.381  1.00  0.00     0.113 A 
ATOM      3  C   UNL     1      -2.089  -5.861  10.911  1.00  0.00     0.139 A 
ATOM      4  N   UNL     1      -1.454  -5.121   9.911  1.00  0.00    -0.234 NA
ATOM      5  C   UNL     1      -2.129  -5.240  12.144  1.00  0.00     0.101 A 
ATOM      6  S   UNL     1      -1.386  -3.695  12.052  1.00  0.00    -0.125 S 
BRANCH   3   7
ATOM      7  C   UNL     1      -2.679  -7.164  10.596  1.00  0.00     0.271 C 
ATOM      8  N   UNL     1      -1.780  -8.185  10.787  1.00  0.00    -0.341 N 
ATOM      9  O   UNL     1      -3.822  -7.312  10.182  1.00  0.00    -0.267 OA
ATOM     10  H   UNL     1      -0.872  -7.909  11.159  1.00  0.00     0.164 HD
BRANCH   8  11
ATOM     11  C   UNL     1      -2.011  -9.562  10.383  1.00  0.00     0.140 C 
BRANCH  11  12
ATOM     12  C   UNL     1      -0.664 -10.165   9.975  1.00  0.00     0.091 C 
ATOM     13  S   UNL     1       0.312 -11.028  11.141  1.00  0.00    -0.106 SA
ATOM     14  C   UNL     1       1.380 -11.634   9.817  1.00  0.00     0.113 C 
ATOM     15  N   UNL     1      -0.167  -9.997   8.790  1.00  0.00    -0.267 NA
ATOM     16  C   UNL     1       1.200 -10.602   8.715  1.00  0.00     0.205 CG0
ATOM     17  G   UNL     1       2.285  -9.517   8.803  1.00  0.00     0.000 G0
ENDBRANCH  11  12
BRANCH  11  18
ATOM     18  C   UNL     1      -2.855 -10.382  11.393  1.00  0.00     0.015 C 
ATOM     19  C   UNL     1      -2.785  -9.746  12.788  1.00  0.00     0.010 C 
BRANCH  18  20
ATOM     20  C   UNL     1      -4.314 -10.633  10.961  1.00  0.00     0.002 C 
ATOM     21  C   UNL     1      -4.485 -11.923  10.166  1.00  0.00     0.004 C 
ENDBRANCH  18  20
ENDBRANCH  11  18
ENDBRANCH   8  11
ENDBRANCH   3   7
ENDBRANCH   1   2
BRANCH   1  22
ATOM     22  N   UNL     1       0.230  -3.514   8.448  1.00  0.00    -0.348 N 
ATOM     23  C   UNL     1       1.586  -3.689   8.389  1.00  0.00     0.249 C 
ATOM     24  O   UNL     1       2.343  -3.385   9.304  1.00  0.00    -0.272 OA
ATOM     25  H   UNL     1      -0.302  -3.788   7.623  1.00  0.00     0.163 HD
BRANCH  23  26
ATOM     26  C   UNL     1       2.044  -4.361   7.086  1.00  0.00     0.238 C 
ATOM     27  N   UNL     1       3.200  -5.255   7.374  1.00  0.00    -0.236 NA
ATOM     28  C   UNL     1       0.969  -5.262   6.502  1.00  0.00     0.206 C 
ATOM     29  C   UNL     1       2.708  -6.444   7.197  1.00  0.00     0.208 C 
ATOM     30  O   UNL     1       1.414  -6.580   6.817  1.00  0.00    -0.474 OA
ATOM     31  C   UNL     1       0.858  -5.135   4.989  1.00  0.00     0.056 C 
BRANCH  29  32
ATOM     32  C   UNL     1       3.434  -7.767   7.428  1.00  0.00     0.171 C 
BRANCH  32  33
ATOM     33  N   UNL     1       2.487  -8.861   7.572  1.00  0.00    -0.342 N 
ATOM     34  C   UNL     1       2.287  -9.516   8.763  1.00  0.00     0.246 CG0
ATOM     35  O   UNL     1       2.908  -9.248   9.788  1.00  0.00    -0.273 OA
ATOM     36  H   UNL     1       1.960  -9.207   6.776  1.00  0.00     0.164 HD
ATOM     37  G   UNL     1       1.200 -10.603   8.718  1.00  0.00     0.000 G0
ENDBRANCH  32  33
BRANCH  32  38
ATOM     38  C   UNL     1       4.469  -8.021   6.301  1.00  0.00     0.017 C 
ATOM     39  C   UNL     1       3.929  -7.503   4.962  1.00  0.00     0.010 C 
BRANCH  38  40
ATOM     40  C   UNL     1       5.863  -7.431   6.618  1.00  0.00     0.002 C 
ATOM     41  C   UNL     1       6.588  -6.889   5.394  1.00  0.00     0.004 C 
ENDBRANCH  38  40
ENDBRANCH  32  38
ENDBRANCH  29  32
ENDBRANCH  23  26
ENDBRANCH   1  22
TORSDOF 4
ENDMDL
MODEL 8
REMARK VINA RESULT:    -3.449      5.327      7.574
REMARK INTER + INTRA:          -7.512
REMARK INTER:                  -6.166
REMARK INTRA:                  -1.346
REMARK UNBOUND:                -1.644
REMARK SMILES CC[C@H](C)[C@@H]1NC(=O)[C@H]2CSC(=N2)[C@@H]([C@@H](C)CC)NC(=O)c2csc(n2)CNC(=O)[C@H]2N=C1O[C@@H]2C
REMARK SMILES IDX 27 1 25 2 22 3 26 4 23 5 24 6 20 7 19 8 21 9 14 11 12 12
REMARK SMILES IDX 11 13 10 14 13 15 9 16 15 18 16 19 17 20 18 21 28 22 29 23
REMARK SMILES IDX 30 24 31 26 32 27 35 28 33 29 34 30 36 31 5 32 6 33 7 34
REMARK SMILES IDX 8 35 3 38 4 39 2 40 1 41
REMARK H PARENT 19 10 28 25 6 36
REMARK Flexibility Score:   91.900
ROOT
ATOM      1  C   UNL     1       4.342   5.496   7.500  1.00  0.00     0.183 C 
ENDROOT
BRANCH   1   2
ATOM      2  C   UNL     1       4.641   4.202   6.798  1.00  0.00     0.113 A 
ATOM      3  C   UNL     1       5.568   2.217   6.390  1.00  0.00     0.139 A 
ATOM      4  N   UNL     1       5.375   3.238   7.323  1.00  0.00    -0.234 NA
ATOM      5  C   UNL     1       4.917   2.411   5.187  1.00  0.00     0.101 A 
ATOM      6  S   UNL     1       4.070   3.903   5.207  1.00  0.00    -0.125 S 
BRANCH   3   7
ATOM      7  C   UNL     1       6.436   1.083   6.714  1.00  0.00     0.271 C 
ATOM      8  N   UNL     1       5.713  -0.070   6.901  1.00  0.00    -0.341 N 
ATOM      9  O   UNL     1       7.651   1.169   6.835  1.00  0.00    -0.267 OA
ATOM     10  H   UNL     1       4.709   0.008   6.742  1.00  0.00     0.164 HD
BRANCH   8  11
ATOM     11  C   UNL     1       6.272  -1.311   7.412  1.00  0.00     0.140 C 
BRANCH  11  12
ATOM     12  C   UNL     1       6.015  -1.356   8.921  1.00  0.00     0.091 C 
ATOM     13  S   UNL     1       4.657  -2.251   9.563  1.00  0.00    -0.106 SA
ATOM     14  C   UNL     1       5.318  -2.078  11.234  1.00  0.00     0.113 C 
ATOM     15  N   UNL     1       6.736  -0.683   9.761  1.00  0.00    -0.267 NA
ATOM     16  C   UNL     1       6.188  -0.834  11.145  1.00  0.00     0.205 CG0
ATOM     17  G   UNL     1       5.394   0.415  11.560  1.00  0.00     0.000 G0
ENDBRANCH  11  12
BRANCH  11  18
ATOM     18  C   UNL     1       5.859  -2.568   6.604  1.00  0.00     0.015 C 
ATOM     19  C   UNL     1       5.710  -2.223   5.116  1.00  0.00     0.010 C 
BRANCH  18  20
ATOM     20  C   UNL     1       6.771  -3.795   6.809  1.00  0.00     0.002 C 
ATOM     21  C   UNL     1       6.407  -4.966   5.903  1.00  0.00     0.004 C 
ENDBRANCH  18  20
ENDBRANCH  11  18
ENDBRANCH   8  11
ENDBRANCH   3   7
ENDBRANCH   1   2
BRANCH   1  22
ATOM     22  N   UNL     1       5.073   5.490   8.748  1.00  0.00    -0.348 N 
ATOM     23  C   UNL     1       6.318   6.031   8.924  1.00  0.00     0.249 C 
ATOM     24  O   UNL     1       6.909   6.657   8.052  1.00  0.00    -0.272 OA
ATOM     25  H   UNL     1       4.683   4.975   9.536  1.00  0.00     0.163 HD
BRANCH  23  26
ATOM     26  C   UNL     1       6.862   5.821  10.345  1.00  0.00     0.238 C 
ATOM     27  N   UNL     1       5.815   5.170  11.181  1.00  0.00    -0.236 NA
ATOM     28  C   UNL     1       8.048   4.873  10.366  1.00  0.00     0.206 C 
ATOM     29  C   UNL     1       6.297   3.980  11.387  1.00  0.00     0.208 C 
ATOM     30  O   UNL     1       7.507   3.653  10.871  1.00  0.00    -0.474 OA
ATOM     31  C   UNL     1       9.153   5.339  11.304  1.00  0.00     0.056 C 
BRANCH  29  32
ATOM     32  C   UNL     1       5.606   2.841  12.131  1.00  0.00     0.171 C 
BRANCH  32  33
ATOM     33  N   UNL     1       6.166   1.555  11.748  1.00  0.00    -0.342 N 
ATOM     34  C   UNL     1       5.397   0.425  11.601  1.00  0.00     0.246 CG0
ATOM     35  O   UNL     1       4.186   0.408  11.806  1.00  0.00    -0.273 OA
ATOM     36  H   UNL     1       7.164   1.438  11.609  1.00  0.00     0.164 HD
ATOM     37  G   UNL     1       6.172  -0.817  11.133  1.00  0.00     0.000 G0
ENDBRANCH  32  33
BRANCH  32  38
ATOM     38  C   UNL     1       5.661   3.081  13.663  1.00  0.00     0.017 C 
ATOM     39  C   UNL     1       7.099   3.396  14.095  1.00  0.00     0.010 C 
BRANCH  38  40
ATOM     40  C   UNL     1       4.673   4.170  14.138  1.00  0.00     0.002 C 
ATOM     41  C   UNL     1       4.998   4.729  15.517  1.00  0.00     0.004 C 
ENDBRANCH  38  40
ENDBRANCH  32  38
ENDBRANCH  29  32
ENDBRANCH  23  26
ENDBRANCH   1  22
TORSDOF 4
ENDMDL
MODEL 9
REMARK VINA RESULT:    -3.251     13.735     17.376
REMARK INTER + INTRA:          -7.176
REMARK INTER:                  -5.442
REMARK INTRA:                  -1.734
REMARK UNBOUND:                -1.644
REMARK SMILES CC[C@H](C)[C@@H]1NC(=O)[C@H]2CSC(=N2)[C@@H]([C@@H](C)CC)NC(=O)c2csc(n2)CNC(=O)[C@H]2N=C1O[C@@H]2C
REMARK SMILES IDX 27 1 25 2 22 3 26 4 23 5 24 6 20 7 19 8 21 9 14 11 12 12
REMARK SMILES IDX 11 13 10 14 13 15 9 16 15 18 16 19 17 20 18 21 28 22 29 23
REMARK SMILES IDX 30 24 31 26 32 27 35 28 33 29 34 30 36 31 5 32 6 33 7 34
REMARK SMILES IDX 8 35 3 38 4 39 2 40 1 41
REMARK H PARENT 19 10 28 25 6 36
REMARK Flexibility Score:   91.900
ROOT
ATOM      1  C   UNL     1       2.602  -4.559   8.306  1.00  0.00     0.183 C 
ENDROOT
BRANCH   1   2
ATOM      2  C   UNL     1       1.256  -4.548   8.972  1.00  0.00     0.113 A 
ATOM      3  C   UNL     1      -0.708  -5.291   9.718  1.00  0.00     0.139 A 
ATOM      4  N   UNL     1       0.539  -5.634   9.190  1.00  0.00    -0.234 NA
ATOM      5  C   UNL     1      -0.881  -3.940   9.942  1.00  0.00     0.101 A 
ATOM      6  S   UNL     1       0.523  -3.076   9.465  1.00  0.00    -0.125 S 
BRANCH   3   7
ATOM      7  C   UNL     1      -1.716  -6.328   9.949  1.00  0.00     0.271 C 
ATOM      8  N   UNL     1      -1.535  -6.948  11.161  1.00  0.00    -0.341 N 
ATOM      9  O   UNL     1      -2.587  -6.622   9.141  1.00  0.00    -0.267 OA
ATOM     10  H   UNL     1      -0.780  -6.577  11.737  1.00  0.00     0.164 HD
BRANCH   8  11
ATOM     11  C   UNL     1      -2.258  -8.134  11.588  1.00  0.00     0.140 C 
BRANCH  11  12
ATOM     12  C   UNL     1      -1.382  -9.353  11.284  1.00  0.00     0.091 C 
ATOM     13  S   UNL     1      -0.651 -10.267  12.583  1.00  0.00    -0.106 SA
ATOM     14  C   UNL     1      -0.198 -11.575  11.424  1.00  0.00     0.113 C 
ATOM     15  N   UNL     1      -1.092  -9.705  10.071  1.00  0.00    -0.267 NA
ATOM     16  C   UNL     1      -0.137 -10.858  10.085  1.00  0.00     0.205 CG0
ATOM     17  G   UNL     1       1.295 -10.388   9.784  1.00  0.00     0.000 G0
ENDBRANCH  11  12
BRANCH  11  18
ATOM     18  C   UNL     1      -2.833  -8.040  13.025  1.00  0.00     0.015 C 
ATOM     19  C   UNL     1      -2.221  -6.845  13.768  1.00  0.00     0.010 C 
BRANCH  18  20
ATOM     20  C   UNL     1      -4.373  -8.024  13.104  1.00  0.00     0.002 C 
ATOM     21  C   UNL     1      -5.036  -7.786  11.752  1.00  0.00     0.004 C 
ENDBRANCH  18  20
ENDBRANCH  11  18
ENDBRANCH   8  11
ENDBRANCH   3   7
ENDBRANCH   1   2
BRANCH   1  22
ATOM     22  N   UNL     1       2.664  -5.741   7.475  1.00  0.00    -0.348 N 
ATOM     23  C   UNL     1       2.973  -5.741   6.142  1.00  0.00     0.249 C 
ATOM     24  O   UNL     1       3.316  -4.735   5.531  1.00  0.00    -0.272 OA
ATOM     25  H   UNL     1       2.375  -6.632   7.877  1.00  0.00     0.163 HD
BRANCH  23  26
ATOM     26  C   UNL     1       2.903  -7.142   5.515  1.00  0.00     0.238 C 
ATOM     27  N   UNL     1       3.647  -8.103   6.376  1.00  0.00    -0.236 NA
ATOM     28  C   UNL     1       1.479  -7.668   5.454  1.00  0.00     0.206 C 
ATOM     29  C   UNL     1       2.705  -8.851   6.869  1.00  0.00     0.208 C 
ATOM     30  O   UNL     1       1.417  -8.623   6.512  1.00  0.00    -0.474 OA
ATOM     31  C   UNL     1       1.173  -8.376   4.141  1.00  0.00     0.056 C 
BRANCH  29  32
ATOM     32  C   UNL     1       2.881  -9.973   7.889  1.00  0.00     0.171 C 
BRANCH  32  33
ATOM     33  N   UNL     1       1.596 -10.405   8.413  1.00  0.00    -0.342 N 
ATOM     34  C   UNL     1       1.305 -10.403   9.757  1.00  0.00     0.246 CG0
ATOM     35  O   UNL     1       2.113 -10.063  10.617  1.00  0.00    -0.273 OA
ATOM     36  H   UNL     1       0.872 -10.763   7.799  1.00  0.00     0.164 HD
ATOM     37  G   UNL     1      -0.129 -10.840  10.098  1.00  0.00     0.000 G0
ENDBRANCH  32  33
BRANCH  32  38
ATOM     38  C   UNL     1       3.696 -11.142   7.274  1.00  0.00     0.017 C 
ATOM     39  C   UNL     1       4.349 -11.971   8.386  1.00  0.00     0.010 C 
BRANCH  38  40
ATOM     40  C   UNL     1       2.857 -12.026   6.322  1.00  0.00     0.002 C 
ATOM     41  C   UNL     1       3.514 -12.257   4.968  1.00  0.00     0.004 C 
ENDBRANCH  38  40
ENDBRANCH  32  38
ENDBRANCH  29  32
ENDBRANCH  23  26
ENDBRANCH   1  22
TORSDOF 4
ENDMDL
MODEL 10
REMARK VINA RESULT:    -3.036      9.997     12.592
REMARK INTER + INTRA:          -6.810
REMARK INTER:                  -5.410
REMARK INTRA:                  -1.399
REMARK UNBOUND:                -1.644
REMARK SMILES CC[C@H](C)[C@@H]1NC(=O)[C@H]2CSC(=N2)[C@@H]([C@@H](C)CC)NC(=O)c2csc(n2)CNC(=O)[C@H]2N=C1O[C@@H]2C
REMARK SMILES IDX 27 1 25 2 22 3 26 4 23 5 24 6 20 7 19 8 21 9 14 11 12 12
REMARK SMILES IDX 11 13 10 14 13 15 9 16 15 18 16 19 17 20 18 21 28 22 29 23
REMARK SMILES IDX 30 24 31 26 32 27 35 28 33 29 34 30 36 31 5 32 6 33 7 34
REMARK SMILES IDX 8 35 3 38 4 39 2 40 1 41
REMARK H PARENT 19 10 28 25 6 36
REMARK Flexibility Score:   91.900
ROOT
ATOM      1  C   UNL     1       5.700  -2.475   5.005  1.00  0.00     0.183 C 
ENDROOT
BRANCH   1   2
ATOM      2  C   UNL     1       5.961  -2.167   6.451  1.00  0.00     0.113 A 
ATOM      3  C   UNL     1       6.437  -2.503   8.602  1.00  0.00     0.139 A 
ATOM      4  N   UNL     1       6.403  -3.057   7.320  1.00  0.00    -0.234 NA
ATOM      5  C   UNL     1       6.071  -1.173   8.660  1.00  0.00     0.101 A 
ATOM      6  S   UNL     1       5.652  -0.606   7.095  1.00  0.00    -0.125 S 
BRANCH   3   7
ATOM      7  C   UNL     1       6.800  -3.336   9.750  1.00  0.00     0.271 C 
ATOM      8  N   UNL     1       7.340  -4.535   9.355  1.00  0.00    -0.341 N 
ATOM      9  O   UNL     1       6.611  -3.009  10.915  1.00  0.00    -0.267 OA
ATOM     10  H   UNL     1       7.458  -4.655   8.350  1.00  0.00     0.164 HD
BRANCH   8  11
ATOM     11  C   UNL     1       7.624  -5.640  10.257  1.00  0.00     0.140 C 
BRANCH  11  12
ATOM     12  C   UNL     1       7.206  -6.936   9.556  1.00  0.00     0.091 C 
ATOM     13  S   UNL     1       7.632  -7.218   7.884  1.00  0.00    -0.106 SA
ATOM     14  C   UNL     1       7.130  -8.946   8.034  1.00  0.00     0.113 C 
ATOM     15  N   UNL     1       6.470  -7.827  10.142  1.00  0.00    -0.267 NA
ATOM     16  C   UNL     1       6.135  -8.927   9.184  1.00  0.00     0.205 CG0
ATOM     17  G   UNL     1       4.698  -8.777   8.657  1.00  0.00     0.000 G0
ENDBRANCH  11  12
BRANCH  11  18
ATOM     18  C   UNL     1       9.052  -5.611  10.860  1.00  0.00     0.015 C 
ATOM     19  C   UNL     1       9.030  -6.113  12.309  1.00  0.00     0.010 C 
BRANCH  18  20
ATOM     20  C   UNL     1      10.119  -6.347  10.024  1.00  0.00     0.002 C 
ATOM     21  C   UNL     1      10.478  -7.716  10.590  1.00  0.00     0.004 C 
ENDBRANCH  18  20
ENDBRANCH  11  18
ENDBRANCH   8  11
ENDBRANCH   3   7
ENDBRANCH   1   2
BRANCH   1  22
ATOM     22  N   UNL     1       4.772  -3.584   4.960  1.00  0.00    -0.348 N 
ATOM     23  C   UNL     1       5.033  -4.796   4.381  1.00  0.00     0.249 C 
ATOM     24  O   UNL     1       6.125  -5.095   3.911  1.00  0.00    -0.272 OA
ATOM     25  H   UNL     1       3.824  -3.436   5.304  1.00  0.00     0.163 HD
BRANCH  23  26
ATOM     26  C   UNL     1       3.835  -5.755   4.441  1.00  0.00     0.238 C 
ATOM     27  N   UNL     1       4.076  -6.778   5.496  1.00  0.00    -0.236 NA
ATOM     28  C   UNL     1       2.557  -5.043   4.850  1.00  0.00     0.206 C 
ATOM     29  C   UNL     1       3.207  -6.472   6.412  1.00  0.00     0.208 C 
ATOM     30  O   UNL     1       2.366  -5.428   6.210  1.00  0.00    -0.474 OA
ATOM     31  C   UNL     1       1.349  -5.499   4.042  1.00  0.00     0.056 C 
BRANCH  29  32
ATOM     32  C   UNL     1       3.048  -7.149   7.770  1.00  0.00     0.171 C 
BRANCH  32  33
ATOM     33  N   UNL     1       4.344  -7.490   8.335  1.00  0.00    -0.342 N 
ATOM     34  C   UNL     1       4.691  -8.778   8.669  1.00  0.00     0.246 CG0
ATOM     35  O   UNL     1       3.928  -9.732   8.541  1.00  0.00    -0.273 OA
ATOM     36  H   UNL     1       5.032  -6.774   8.539  1.00  0.00     0.164 HD
ATOM     37  G   UNL     1       6.127  -8.934   9.196  1.00  0.00     0.000 G0
ENDBRANCH  32  33
BRANCH  32  38
ATOM     38  C   UNL     1       2.199  -6.265   8.721  1.00  0.00     0.017 C 
ATOM     39  C   UNL     1       1.547  -7.133   9.805  1.00  0.00     0.010 C 
BRANCH  38  40
ATOM     40  C   UNL     1       3.002  -5.096   9.335  1.00  0.00     0.002 C 
ATOM     41  C   UNL     1       2.188  -3.820   9.507  1.00  0.00     0.004 C 
ENDBRANCH  38  40
ENDBRANCH  32  38
ENDBRANCH  29  32
ENDBRANCH  23  26
ENDBRANCH   1  22
TORSDOF 4
ENDMDL
