MODEL 1
REMARK VINA RESULT:    -5.107      0.000      0.000
REMARK INTER + INTRA:         -11.257
REMARK INTER:                  -9.137
REMARK INTRA:                  -2.120
REMARK UNBOUND:                -2.120
REMARK SMILES CC[C@H](C)[C@H]1NC(=O)c2coc(n2)[C@H](C(C)C)NC(=O)[C@H]([C@@H](C)O)NC(=O)[C@H](C)NC(=O)c2csc1n2
REMARK SMILES IDX 11 1 13 2 12 3 9 4 10 5 7 6 6 7 8 8 5 10 36 11 35 12 34 13
REMARK SMILES IDX 37 14 33 15 31 16 32 17 30 18 28 20 29 21 3 23 4 24 2 25
REMARK SMILES IDX 1 26 14 27 18 28 19 29 20 30 21 32 25 33 26 34 27 35 22 38
REMARK SMILES IDX 23 39 24 40 15 42 16 43 17 44
REMARK H PARENT 6 9 30 19 18 31 25 36 24 41
REMARK Flexibility Score:   94.900
ROOT
ATOM      1  O   UNL     1       0.105   2.494   3.999  1.00  0.00    -0.446 OA
ATOM      2  N   UNL     1       1.016   4.469   3.406  1.00  0.00    -0.207 NA
ATOM      3  C   UNL     1       0.451   3.766   4.371  1.00  0.00     0.217 A 
ATOM      4  C   UNL     1       1.070   3.593   2.335  1.00  0.00     0.167 A 
ATOM      5  C   UNL     1       0.514   2.392   2.704  1.00  0.00     0.231 A 
ENDROOT
BRANCH   4   6
ATOM      6  C   UNL     1       1.612   3.957   1.038  1.00  0.00     0.273 C 
ATOM      7  N   UNL     1       2.833   3.373   0.814  1.00  0.00    -0.341 N 
ATOM      8  O   UNL     1       1.050   4.716   0.258  1.00  0.00    -0.267 OA
ATOM      9  H   UNL     1       3.217   2.842   1.590  1.00  0.00     0.164 HD
BRANCH   7  10
ATOM     10  C   UNL     1       3.704   3.756  -0.280  1.00  0.00     0.145 C 
BRANCH  10  11
ATOM     11  C   UNL     1       4.930   4.428   0.322  1.00  0.00     0.116 A 
ATOM     12  S   UNL     1       6.319   4.707  -0.658  1.00  0.00    -0.124 S 
ATOM     13  C   UNL     1       7.096   5.454   0.668  1.00  0.00     0.101 A 
ATOM     14  N   UNL     1       5.027   4.848   1.573  1.00  0.00    -0.234 NA
ATOM     15  C   UNL     1       6.268   5.456   1.774  1.00  0.00     0.139 A 
BRANCH  15  16
ATOM     16  C   UNL     1       6.635   6.049   3.063  1.00  0.00     0.271 C 
ATOM     17  O   UNL     1       7.765   6.457   3.309  1.00  0.00    -0.267 OA
ATOM     18  N   UNL     1       5.590   6.103   3.961  1.00  0.00    -0.339 N 
ATOM     19  H   UNL     1       4.735   5.632   3.677  1.00  0.00     0.164 HD
BRANCH  18  20
ATOM     20  C   UNL     1       5.786   6.599   5.317  1.00  0.00     0.168 CG0
ATOM     21  C   UNL     1       4.972   7.871   5.567  1.00  0.00     0.041 C 
ATOM     22  G   UNL     1       5.391   5.570   6.388  1.00  0.00     0.000 G0
ENDBRANCH  18  20
ENDBRANCH  15  16
ENDBRANCH  10  11
BRANCH  10  23
ATOM     23  C   UNL     1       4.075   2.549  -1.183  1.00  0.00     0.015 C 
ATOM     24  C   UNL     1       3.825   1.188  -0.513  1.00  0.00     0.010 C 
BRANCH  23  25
ATOM     25  C   UNL     1       3.344   2.574  -2.544  1.00  0.00     0.002 C 
ATOM     26  C   UNL     1       2.579   3.863  -2.812  1.00  0.00     0.004 C 
ENDBRANCH  23  25
ENDBRANCH  10  23
ENDBRANCH   7  10
ENDBRANCH   4   6
BRANCH   3  27
ATOM     27  C   UNL     1       0.120   4.236   5.761  1.00  0.00     0.171 C 
BRANCH  27  28
ATOM     28  N   UNL     1       1.362   4.668   6.394  1.00  0.00    -0.342 N 
ATOM     29  C   UNL     1       2.202   3.803   7.058  1.00  0.00     0.245 C 
ATOM     30  O   UNL     1       1.975   2.597   7.154  1.00  0.00    -0.273 OA
ATOM     31  H   UNL     1       1.673   5.629   6.257  1.00  0.00     0.164 HD
BRANCH  29  32
ATOM     32  C   UNL     1       3.529   4.419   7.549  1.00  0.00     0.200 C 
BRANCH  32  33
ATOM     33  N   UNL     1       4.044   5.302   6.496  1.00  0.00    -0.340 N 
ATOM     34  C   UNL     1       5.395   5.553   6.369  1.00  0.00     0.243 CG0
ATOM     35  O   UNL     1       6.217   5.103   7.164  1.00  0.00    -0.273 OA
ATOM     36  H   UNL     1       3.387   5.713   5.843  1.00  0.00     0.164 HD
ATOM     37  G   UNL     1       5.782   6.601   5.313  1.00  0.00     0.000 G0
ENDBRANCH  32  33
BRANCH  32  38
ATOM     38  C   UNL     1       3.351   5.138   8.906  1.00  0.00     0.143 C 
ATOM     39  C   UNL     1       2.296   4.511   9.810  1.00  0.00     0.041 C 
BRANCH  38  40
ATOM     40  O   UNL     1       4.606   5.179   9.611  1.00  0.00    -0.391 OA
ATOM     41  H   UNL     1       5.081   5.970   9.292  1.00  0.00     0.211 HD
ENDBRANCH  38  40
ENDBRANCH  32  38
ENDBRANCH  29  32
ENDBRANCH  27  28
BRANCH  27  42
ATOM     42  C   UNL     1      -0.994   5.301   5.907  1.00  0.00     0.015 C 
ATOM     43  C   UNL     1      -0.792   6.585   5.094  1.00  0.00     0.010 C 
ATOM     44  C   UNL     1      -2.385   4.717   5.639  1.00  0.00     0.010 C 
ENDBRANCH  27  42
ENDBRANCH   3  27
TORSDOF 5
ENDMDL
MODEL 2
REMARK VINA RESULT:    -5.063      5.779     10.030
REMARK INTER + INTRA:         -11.178
REMARK INTER:                  -8.786
REMARK INTRA:                  -2.392
REMARK UNBOUND:                -2.120
REMARK SMILES CC[C@H](C)[C@H]1NC(=O)c2coc(n2)[C@H](C(C)C)NC(=O)[C@H]([C@@H](C)O)NC(=O)[C@H](C)NC(=O)c2csc1n2
REMARK SMILES IDX 11 1 13 2 12 3 9 4 10 5 7 6 6 7 8 8 5 10 36 11 35 12 34 13
REMARK SMILES IDX 37 14 33 15 31 16 32 17 30 18 28 20 29 21 3 23 4 24 2 25
REMARK SMILES IDX 1 26 14 27 18 28 19 29 20 30 21 32 25 33 26 34 27 35 22 38
REMARK SMILES IDX 23 39 24 40 15 42 16 43 17 44
REMARK H PARENT 6 9 30 19 18 31 25 36 24 41
REMARK Flexibility Score:   94.900
ROOT
ATOM      1  O   UNL     1      11.874   3.742  -3.367  1.00  0.00    -0.446 OA
ATOM      2  N   UNL     1      10.384   2.828  -1.944  1.00  0.00    -0.207 NA
ATOM      3  C   UNL     1      10.722   3.897  -2.643  1.00  0.00     0.217 A 
ATOM      4  C   UNL     1      11.363   1.899  -2.250  1.00  0.00     0.167 A 
ATOM      5  C   UNL     1      12.267   2.462  -3.117  1.00  0.00     0.231 A 
ENDROOT
BRANCH   4   6
ATOM      6  C   UNL     1      11.394   0.562  -1.682  1.00  0.00     0.273 C 
ATOM      7  N   UNL     1      10.410  -0.237  -2.208  1.00  0.00    -0.341 N 
ATOM      8  O   UNL     1      12.190   0.210  -0.821  1.00  0.00    -0.267 OA
ATOM      9  H   UNL     1       9.765   0.220  -2.846  1.00  0.00     0.164 HD
BRANCH   7  10
ATOM     10  C   UNL     1      10.056  -1.527  -1.650  1.00  0.00     0.145 C 
BRANCH  10  11
ATOM     11  C   UNL     1       8.631  -1.427  -1.126  1.00  0.00     0.116 A 
ATOM     12  S   UNL     1       8.127  -2.431   0.181  1.00  0.00    -0.124 S 
ATOM     13  C   UNL     1       6.583  -1.700   0.139  1.00  0.00     0.101 A 
ATOM     14  N   UNL     1       7.709  -0.598  -1.589  1.00  0.00    -0.234 NA
ATOM     15  C   UNL     1       6.531  -0.739  -0.853  1.00  0.00     0.139 A 
BRANCH  15  16
ATOM     16  C   UNL     1       5.350   0.085  -1.124  1.00  0.00     0.271 C 
ATOM     17  O   UNL     1       4.520  -0.204  -1.979  1.00  0.00    -0.267 OA
ATOM     18  N   UNL     1       5.267   1.208  -0.328  1.00  0.00    -0.339 N 
ATOM     19  H   UNL     1       6.073   1.394   0.263  1.00  0.00     0.164 HD
BRANCH  18  20
ATOM     20  C   UNL     1       4.196   2.179  -0.503  1.00  0.00     0.168 CG0
ATOM     21  C   UNL     1       3.189   2.110   0.647  1.00  0.00     0.041 C 
ATOM     22  G   UNL     1       4.713   3.624  -0.589  1.00  0.00     0.000 G0
ENDBRANCH  18  20
ENDBRANCH  15  16
ENDBRANCH  10  11
BRANCH  10  23
ATOM     23  C   UNL     1      10.229  -2.678  -2.676  1.00  0.00     0.015 C 
ATOM     24  C   UNL     1      11.220  -2.343  -3.804  1.00  0.00     0.010 C 
BRANCH  23  25
ATOM     25  C   UNL     1      10.660  -4.007  -2.018  1.00  0.00     0.002 C 
ATOM     26  C   UNL     1      10.291  -5.245  -2.824  1.00  0.00     0.004 C 
ENDBRANCH  23  25
ENDBRANCH  10  23
ENDBRANCH   7  10
ENDBRANCH   4   6
BRANCH   3  27
ATOM     27  C   UNL     1      10.016   5.225  -2.668  1.00  0.00     0.171 C 
BRANCH  27  28
ATOM     28  N   UNL     1       8.998   5.209  -1.622  1.00  0.00    -0.342 N 
ATOM     29  C   UNL     1       7.648   5.237  -1.893  1.00  0.00     0.245 C 
ATOM     30  O   UNL     1       7.200   5.261  -3.038  1.00  0.00    -0.273 OA
ATOM     31  H   UNL     1       9.291   5.074  -0.656  1.00  0.00     0.164 HD
BRANCH  29  32
ATOM     32  C   UNL     1       6.726   5.083  -0.665  1.00  0.00     0.200 C 
BRANCH  32  33
ATOM     33  N   UNL     1       6.082   3.766  -0.735  1.00  0.00    -0.340 N 
ATOM     34  C   UNL     1       4.720   3.626  -0.569  1.00  0.00     0.243 CG0
ATOM     35  O   UNL     1       3.997   4.581  -0.295  1.00  0.00    -0.273 OA
ATOM     36  H   UNL     1       6.657   2.955  -0.929  1.00  0.00     0.164 HD
ATOM     37  G   UNL     1       4.199   2.180  -0.529  1.00  0.00     0.000 G0
ENDBRANCH  32  33
BRANCH  32  38
ATOM     38  C   UNL     1       7.500   5.307   0.655  1.00  0.00     0.143 C 
ATOM     39  C   UNL     1       6.646   5.857   1.792  1.00  0.00     0.041 C 
BRANCH  38  40
ATOM     40  O   UNL     1       8.111   4.074   1.083  1.00  0.00    -0.391 OA
ATOM     41  H   UNL     1       9.011   4.299   1.387  1.00  0.00     0.211 HD
ENDBRANCH  38  40
ENDBRANCH  32  38
ENDBRANCH  29  32
ENDBRANCH  27  28
BRANCH  27  42
ATOM     42  C   UNL     1      10.891   6.500  -2.592  1.00  0.00     0.015 C 
ATOM     43  C   UNL     1      10.833   7.416  -3.819  1.00  0.00     0.010 C 
ATOM     44  C   UNL     1      10.622   7.304  -1.315  1.00  0.00     0.010 C 
ENDBRANCH  27  42
ENDBRANCH   3  27
TORSDOF 5
ENDMDL
MODEL 3
REMARK VINA RESULT:    -4.952      6.767     10.277
REMARK INTER + INTRA:         -10.981
REMARK INTER:                  -8.770
REMARK INTRA:                  -2.211
REMARK UNBOUND:                -2.120
REMARK SMILES CC[C@H](C)[C@H]1NC(=O)c2coc(n2)[C@H](C(C)C)NC(=O)[C@H]([C@@H](C)O)NC(=O)[C@H](C)NC(=O)c2csc1n2
REMARK SMILES IDX 11 1 13 2 12 3 9 4 10 5 7 6 6 7 8 8 5 10 36 11 35 12 34 13
REMARK SMILES IDX 37 14 33 15 31 16 32 17 30 18 28 20 29 21 3 23 4 24 2 25
REMARK SMILES IDX 1 26 14 27 18 28 19 29 20 30 21 32 25 33 26 34 27 35 22 38
REMARK SMILES IDX 23 39 24 40 15 42 16 43 17 44
REMARK H PARENT 6 9 30 19 18 31 25 36 24 41
REMARK Flexibility Score:   94.900
ROOT
ATOM      1  O   UNL     1       5.228   2.582  -3.097  1.00  0.00    -0.446 OA
ATOM      2  N   UNL     1       5.934   1.874  -1.077  1.00  0.00    -0.207 NA
ATOM      3  C   UNL     1       6.098   2.749  -2.053  1.00  0.00     0.217 A 
ATOM      4  C   UNL     1       4.868   1.096  -1.495  1.00  0.00     0.167 A 
ATOM      5  C   UNL     1       4.443   1.533  -2.726  1.00  0.00     0.231 A 
ENDROOT
BRANCH   4   6
ATOM      6  C   UNL     1       4.348  -0.018  -0.721  1.00  0.00     0.273 C 
ATOM      7  N   UNL     1       5.143  -0.304   0.359  1.00  0.00    -0.341 N 
ATOM      8  O   UNL     1       3.334  -0.636  -1.021  1.00  0.00    -0.267 OA
ATOM      9  H   UNL     1       6.002   0.234   0.429  1.00  0.00     0.164 HD
BRANCH   7  10
ATOM     10  C   UNL     1       4.999  -1.509   1.152  1.00  0.00     0.145 C 
BRANCH  10  11
ATOM     11  C   UNL     1       6.254  -2.346   0.950  1.00  0.00     0.116 A 
ATOM     12  S   UNL     1       6.333  -3.939   1.604  1.00  0.00    -0.124 S 
ATOM     13  C   UNL     1       7.895  -4.127   0.936  1.00  0.00     0.101 A 
ATOM     14  N   UNL     1       7.326  -1.955   0.282  1.00  0.00    -0.234 NA
ATOM     15  C   UNL     1       8.271  -2.984   0.256  1.00  0.00     0.139 A 
BRANCH  15  16
ATOM     16  C   UNL     1       9.545  -2.842  -0.451  1.00  0.00     0.271 C 
ATOM     17  O   UNL     1      10.432  -3.687  -0.400  1.00  0.00    -0.267 OA
ATOM     18  N   UNL     1       9.646  -1.672  -1.175  1.00  0.00    -0.339 N 
ATOM     19  H   UNL     1       8.890  -1.004  -1.047  1.00  0.00     0.164 HD
BRANCH  18  20
ATOM     20  C   UNL     1      10.869  -1.328  -1.887  1.00  0.00     0.168 CG0
ATOM     21  C   UNL     1      10.787  -1.731  -3.361  1.00  0.00     0.041 C 
ATOM     22  G   UNL     1      11.189   0.174  -1.828  1.00  0.00     0.000 G0
ENDBRANCH  18  20
ENDBRANCH  15  16
ENDBRANCH  10  11
BRANCH  10  23
ATOM     23  C   UNL     1       4.730  -1.197   2.648  1.00  0.00     0.015 C 
ATOM     24  C   UNL     1       4.879   0.293   2.996  1.00  0.00     0.010 C 
BRANCH  23  25
ATOM     25  C   UNL     1       3.338  -1.679   3.118  1.00  0.00     0.002 C 
ATOM     26  C   UNL     1       2.177  -0.918   2.493  1.00  0.00     0.004 C 
ENDBRANCH  23  25
ENDBRANCH  10  23
ENDBRANCH   7  10
ENDBRANCH   4   6
BRANCH   3  27
ATOM     27  C   UNL     1       7.143   3.828  -2.138  1.00  0.00     0.171 C 
BRANCH  27  28
ATOM     28  N   UNL     1       8.351   3.236  -2.703  1.00  0.00    -0.342 N 
ATOM     29  C   UNL     1       9.555   3.215  -2.036  1.00  0.00     0.245 C 
ATOM     30  O   UNL     1       9.699   3.679  -0.907  1.00  0.00    -0.273 OA
ATOM     31  H   UNL     1       8.282   2.731  -3.586  1.00  0.00     0.164 HD
BRANCH  29  32
ATOM     32  C   UNL     1      10.685   2.432  -2.739  1.00  0.00     0.200 C 
BRANCH  32  33
ATOM     33  N   UNL     1      10.398   0.997  -2.615  1.00  0.00    -0.340 N 
ATOM     34  C   UNL     1      11.169   0.180  -1.816  1.00  0.00     0.243 CG0
ATOM     35  O   UNL     1      12.164   0.598  -1.226  1.00  0.00    -0.273 OA
ATOM     36  H   UNL     1       9.602   0.617  -3.114  1.00  0.00     0.164 HD
ATOM     37  G   UNL     1      10.843  -1.321  -1.886  1.00  0.00     0.000 G0
ENDBRANCH  32  33
BRANCH  32  38
ATOM     38  C   UNL     1      10.859   2.887  -4.207  1.00  0.00     0.143 C 
ATOM     39  C   UNL     1      12.167   2.437  -4.847  1.00  0.00     0.041 C 
BRANCH  38  40
ATOM     40  O   UNL     1       9.759   2.407  -5.005  1.00  0.00    -0.391 OA
ATOM     41  H   UNL     1       8.951   2.538  -4.475  1.00  0.00     0.211 HD
ENDBRANCH  38  40
ENDBRANCH  32  38
ENDBRANCH  29  32
ENDBRANCH  27  28
BRANCH  27  42
ATOM     42  C   UNL     1       6.757   5.139  -2.865  1.00  0.00     0.015 C 
ATOM     43  C   UNL     1       7.180   5.229  -4.336  1.00  0.00     0.010 C 
ATOM     44  C   UNL     1       5.265   5.456  -2.721  1.00  0.00     0.010 C 
ENDBRANCH  27  42
ENDBRANCH   3  27
TORSDOF 5
ENDMDL
MODEL 4
REMARK VINA RESULT:    -4.882      5.257      9.965
REMARK INTER + INTRA:         -10.855
REMARK INTER:                  -8.536
REMARK INTRA:                  -2.319
REMARK UNBOUND:                -2.120
REMARK SMILES CC[C@H](C)[C@H]1NC(=O)c2coc(n2)[C@H](C(C)C)NC(=O)[C@H]([C@@H](C)O)NC(=O)[C@H](C)NC(=O)c2csc1n2
REMARK SMILES IDX 11 1 13 2 12 3 9 4 10 5 7 6 6 7 8 8 5 10 36 11 35 12 34 13
REMARK SMILES IDX 37 14 33 15 31 16 32 17 30 18 28 20 29 21 3 23 4 24 2 25
REMARK SMILES IDX 1 26 14 27 18 28 19 29 20 30 21 32 25 33 26 34 27 35 22 38
REMARK SMILES IDX 23 39 24 40 15 42 16 43 17 44
REMARK H PARENT 6 9 30 19 18 31 25 36 24 41
REMARK Flexibility Score:   94.900
ROOT
ATOM      1  O   UNL     1       8.522   2.861  -2.852  1.00  0.00    -0.446 OA
ATOM      2  N   UNL     1       9.655   3.452  -0.995  1.00  0.00    -0.207 NA
ATOM      3  C   UNL     1       9.636   3.449  -2.316  1.00  0.00     0.217 A 
ATOM      4  C   UNL     1       8.462   2.849  -0.637  1.00  0.00     0.167 A 
ATOM      5  C   UNL     1       7.776   2.492  -1.773  1.00  0.00     0.231 A 
ENDROOT
BRANCH   4   6
ATOM      6  C   UNL     1       8.067   2.626   0.743  1.00  0.00     0.273 C 
ATOM      7  N   UNL     1       6.801   3.091   0.992  1.00  0.00    -0.341 N 
ATOM      8  O   UNL     1       8.795   2.107   1.580  1.00  0.00    -0.267 OA
ATOM      9  H   UNL     1       6.352   3.582   0.224  1.00  0.00     0.164 HD
BRANCH   7  10
ATOM     10  C   UNL     1       6.255   3.223   2.329  1.00  0.00     0.145 C 
BRANCH  10  11
ATOM     11  C   UNL     1       6.630   4.604   2.846  1.00  0.00     0.116 A 
ATOM     12  S   UNL     1       5.766   5.283   4.173  1.00  0.00    -0.124 S 
ATOM     13  C   UNL     1       6.770   6.665   4.110  1.00  0.00     0.101 A 
ATOM     14  N   UNL     1       7.605   5.356   2.362  1.00  0.00    -0.234 NA
ATOM     15  C   UNL     1       7.702   6.539   3.098  1.00  0.00     0.139 A 
BRANCH  15  16
ATOM     16  C   UNL     1       8.725   7.546   2.805  1.00  0.00     0.271 C 
ATOM     17  O   UNL     1       9.016   8.445   3.587  1.00  0.00    -0.267 OA
ATOM     18  N   UNL     1       9.323   7.381   1.573  1.00  0.00    -0.339 N 
ATOM     19  H   UNL     1       8.916   6.668   0.974  1.00  0.00     0.164 HD
BRANCH  18  20
ATOM     20  C   UNL     1      10.315   8.329   1.084  1.00  0.00     0.168 CG0
ATOM     21  C   UNL     1      11.736   7.867   1.415  1.00  0.00     0.041 C 
ATOM     22  G   UNL     1      10.233   8.543  -0.436  1.00  0.00     0.000 G0
ENDBRANCH  18  20
ENDBRANCH  15  16
ENDBRANCH  10  11
BRANCH  10  23
ATOM     23  C   UNL     1       4.723   2.974   2.363  1.00  0.00     0.015 C 
ATOM     24  C   UNL     1       4.085   2.913   0.965  1.00  0.00     0.010 C 
BRANCH  23  25
ATOM     25  C   UNL     1       4.343   1.692   3.137  1.00  0.00     0.002 C 
ATOM     26  C   UNL     1       4.801   0.405   2.466  1.00  0.00     0.004 C 
ENDBRANCH  23  25
ENDBRANCH  10  23
ENDBRANCH   7  10
ENDBRANCH   4   6
BRANCH   3  27
ATOM     27  C   UNL     1      10.707   3.963  -3.239  1.00  0.00     0.171 C 
BRANCH  27  28
ATOM     28  N   UNL     1      11.062   5.310  -2.805  1.00  0.00    -0.342 N 
ATOM     29  C   UNL     1      10.510   6.443  -3.361  1.00  0.00     0.245 C 
ATOM     30  O   UNL     1       9.666   6.403  -4.254  1.00  0.00    -0.273 OA
ATOM     31  H   UNL     1      11.668   5.420  -1.993  1.00  0.00     0.164 HD
BRANCH  29  32
ATOM     32  C   UNL     1      10.911   7.771  -2.685  1.00  0.00     0.200 C 
BRANCH  32  33
ATOM     33  N   UNL     1      10.818   7.594  -1.230  1.00  0.00    -0.340 N 
ATOM     34  C   UNL     1      10.210   8.540  -0.431  1.00  0.00     0.243 CG0
ATOM     35  O   UNL     1       9.778   9.597  -0.889  1.00  0.00    -0.273 OA
ATOM     36  H   UNL     1      11.193   6.747  -0.820  1.00  0.00     0.164 HD
ATOM     37  G   UNL     1      10.305   8.294   1.083  1.00  0.00     0.000 G0
ENDBRANCH  32  33
BRANCH  32  38
ATOM     38  C   UNL     1      12.310   8.242  -3.147  1.00  0.00     0.143 C 
ATOM     39  C   UNL     1      13.418   7.992  -2.130  1.00  0.00     0.041 C 
BRANCH  38  40
ATOM     40  O   UNL     1      12.661   7.599  -4.388  1.00  0.00    -0.391 OA
ATOM     41  H   UNL     1      13.551   7.218  -4.263  1.00  0.00     0.211 HD
ENDBRANCH  38  40
ENDBRANCH  32  38
ENDBRANCH  29  32
ENDBRANCH  27  28
BRANCH  27  42
ATOM     42  C   UNL     1      11.963   3.079  -3.436  1.00  0.00     0.015 C 
ATOM     43  C   UNL     1      11.895   1.684  -2.805  1.00  0.00     0.010 C 
ATOM     44  C   UNL     1      12.365   2.976  -4.911  1.00  0.00     0.010 C 
ENDBRANCH  27  42
ENDBRANCH   3  27
TORSDOF 5
ENDMDL
MODEL 5
REMARK VINA RESULT:    -4.869     12.747     16.331
REMARK INTER + INTRA:         -10.831
REMARK INTER:                  -8.651
REMARK INTRA:                  -2.181
REMARK UNBOUND:                -2.120
REMARK SMILES CC[C@H](C)[C@H]1NC(=O)c2coc(n2)[C@H](C(C)C)NC(=O)[C@H]([C@@H](C)O)NC(=O)[C@H](C)NC(=O)c2csc1n2
REMARK SMILES IDX 11 1 13 2 12 3 9 4 10 5 7 6 6 7 8 8 5 10 36 11 35 12 34 13
REMARK SMILES IDX 37 14 33 15 31 16 32 17 30 18 28 20 29 21 3 23 4 24 2 25
REMARK SMILES IDX 1 26 14 27 18 28 19 29 20 30 21 32 25 33 26 34 27 35 22 38
REMARK SMILES IDX 23 39 24 40 15 42 16 43 17 44
REMARK H PARENT 6 9 30 19 18 31 25 36 24 41
REMARK Flexibility Score:   94.900
ROOT
ATOM      1  O   UNL     1      -1.458  -3.659   5.887  1.00  0.00    -0.446 OA
ATOM      2  N   UNL     1      -2.690  -5.535   6.093  1.00  0.00    -0.207 NA
ATOM      3  C   UNL     1      -1.579  -4.997   5.622  1.00  0.00     0.217 A 
ATOM      4  C   UNL     1      -3.330  -4.488   6.732  1.00  0.00     0.167 A 
ATOM      5  C   UNL     1      -2.574  -3.348   6.604  1.00  0.00     0.231 A 
ENDROOT
BRANCH   4   6
ATOM      6  C   UNL     1      -4.617  -4.628   7.391  1.00  0.00     0.273 C 
ATOM      7  N   UNL     1      -4.783  -5.881   7.924  1.00  0.00    -0.341 N 
ATOM      8  O   UNL     1      -5.455  -3.735   7.437  1.00  0.00    -0.267 OA
ATOM      9  H   UNL     1      -4.041  -6.546   7.727  1.00  0.00     0.164 HD
BRANCH   7  10
ATOM     10  C   UNL     1      -6.057  -6.370   8.415  1.00  0.00     0.145 C 
BRANCH  10  11
ATOM     11  C   UNL     1      -6.178  -7.830   8.005  1.00  0.00     0.116 A 
ATOM     12  S   UNL     1      -7.661  -8.670   8.262  1.00  0.00    -0.124 S 
ATOM     13  C   UNL     1      -6.985 -10.068   7.548  1.00  0.00     0.101 A 
ATOM     14  N   UNL     1      -5.218  -8.540   7.435  1.00  0.00    -0.234 NA
ATOM     15  C   UNL     1      -5.683  -9.827   7.153  1.00  0.00     0.139 A 
BRANCH  15  16
ATOM     16  C   UNL     1      -4.840 -10.821   6.484  1.00  0.00     0.271 C 
ATOM     17  O   UNL     1      -4.088 -11.573   7.093  1.00  0.00    -0.267 OA
ATOM     18  N   UNL     1      -4.979 -10.825   5.112  1.00  0.00    -0.339 N 
ATOM     19  H   UNL     1      -5.549 -10.081   4.720  1.00  0.00     0.164 HD
BRANCH  18  20
ATOM     20  C   UNL     1      -4.169 -11.701   4.275  1.00  0.00     0.168 CG0
ATOM     21  C   UNL     1      -5.020 -12.393   3.208  1.00  0.00     0.041 C 
ATOM     22  G   UNL     1      -3.033 -10.954   3.559  1.00  0.00     0.000 G0
ENDBRANCH  18  20
ENDBRANCH  15  16
ENDBRANCH  10  11
BRANCH  10  23
ATOM     23  C   UNL     1      -6.210  -6.171   9.947  1.00  0.00     0.015 C 
ATOM     24  C   UNL     1      -4.893  -5.792  10.646  1.00  0.00     0.010 C 
BRANCH  23  25
ATOM     25  C   UNL     1      -7.283  -5.120  10.309  1.00  0.00     0.002 C 
ATOM     26  C   UNL     1      -8.435  -5.044   9.316  1.00  0.00     0.004 C 
ENDBRANCH  23  25
ENDBRANCH  10  23
ENDBRANCH   7  10
ENDBRANCH   4   6
BRANCH   3  27
ATOM     27  C   UNL     1      -0.512  -5.682   4.813  1.00  0.00     0.171 C 
BRANCH  27  28
ATOM     28  N   UNL     1      -1.173  -6.581   3.873  1.00  0.00    -0.342 N 
ATOM     29  C   UNL     1      -1.219  -7.946   4.051  1.00  0.00     0.245 C 
ATOM     30  O   UNL     1      -0.719  -8.507   5.024  1.00  0.00    -0.273 OA
ATOM     31  H   UNL     1      -1.708  -6.179   3.104  1.00  0.00     0.164 HD
BRANCH  29  32
ATOM     32  C   UNL     1      -2.072  -8.717   3.022  1.00  0.00     0.200 C 
BRANCH  32  33
ATOM     33  N   UNL     1      -3.004  -9.584   3.753  1.00  0.00    -0.340 N 
ATOM     34  C   UNL     1      -3.033 -10.946   3.538  1.00  0.00     0.243 CG0
ATOM     35  O   UNL     1      -2.330 -11.484   2.685  1.00  0.00    -0.273 OA
ATOM     36  H   UNL     1      -3.618  -9.165   4.442  1.00  0.00     0.164 HD
ATOM     37  G   UNL     1      -4.148 -11.713   4.268  1.00  0.00     0.000 G0
ENDBRANCH  32  33
BRANCH  32  38
ATOM     38  C   UNL     1      -2.785  -7.754   2.044  1.00  0.00     0.143 C 
ATOM     39  C   UNL     1      -2.339  -7.897   0.593  1.00  0.00     0.041 C 
BRANCH  38  40
ATOM     40  O   UNL     1      -4.211  -7.947   2.115  1.00  0.00    -0.391 OA
ATOM     41  H   UNL     1      -4.621  -7.128   1.779  1.00  0.00     0.211 HD
ENDBRANCH  38  40
ENDBRANCH  32  38
ENDBRANCH  29  32
ENDBRANCH  27  28
BRANCH  27  42
ATOM     42  C   UNL     1       0.531  -4.784   4.104  1.00  0.00     0.015 C 
ATOM     43  C   UNL     1       1.825  -5.487   3.675  1.00  0.00     0.010 C 
ATOM     44  C   UNL     1      -0.077  -4.022   2.922  1.00  0.00     0.010 C 
ENDBRANCH  27  42
ENDBRANCH   3  27
TORSDOF 5
ENDMDL
MODEL 6
REMARK VINA RESULT:    -4.853      4.905      8.278
REMARK INTER + INTRA:         -10.804
REMARK INTER:                  -8.330
REMARK INTRA:                  -2.474
REMARK UNBOUND:                -2.120
REMARK SMILES CC[C@H](C)[C@H]1NC(=O)c2coc(n2)[C@H](C(C)C)NC(=O)[C@H]([C@@H](C)O)NC(=O)[C@H](C)NC(=O)c2csc1n2
REMARK SMILES IDX 11 1 13 2 12 3 9 4 10 5 7 6 6 7 8 8 5 10 36 11 35 12 34 13
REMARK SMILES IDX 37 14 33 15 31 16 32 17 30 18 28 20 29 21 3 23 4 24 2 25
REMARK SMILES IDX 1 26 14 27 18 28 19 29 20 30 21 32 25 33 26 34 27 35 22 38
REMARK SMILES IDX 23 39 24 40 15 42 16 43 17 44
REMARK H PARENT 6 9 30 19 18 31 25 36 24 41
REMARK Flexibility Score:   94.900
ROOT
ATOM      1  O   UNL     1       7.173   3.828  -0.848  1.00  0.00    -0.446 OA
ATOM      2  N   UNL     1       6.392   1.841  -1.572  1.00  0.00    -0.207 NA
ATOM      3  C   UNL     1       6.134   3.125  -1.396  1.00  0.00     0.217 A 
ATOM      4  C   UNL     1       7.698   1.695  -1.135  1.00  0.00     0.167 A 
ATOM      5  C   UNL     1       8.168   2.909  -0.696  1.00  0.00     0.231 A 
ENDROOT
BRANCH   4   6
ATOM      6  C   UNL     1       8.397   0.422  -1.136  1.00  0.00     0.273 C 
ATOM      7  N   UNL     1       7.581  -0.607  -1.533  1.00  0.00    -0.341 N 
ATOM      8  O   UNL     1       9.566   0.291  -0.796  1.00  0.00    -0.267 OA
ATOM      9  H   UNL     1       6.609  -0.361  -1.695  1.00  0.00     0.164 HD
BRANCH   7  10
ATOM     10  C   UNL     1       7.942  -2.004  -1.390  1.00  0.00     0.145 C 
BRANCH  10  11
ATOM     11  C   UNL     1       7.199  -2.550  -0.180  1.00  0.00     0.116 A 
ATOM     12  S   UNL     1       7.916  -3.795   0.773  1.00  0.00    -0.124 S 
ATOM     13  C   UNL     1       6.564  -3.762   1.818  1.00  0.00     0.101 A 
ATOM     14  N   UNL     1       6.014  -2.132   0.235  1.00  0.00    -0.234 NA
ATOM     15  C   UNL     1       5.650  -2.816   1.397  1.00  0.00     0.139 A 
BRANCH  15  16
ATOM     16  C   UNL     1       4.397  -2.528   2.099  1.00  0.00     0.271 C 
ATOM     17  O   UNL     1       3.743  -3.391   2.673  1.00  0.00    -0.267 OA
ATOM     18  N   UNL     1       4.032  -1.199   2.050  1.00  0.00    -0.339 N 
ATOM     19  H   UNL     1       4.598  -0.604   1.451  1.00  0.00     0.164 HD
BRANCH  18  20
ATOM     20  C   UNL     1       2.780  -0.739   2.636  1.00  0.00     0.168 CG0
ATOM     21  C   UNL     1       3.012  -0.074   3.994  1.00  0.00     0.041 C 
ATOM     22  G   UNL     1       2.040   0.268   1.740  1.00  0.00     0.000 G0
ENDBRANCH  18  20
ENDBRANCH  15  16
ENDBRANCH  10  11
BRANCH  10  23
ATOM     23  C   UNL     1       7.652  -2.819  -2.679  1.00  0.00     0.015 C 
ATOM     24  C   UNL     1       7.003  -1.983  -3.794  1.00  0.00     0.010 C 
BRANCH  23  25
ATOM     25  C   UNL     1       8.914  -3.507  -3.247  1.00  0.00     0.002 C 
ATOM     26  C   UNL     1      10.220  -2.841  -2.838  1.00  0.00     0.004 C 
ENDBRANCH  23  25
ENDBRANCH  10  23
ENDBRANCH   7  10
ENDBRANCH   4   6
BRANCH   3  27
ATOM     27  C   UNL     1       4.839   3.836  -1.680  1.00  0.00     0.171 C 
BRANCH  27  28
ATOM     28  N   UNL     1       3.946   3.608  -0.549  1.00  0.00    -0.342 N 
ATOM     29  C   UNL     1       2.874   2.745  -0.607  1.00  0.00     0.245 C 
ATOM     30  O   UNL     1       2.599   2.092  -1.612  1.00  0.00    -0.273 OA
ATOM     31  H   UNL     1       4.178   4.026   0.351  1.00  0.00     0.164 HD
BRANCH  29  32
ATOM     32  C   UNL     1       2.123   2.537   0.725  1.00  0.00     0.200 C 
BRANCH  32  33
ATOM     33  N   UNL     1       2.755   1.421   1.440  1.00  0.00    -0.340 N 
ATOM     34  C   UNL     1       2.047   0.279   1.755  1.00  0.00     0.243 CG0
ATOM     35  O   UNL     1       0.847   0.171   1.510  1.00  0.00    -0.273 OA
ATOM     36  H   UNL     1       3.736   1.493   1.683  1.00  0.00     0.164 HD
ATOM     37  G   UNL     1       2.791  -0.749   2.622  1.00  0.00     0.000 G0
ENDBRANCH  32  33
BRANCH  32  38
ATOM     38  C   UNL     1       2.078   3.838   1.559  1.00  0.00     0.143 C 
ATOM     39  C   UNL     1       1.120   3.787   2.743  1.00  0.00     0.041 C 
BRANCH  38  40
ATOM     40  O   UNL     1       3.398   4.161   2.040  1.00  0.00    -0.391 OA
ATOM     41  H   UNL     1       3.285   4.849   2.723  1.00  0.00     0.211 HD
ENDBRANCH  38  40
ENDBRANCH  32  38
ENDBRANCH  29  32
ENDBRANCH  27  28
BRANCH  27  42
ATOM     42  C   UNL     1       4.917   5.338  -2.049  1.00  0.00     0.015 C 
ATOM     43  C   UNL     1       5.174   5.642  -3.530  1.00  0.00     0.010 C 
ATOM     44  C   UNL     1       3.694   6.115  -1.552  1.00  0.00     0.010 C 
ENDBRANCH  27  42
ENDBRANCH   3  27
TORSDOF 5
ENDMDL
MODEL 7
REMARK VINA RESULT:    -4.633      5.979      9.617
REMARK INTER + INTRA:         -10.410
REMARK INTER:                  -8.077
REMARK INTRA:                  -2.333
REMARK UNBOUND:                -2.120
REMARK SMILES CC[C@H](C)[C@H]1NC(=O)c2coc(n2)[C@H](C(C)C)NC(=O)[C@H]([C@@H](C)O)NC(=O)[C@H](C)NC(=O)c2csc1n2
REMARK SMILES IDX 11 1 13 2 12 3 9 4 10 5 7 6 6 7 8 8 5 10 36 11 35 12 34 13
REMARK SMILES IDX 37 14 33 15 31 16 32 17 30 18 28 20 29 21 3 23 4 24 2 25
REMARK SMILES IDX 1 26 14 27 18 28 19 29 20 30 21 32 25 33 26 34 27 35 22 38
REMARK SMILES IDX 23 39 24 40 15 42 16 43 17 44
REMARK H PARENT 6 9 30 19 18 31 25 36 24 41
REMARK Flexibility Score:   94.900
ROOT
ATOM      1  O   UNL     1      11.272   2.372  -2.070  1.00  0.00    -0.446 OA
ATOM      2  N   UNL     1       9.497   1.006  -1.818  1.00  0.00    -0.207 NA
ATOM      3  C   UNL     1       9.910   2.249  -1.992  1.00  0.00     0.217 A 
ATOM      4  C   UNL     1      10.662   0.259  -1.806  1.00  0.00     0.167 A 
ATOM      5  C   UNL     1      11.739   1.097  -1.961  1.00  0.00     0.231 A 
ENDROOT
BRANCH   4   6
ATOM      6  C   UNL     1      10.680  -1.181  -1.622  1.00  0.00     0.273 C 
ATOM      7  N   UNL     1       9.519  -1.766  -2.063  1.00  0.00    -0.341 N 
ATOM      8  O   UNL     1      11.612  -1.788  -1.109  1.00  0.00    -0.267 OA
ATOM      9  H   UNL     1       8.796  -1.126  -2.380  1.00  0.00     0.164 HD
BRANCH   7  10
ATOM     10  C   UNL     1       9.168  -3.143  -1.778  1.00  0.00     0.145 C 
BRANCH  10  11
ATOM     11  C   UNL     1       8.330  -3.151  -0.508  1.00  0.00     0.116 A 
ATOM     12  S   UNL     1       8.811  -4.127   0.828  1.00  0.00    -0.124 S 
ATOM     13  C   UNL     1       7.474  -3.549   1.722  1.00  0.00     0.101 A 
ATOM     14  N   UNL     1       7.230  -2.439  -0.321  1.00  0.00    -0.234 NA
ATOM     15  C   UNL     1       6.741  -2.651   0.970  1.00  0.00     0.139 A 
BRANCH  15  16
ATOM     16  C   UNL     1       5.549  -1.959   1.465  1.00  0.00     0.271 C 
ATOM     17  O   UNL     1       4.500  -2.540   1.719  1.00  0.00    -0.267 OA
ATOM     18  N   UNL     1       5.726  -0.600   1.618  1.00  0.00    -0.339 N 
ATOM     19  H   UNL     1       6.604  -0.224   1.270  1.00  0.00     0.164 HD
BRANCH  18  20
ATOM     20  C   UNL     1       4.628   0.261   2.037  1.00  0.00     0.168 CG0
ATOM     21  C   UNL     1       4.510   0.310   3.562  1.00  0.00     0.041 C 
ATOM     22  G   UNL     1       4.779   1.705   1.531  1.00  0.00     0.000 G0
ENDBRANCH  18  20
ENDBRANCH  15  16
ENDBRANCH  10  11
BRANCH  10  23
ATOM     23  C   UNL     1       8.443  -3.822  -2.970  1.00  0.00     0.015 C 
ATOM     24  C   UNL     1       7.895  -2.820  -4.000  1.00  0.00     0.010 C 
BRANCH  23  25
ATOM     25  C   UNL     1       9.332  -4.850  -3.704  1.00  0.00     0.002 C 
ATOM     26  C   UNL     1      10.825  -4.632  -3.503  1.00  0.00     0.004 C 
ENDBRANCH  23  25
ENDBRANCH  10  23
ENDBRANCH   7  10
ENDBRANCH   4   6
BRANCH   3  27
ATOM     27  C   UNL     1       9.059   3.487  -2.055  1.00  0.00     0.171 C 
BRANCH  27  28
ATOM     28  N   UNL     1       8.318   3.584  -0.802  1.00  0.00    -0.342 N 
ATOM     29  C   UNL     1       6.953   3.418  -0.726  1.00  0.00     0.245 C 
ATOM     30  O   UNL     1       6.259   3.160  -1.708  1.00  0.00    -0.273 OA
ATOM     31  H   UNL     1       8.838   3.681   0.069  1.00  0.00     0.164 HD
BRANCH  29  32
ATOM     32  C   UNL     1       6.366   3.427   0.701  1.00  0.00     0.200 C 
BRANCH  32  33
ATOM     33  N   UNL     1       6.045   2.045   1.077  1.00  0.00    -0.340 N 
ATOM     34  C   UNL     1       4.788   1.698   1.526  1.00  0.00     0.243 CG0
ATOM     35  O   UNL     1       3.904   2.535   1.692  1.00  0.00    -0.273 OA
ATOM     36  H   UNL     1       6.764   1.337   0.980  1.00  0.00     0.164 HD
ATOM     37  G   UNL     1       4.631   0.249   2.014  1.00  0.00     0.000 G0
ENDBRANCH  32  33
BRANCH  32  38
ATOM     38  C   UNL     1       7.321   4.118   1.701  1.00  0.00     0.143 C 
ATOM     39  C   UNL     1       6.920   5.544   2.063  1.00  0.00     0.041 C 
BRANCH  38  40
ATOM     40  O   UNL     1       7.417   3.339   2.909  1.00  0.00    -0.391 OA
ATOM     41  H   UNL     1       6.504   3.120   3.173  1.00  0.00     0.211 HD
ENDBRANCH  38  40
ENDBRANCH  32  38
ENDBRANCH  29  32
ENDBRANCH  27  28
BRANCH  27  42
ATOM     42  C   UNL     1       9.765   4.821  -2.403  1.00  0.00     0.015 C 
ATOM     43  C   UNL     1       9.676   5.251  -3.872  1.00  0.00     0.010 C 
ATOM     44  C   UNL     1       9.314   5.963  -1.487  1.00  0.00     0.010 C 
ENDBRANCH  27  42
ENDBRANCH   3  27
TORSDOF 5
ENDMDL
MODEL 8
REMARK VINA RESULT:    -4.595      3.793      6.077
REMARK INTER + INTRA:         -10.341
REMARK INTER:                  -8.002
REMARK INTRA:                  -2.339
REMARK UNBOUND:                -2.120
REMARK SMILES CC[C@H](C)[C@H]1NC(=O)c2coc(n2)[C@H](C(C)C)NC(=O)[C@H]([C@@H](C)O)NC(=O)[C@H](C)NC(=O)c2csc1n2
REMARK SMILES IDX 11 1 13 2 12 3 9 4 10 5 7 6 6 7 8 8 5 10 36 11 35 12 34 13
REMARK SMILES IDX 37 14 33 15 31 16 32 17 30 18 28 20 29 21 3 23 4 24 2 25
REMARK SMILES IDX 1 26 14 27 18 28 19 29 20 30 21 32 25 33 26 34 27 35 22 38
REMARK SMILES IDX 23 39 24 40 15 42 16 43 17 44
REMARK H PARENT 6 9 30 19 18 31 25 36 24 41
REMARK Flexibility Score:   94.900
ROOT
ATOM      1  O   UNL     1       1.971   4.558   4.784  1.00  0.00    -0.446 OA
ATOM      2  N   UNL     1       1.884   3.683   2.708  1.00  0.00    -0.207 NA
ATOM      3  C   UNL     1       1.242   3.877   3.846  1.00  0.00     0.217 A 
ATOM      4  C   UNL     1       3.108   4.300   2.901  1.00  0.00     0.167 A 
ATOM      5  C   UNL     1       3.154   4.832   4.166  1.00  0.00     0.231 A 
ENDROOT
BRANCH   4   6
ATOM      6  C   UNL     1       4.154   4.320   1.892  1.00  0.00     0.273 C 
ATOM      7  N   UNL     1       3.647   4.147   0.629  1.00  0.00    -0.341 N 
ATOM      8  O   UNL     1       5.344   4.450   2.153  1.00  0.00    -0.267 OA
ATOM      9  H   UNL     1       2.650   3.959   0.576  1.00  0.00     0.164 HD
BRANCH   7  10
ATOM     10  C   UNL     1       4.479   3.880  -0.528  1.00  0.00     0.145 C 
BRANCH  10  11
ATOM     11  C   UNL     1       4.922   2.427  -0.451  1.00  0.00     0.116 A 
ATOM     12  S   UNL     1       6.569   2.018  -0.753  1.00  0.00    -0.124 S 
ATOM     13  C   UNL     1       6.211   0.376  -0.442  1.00  0.00     0.101 A 
ATOM     14  N   UNL     1       4.134   1.409  -0.147  1.00  0.00    -0.234 NA
ATOM     15  C   UNL     1       4.875   0.225  -0.124  1.00  0.00     0.139 A 
BRANCH  15  16
ATOM     16  C   UNL     1       4.262  -1.060   0.222  1.00  0.00     0.271 C 
ATOM     17  O   UNL     1       4.420  -2.074  -0.449  1.00  0.00    -0.267 OA
ATOM     18  N   UNL     1       3.497  -1.015   1.369  1.00  0.00    -0.339 N 
ATOM     19  H   UNL     1       3.354  -0.092   1.771  1.00  0.00     0.164 HD
BRANCH  18  20
ATOM     20  C   UNL     1       2.757  -2.182   1.829  1.00  0.00     0.168 CG0
ATOM     21  C   UNL     1       3.420  -2.813   3.055  1.00  0.00     0.041 C 
ATOM     22  G   UNL     1       1.301  -1.855   2.197  1.00  0.00     0.000 G0
ENDBRANCH  18  20
ENDBRANCH  15  16
ENDBRANCH  10  11
BRANCH  10  23
ATOM     23  C   UNL     1       3.753   4.208  -1.860  1.00  0.00     0.015 C 
ATOM     24  C   UNL     1       2.249   4.475  -1.683  1.00  0.00     0.010 C 
BRANCH  23  25
ATOM     25  C   UNL     1       4.384   5.404  -2.606  1.00  0.00     0.002 C 
ATOM     26  C   UNL     1       5.790   5.138  -3.126  1.00  0.00     0.004 C 
ENDBRANCH  23  25
ENDBRANCH  10  23
ENDBRANCH   7  10
ENDBRANCH   4   6
BRANCH   3  27
ATOM     27  C   UNL     1      -0.136   3.391   4.204  1.00  0.00     0.171 C 
BRANCH  27  28
ATOM     28  N   UNL     1      -0.073   1.940   4.350  1.00  0.00    -0.342 N 
ATOM     29  C   UNL     1      -0.399   1.072   3.332  1.00  0.00     0.245 C 
ATOM     30  O   UNL     1      -0.751   1.455   2.218  1.00  0.00    -0.273 OA
ATOM     31  H   UNL     1       0.319   1.550   5.206  1.00  0.00     0.164 HD
BRANCH  29  32
ATOM     32  C   UNL     1      -0.147  -0.421   3.632  1.00  0.00     0.200 C 
BRANCH  32  33
ATOM     33  N   UNL     1       1.165  -0.786   3.085  1.00  0.00    -0.340 N 
ATOM     34  C   UNL     1       1.305  -1.834   2.199  1.00  0.00     0.243 CG0
ATOM     35  O   UNL     1       0.355  -2.545   1.879  1.00  0.00    -0.273 OA
ATOM     36  H   UNL     1       1.973  -0.237   3.355  1.00  0.00     0.164 HD
ATOM     37  G   UNL     1       2.749  -2.193   1.814  1.00  0.00     0.000 G0
ENDBRANCH  32  33
BRANCH  32  38
ATOM     38  C   UNL     1      -0.275  -0.722   5.144  1.00  0.00     0.143 C 
ATOM     39  C   UNL     1      -1.587  -1.392   5.535  1.00  0.00     0.041 C 
BRANCH  38  40
ATOM     40  O   UNL     1       0.820  -1.553   5.575  1.00  0.00    -0.391 OA
ATOM     41  H   UNL     1       0.618  -1.829   6.489  1.00  0.00     0.211 HD
ENDBRANCH  38  40
ENDBRANCH  32  38
ENDBRANCH  29  32
ENDBRANCH  27  28
BRANCH  27  42
ATOM     42  C   UNL     1      -0.835   4.055   5.415  1.00  0.00     0.015 C 
ATOM     43  C   UNL     1      -2.274   4.526   5.171  1.00  0.00     0.010 C 
ATOM     44  C   UNL     1      -0.769   3.176   6.668  1.00  0.00     0.010 C 
ENDBRANCH  27  42
ENDBRANCH   3  27
TORSDOF 5
ENDMDL
MODEL 9
REMARK VINA RESULT:    -4.518      7.081     10.521
REMARK INTER + INTRA:         -10.203
REMARK INTER:                  -7.790
REMARK INTRA:                  -2.414
REMARK UNBOUND:                -2.120
REMARK SMILES CC[C@H](C)[C@H]1NC(=O)c2coc(n2)[C@H](C(C)C)NC(=O)[C@H]([C@@H](C)O)NC(=O)[C@H](C)NC(=O)c2csc1n2
REMARK SMILES IDX 11 1 13 2 12 3 9 4 10 5 7 6 6 7 8 8 5 10 36 11 35 12 34 13
REMARK SMILES IDX 37 14 33 15 31 16 32 17 30 18 28 20 29 21 3 23 4 24 2 25
REMARK SMILES IDX 1 26 14 27 18 28 19 29 20 30 21 32 25 33 26 34 27 35 22 38
REMARK SMILES IDX 23 39 24 40 15 42 16 43 17 44
REMARK H PARENT 6 9 30 19 18 31 25 36 24 41
REMARK Flexibility Score:   94.900
ROOT
ATOM      1  O   UNL     1      -1.114  -4.584   2.189  1.00  0.00    -0.446 OA
ATOM      2  N   UNL     1       0.268  -4.319   3.950  1.00  0.00    -0.207 NA
ATOM      3  C   UNL     1       0.085  -4.118   2.657  1.00  0.00     0.217 A 
ATOM      4  C   UNL     1      -0.900  -4.935   4.366  1.00  0.00     0.167 A 
ATOM      5  C   UNL     1      -1.737  -5.093   3.289  1.00  0.00     0.231 A 
ENDROOT
BRANCH   4   6
ATOM      6  C   UNL     1      -1.130  -5.355   5.737  1.00  0.00     0.273 C 
ATOM      7  N   UNL     1      -2.106  -4.604   6.343  1.00  0.00    -0.341 N 
ATOM      8  O   UNL     1      -0.506  -6.256   6.284  1.00  0.00    -0.267 OA
ATOM      9  H   UNL     1      -2.471  -3.831   5.795  1.00  0.00     0.164 HD
BRANCH   7  10
ATOM     10  C   UNL     1      -2.363  -4.642   7.769  1.00  0.00     0.145 C 
BRANCH  10  11
ATOM     11  C   UNL     1      -1.496  -3.574   8.421  1.00  0.00     0.116 A 
ATOM     12  S   UNL     1      -1.078  -3.712  10.087  1.00  0.00    -0.124 S 
ATOM     13  C   UNL     1      -0.164  -2.273   9.970  1.00  0.00     0.101 A 
ATOM     14  N   UNL     1      -1.004  -2.514   7.801  1.00  0.00    -0.234 NA
ATOM     15  C   UNL     1      -0.220  -1.768   8.684  1.00  0.00     0.139 A 
BRANCH  15  16
ATOM     16  C   UNL     1       0.483  -0.557   8.255  1.00  0.00     0.271 C 
ATOM     17  O   UNL     1       0.802   0.337   9.032  1.00  0.00    -0.267 OA
ATOM     18  N   UNL     1       0.749  -0.525   6.903  1.00  0.00    -0.339 N 
ATOM     19  H   UNL     1       0.335  -1.272   6.350  1.00  0.00     0.164 HD
BRANCH  18  20
ATOM     20  C   UNL     1       1.381   0.633   6.286  1.00  0.00     0.168 CG0
ATOM     21  C   UNL     1       2.895   0.446   6.172  1.00  0.00     0.041 C 
ATOM     22  G   UNL     1       0.837   0.928   4.878  1.00  0.00     0.000 G0
ENDBRANCH  18  20
ENDBRANCH  15  16
ENDBRANCH  10  11
BRANCH  10  23
ATOM     23  C   UNL     1      -3.868  -4.465   8.099  1.00  0.00     0.015 C 
ATOM     24  C   UNL     1      -4.436  -3.109   7.645  1.00  0.00     0.010 C 
BRANCH  23  25
ATOM     25  C   UNL     1      -4.746  -5.591   7.508  1.00  0.00     0.002 C 
ATOM     26  C   UNL     1      -5.358  -6.511   8.556  1.00  0.00     0.004 C 
ENDBRANCH  23  25
ENDBRANCH  10  23
ENDBRANCH   7  10
ENDBRANCH   4   6
BRANCH   3  27
ATOM     27  C   UNL     1       1.057  -3.500   1.690  1.00  0.00     0.171 C 
BRANCH  27  28
ATOM     28  N   UNL     1       1.301  -2.127   2.117  1.00  0.00    -0.342 N 
ATOM     29  C   UNL     1       0.431  -1.094   1.846  1.00  0.00     0.245 C 
ATOM     30  O   UNL     1      -0.625  -1.257   1.237  1.00  0.00    -0.273 OA
ATOM     31  H   UNL     1       2.097  -1.936   2.725  1.00  0.00     0.164 HD
BRANCH  29  32
ATOM     32  C   UNL     1       0.794   0.260   2.490  1.00  0.00     0.200 C 
BRANCH  32  33
ATOM     33  N   UNL     1       1.149   0.023   3.895  1.00  0.00    -0.340 N 
ATOM     34  C   UNL     1       0.839   0.940   4.877  1.00  0.00     0.243 CG0
ATOM     35  O   UNL     1       0.312   2.020   4.615  1.00  0.00    -0.273 OA
ATOM     36  H   UNL     1       1.612  -0.845   4.138  1.00  0.00     0.164 HD
ATOM     37  G   UNL     1       1.390   0.629   6.278  1.00  0.00     0.000 G0
ENDBRANCH  32  33
BRANCH  32  38
ATOM     38  C   UNL     1       1.910   0.981   1.700  1.00  0.00     0.143 C 
ATOM     39  C   UNL     1       3.310   0.766   2.263  1.00  0.00     0.041 C 
BRANCH  38  40
ATOM     40  O   UNL     1       1.891   0.558   0.322  1.00  0.00    -0.391 OA
ATOM     41  H   UNL     1       1.138   1.014  -0.099  1.00  0.00     0.211 HD
ENDBRANCH  38  40
ENDBRANCH  32  38
ENDBRANCH  29  32
ENDBRANCH  27  28
BRANCH  27  42
ATOM     42  C   UNL     1       2.381  -4.258   1.427  1.00  0.00     0.015 C 
ATOM     43  C   UNL     1       2.233  -5.654   0.811  1.00  0.00     0.010 C 
ATOM     44  C   UNL     1       3.369  -3.419   0.609  1.00  0.00     0.010 C 
ENDBRANCH  27  42
ENDBRANCH   3  27
TORSDOF 5
ENDMDL
MODEL 10
REMARK VINA RESULT:    -4.349      7.799      9.851
REMARK INTER + INTRA:          -9.901
REMARK INTER:                  -7.750
REMARK INTRA:                  -2.151
REMARK UNBOUND:                -2.120
REMARK SMILES CC[C@H](C)[C@H]1NC(=O)c2coc(n2)[C@H](C(C)C)NC(=O)[C@H]([C@@H](C)O)NC(=O)[C@H](C)NC(=O)c2csc1n2
REMARK SMILES IDX 11 1 13 2 12 3 9 4 10 5 7 6 6 7 8 8 5 10 36 11 35 12 34 13
REMARK SMILES IDX 37 14 33 15 31 16 32 17 30 18 28 20 29 21 3 23 4 24 2 25
REMARK SMILES IDX 1 26 14 27 18 28 19 29 20 30 21 32 25 33 26 34 27 35 22 38
REMARK SMILES IDX 23 39 24 40 15 42 16 43 17 44
REMARK H PARENT 6 9 30 19 18 31 25 36 24 41
REMARK Flexibility Score:   94.900
ROOT
ATOM      1  O   UNL     1      -3.639  -3.914   8.055  1.00  0.00    -0.446 OA
ATOM      2  N   UNL     1      -2.227  -3.613   6.324  1.00  0.00    -0.207 NA
ATOM      3  C   UNL     1      -2.862  -3.047   7.335  1.00  0.00     0.217 A 
ATOM      4  C   UNL     1      -2.589  -4.946   6.400  1.00  0.00     0.167 A 
ATOM      5  C   UNL     1      -3.449  -5.123   7.456  1.00  0.00     0.231 A 
ENDROOT
BRANCH   4   6
ATOM      6  C   UNL     1      -2.125  -5.950   5.458  1.00  0.00     0.273 C 
ATOM      7  N   UNL     1      -0.886  -6.433   5.797  1.00  0.00    -0.341 N 
ATOM      8  O   UNL     1      -2.759  -6.296   4.469  1.00  0.00    -0.267 OA
ATOM      9  H   UNL     1      -0.441  -5.985   6.593  1.00  0.00     0.164 HD
BRANCH   7  10
ATOM     10  C   UNL     1      -0.085  -7.252   4.909  1.00  0.00     0.145 C 
BRANCH  10  11
ATOM     11  C   UNL     1       0.287  -6.398   3.706  1.00  0.00     0.116 A 
ATOM     12  S   UNL     1       0.333  -7.107   2.136  1.00  0.00    -0.124 S 
ATOM     13  C   UNL     1       0.750  -5.588   1.471  1.00  0.00     0.101 A 
ATOM     14  N   UNL     1       0.578  -5.108   3.753  1.00  0.00    -0.234 NA
ATOM     15  C   UNL     1       0.829  -4.631   2.464  1.00  0.00     0.139 A 
BRANCH  15  16
ATOM     16  C   UNL     1       1.141  -3.222   2.212  1.00  0.00     0.271 C 
ATOM     17  O   UNL     1       1.827  -2.852   1.266  1.00  0.00    -0.267 OA
ATOM     18  N   UNL     1       0.589  -2.362   3.138  1.00  0.00    -0.339 N 
ATOM     19  H   UNL     1       0.135  -2.799   3.936  1.00  0.00     0.164 HD
BRANCH  18  20
ATOM     20  C   UNL     1       0.848  -0.930   3.085  1.00  0.00     0.168 CG0
ATOM     21  C   UNL     1      -0.357  -0.166   2.533  1.00  0.00     0.041 C 
ATOM     22  G   UNL     1       1.190  -0.337   4.462  1.00  0.00     0.000 G0
ENDBRANCH  18  20
ENDBRANCH  15  16
ENDBRANCH  10  11
BRANCH  10  23
ATOM     23  C   UNL     1       1.159  -7.846   5.622  1.00  0.00     0.015 C 
ATOM     24  C   UNL     1       1.379  -7.279   7.034  1.00  0.00     0.010 C 
BRANCH  23  25
ATOM     25  C   UNL     1       1.120  -9.388   5.708  1.00  0.00     0.002 C 
ATOM     26  C   UNL     1      -0.241  -9.952   6.094  1.00  0.00     0.004 C 
ENDBRANCH  23  25
ENDBRANCH  10  23
ENDBRANCH   7  10
ENDBRANCH   4   6
BRANCH   3  27
ATOM     27  C   UNL     1      -2.849  -1.591   7.712  1.00  0.00     0.171 C 
BRANCH  27  28
ATOM     28  N   UNL     1      -1.774  -0.946   6.967  1.00  0.00    -0.342 N 
ATOM     29  C   UNL     1      -0.898  -0.052   7.541  1.00  0.00     0.245 C 
ATOM     30  O   UNL     1      -0.947   0.257   8.731  1.00  0.00    -0.273 OA
ATOM     31  H   UNL     1      -1.599  -1.238   6.006  1.00  0.00     0.164 HD
BRANCH  29  32
ATOM     32  C   UNL     1       0.251   0.426   6.628  1.00  0.00     0.200 C 
BRANCH  32  33
ATOM     33  N   UNL     1       0.114  -0.242   5.328  1.00  0.00    -0.340 N 
ATOM     34  C   UNL     1       1.184  -0.353   4.464  1.00  0.00     0.243 CG0
ATOM     35  O   UNL     1       2.275   0.156   4.713  1.00  0.00    -0.273 OA
ATOM     36  H   UNL     1      -0.782  -0.645   5.081  1.00  0.00     0.164 HD
ATOM     37  G   UNL     1       0.867  -0.952   3.084  1.00  0.00     0.000 G0
ENDBRANCH  32  33
BRANCH  32  38
ATOM     38  C   UNL     1       0.277   1.968   6.513  1.00  0.00     0.143 C 
ATOM     39  C   UNL     1      -0.998   2.571   5.935  1.00  0.00     0.041 C 
BRANCH  38  40
ATOM     40  O   UNL     1       0.527   2.554   7.805  1.00  0.00    -0.391 OA
ATOM     41  H   UNL     1      -0.321   2.536   8.289  1.00  0.00     0.211 HD
ENDBRANCH  38  40
ENDBRANCH  32  38
ENDBRANCH  29  32
ENDBRANCH  27  28
BRANCH  27  42
ATOM     42  C   UNL     1      -4.179  -0.809   7.584  1.00  0.00     0.015 C 
ATOM     43  C   UNL     1      -5.133  -1.301   6.489  1.00  0.00     0.010 C 
ATOM     44  C   UNL     1      -4.916  -0.709   8.924  1.00  0.00     0.010 C 
ENDBRANCH  27  42
ENDBRANCH   3  27
TORSDOF 5
ENDMDL
