MODEL 1
REMARK VINA RESULT:    -7.687      0.000      0.000
REMARK INTER + INTRA:         -24.676
REMARK INTER:                 -19.147
REMARK INTRA:                  -5.529
REMARK UNBOUND:                -5.529
REMARK SMILES CCCCCCC[C@H](N)[C@H](O)C(=O)N[C@H](C)C(=O)N(C)[C@H](CC(C)C)C(=O)N[C@@H](Cc1ccc(O)cc1)C(=O)N[C@@H](Cc1ccc(O)cc1)C(=O)O
REMARK SMILES IDX 18 1 17 2 15 3 16 4 14 5 12 6 13 7 10 9 11 10 8 12 9 13 7 16
REMARK SMILES IDX 6 17 5 18 4 19 3 20 2 21 1 22 19 23 20 24 21 25 22 26 23 27
REMARK SMILES IDX 24 28 25 29 26 30 27 31 28 32 29 34 30 35 31 36 32 37 37 38
REMARK SMILES IDX 33 39 36 40 34 41 35 42 38 44 39 45 40 46 41 48 42 49 43 50
REMARK SMILES IDX 44 51 49 52 45 53 48 54 46 55 47 56 50 58 51 59 52 60
REMARK H PARENT 14 8 11 11 9 14 9 15 28 33 35 43 40 47 47 57 52 61
ROOT
ATOM      1  O   UNL     1       9.133  -4.184  -0.953  1.00  0.00    -0.272 OA
ATOM      2  C   UNL     1       9.719  -4.419   0.115  1.00  0.00     0.245 C 
ENDROOT
BRANCH   2   3
ATOM      3  C   UNL     1      11.050  -3.682   0.407  1.00  0.00     0.168 C 
ATOM      4  C   UNL     1      12.170  -4.215  -0.480  1.00  0.00     0.041 C 
BRANCH   3   5
ATOM      5  N   UNL     1      10.967  -2.230   0.363  1.00  0.00    -0.342 N 
ATOM      6  C   UNL     1      11.133  -1.457   1.492  1.00  0.00     0.251 C 
ATOM      7  O   UNL     1      11.317  -1.925   2.611  1.00  0.00    -0.272 OA
ATOM      8  H   UNL     1      10.784  -1.730  -0.504  1.00  0.00     0.164 HD
BRANCH   6   9
ATOM      9  C   UNL     1      11.147   0.049   1.184  1.00  0.00     0.219 C 
BRANCH   9  10
ATOM     10  O   UNL     1      10.665   0.349  -0.131  1.00  0.00    -0.382 OA
ATOM     11  H   UNL     1      10.793  -0.493  -0.621  1.00  0.00     0.211 HD
ENDBRANCH   9  10
BRANCH   9  12
ATOM     12  C   UNL     1      10.402   0.895   2.250  1.00  0.00     0.089 C 
BRANCH  12  13
ATOM     13  N   UNL     1       9.240   0.117   2.736  1.00  0.00    -0.325 NA
ATOM     14  H   UNL     1       8.737  -0.271   1.936  1.00  0.00     0.119 HD
ATOM     15  H   UNL     1       8.578   0.755   3.184  1.00  0.00     0.119 HD
ENDBRANCH  12  13
BRANCH  12  16
ATOM     16  C   UNL     1      11.255   1.382   3.446  1.00  0.00     0.022 C 
BRANCH  16  17
ATOM     17  C   UNL     1      11.766   2.829   3.460  1.00  0.00     0.002 C 
BRANCH  17  18
ATOM     18  C   UNL     1      10.692   3.890   3.688  1.00  0.00     0.000 C 
BRANCH  18  19
ATOM     19  C   UNL     1      10.341   4.115   5.165  1.00  0.00    -0.000 C 
BRANCH  19  20
ATOM     20  C   UNL     1       8.989   3.546   5.605  1.00  0.00    -0.000 C 
BRANCH  20  21
ATOM     21  C   UNL     1       9.109   2.200   6.324  1.00  0.00    -0.003 C 
ATOM     22  C   UNL     1       8.011   1.241   5.893  1.00  0.00     0.004 C 
ENDBRANCH  20  21
ENDBRANCH  19  20
ENDBRANCH  18  19
ENDBRANCH  17  18
ENDBRANCH  16  17
ENDBRANCH  12  16
ENDBRANCH   9  12
ENDBRANCH   6   9
ENDBRANCH   3   5
ENDBRANCH   2   3
BRANCH   2  23
ATOM     23  N   UNL     1       9.122  -5.233   1.071  1.00  0.00    -0.332 N 
ATOM     24  C   UNL     1       8.766  -4.803   2.415  1.00  0.00     0.147 C 
BRANCH  23  25
ATOM     25  C   UNL     1       8.681  -6.610   0.717  1.00  0.00     0.174 C 
BRANCH  25  26
ATOM     26  C   UNL     1       9.833  -7.491   0.179  1.00  0.00     0.038 C 
BRANCH  26  27
ATOM     27  C   UNL     1      10.063  -8.848   0.881  1.00  0.00    -0.015 C 
ATOM     28  C   UNL     1      10.273  -8.698   2.388  1.00  0.00     0.007 C 
ATOM     29  C   UNL     1       8.972  -9.875   0.590  1.00  0.00     0.007 C 
ENDBRANCH  26  27
ENDBRANCH  25  26
BRANCH  25  30
ATOM     30  C   UNL     1       7.454  -6.551  -0.222  1.00  0.00     0.243 C 
ATOM     31  O   UNL     1       7.271  -7.386  -1.106  1.00  0.00    -0.273 OA
ATOM     32  N   UNL     1       6.592  -5.506  -0.006  1.00  0.00    -0.342 N 
ATOM     33  H   UNL     1       6.735  -4.939   0.834  1.00  0.00     0.164 HD
BRANCH  32  34
ATOM     34  C   UNL     1       5.392  -5.277  -0.815  1.00  0.00     0.175 C 
BRANCH  34  35
ATOM     35  C   UNL     1       4.114  -5.428   0.024  1.00  0.00     0.070 C 
BRANCH  35  36
ATOM     36  C   UNL     1       4.006  -4.388   1.116  1.00  0.00    -0.045 A 
ATOM     37  C   UNL     1       4.843  -4.460   2.240  1.00  0.00     0.007 A 
ATOM     38  C   UNL     1       3.059  -3.358   1.037  1.00  0.00     0.007 A 
ATOM     39  C   UNL     1       4.741  -3.513   3.259  1.00  0.00     0.046 A 
ATOM     40  C   UNL     1       2.955  -2.410   2.058  1.00  0.00     0.046 A 
ATOM     41  C   UNL     1       3.799  -2.496   3.160  1.00  0.00     0.115 A 
BRANCH  41  42
ATOM     42  O   UNL     1       3.730  -1.593   4.179  1.00  0.00    -0.508 OA
ATOM     43  H   UNL     1       4.157  -1.982   4.961  1.00  0.00     0.293 HD
ENDBRANCH  41  42
ENDBRANCH  35  36
ENDBRANCH  34  35
BRANCH  34  44
ATOM     44  C   UNL     1       5.504  -3.872  -1.449  1.00  0.00     0.243 C 
ATOM     45  O   UNL     1       4.915  -3.521  -2.468  1.00  0.00    -0.273 OA
ATOM     46  N   UNL     1       6.440  -3.066  -0.836  1.00  0.00    -0.341 N 
ATOM     47  H   UNL     1       6.987  -3.443  -0.066  1.00  0.00     0.164 HD
BRANCH  46  48
ATOM     48  C   UNL     1       6.770  -1.717  -1.300  1.00  0.00     0.196 C 
BRANCH  48  49
ATOM     49  C   UNL     1       7.060  -0.773  -0.121  1.00  0.00     0.072 C 
BRANCH  49  50
ATOM     50  C   UNL     1       5.823  -0.049   0.361  1.00  0.00    -0.045 A 
ATOM     51  C   UNL     1       5.766   0.437   1.676  1.00  0.00     0.007 A 
ATOM     52  C   UNL     1       4.718   0.130  -0.480  1.00  0.00     0.007 A 
ATOM     53  C   UNL     1       4.626   1.096   2.136  1.00  0.00     0.046 A 
ATOM     54  C   UNL     1       3.576   0.788  -0.019  1.00  0.00     0.046 A 
ATOM     55  C   UNL     1       3.540   1.267   1.286  1.00  0.00     0.115 A 
BRANCH  55  56
ATOM     56  O   UNL     1       2.444   1.915   1.775  1.00  0.00    -0.508 OA
ATOM     57  H   UNL     1       1.758   1.915   1.089  1.00  0.00     0.293 HD
ENDBRANCH  55  56
ENDBRANCH  49  50
ENDBRANCH  48  49
BRANCH  48  58
ATOM     58  C   UNL     1       8.001  -1.791  -2.215  1.00  0.00     0.326 C 
ATOM     59  O   UNL     1       9.063  -1.207  -2.073  1.00  0.00    -0.250 OA
BRANCH  58  60
ATOM     60  O   UNL     1       7.839  -2.623  -3.274  1.00  0.00    -0.480 OA
ATOM     61  H   UNL     1       7.760  -2.008  -4.035  1.00  0.00     0.296 HD
ENDBRANCH  58  60
ENDBRANCH  48  58
ENDBRANCH  46  48
ENDBRANCH  34  44
ENDBRANCH  32  34
ENDBRANCH  25  30
ENDBRANCH  23  25
ENDBRANCH   2  23
TORSDOF 28
ENDMDL
MODEL 2
REMARK VINA RESULT:    -7.679      4.168      9.553
REMARK INTER + INTRA:         -24.654
REMARK INTER:                 -21.170
REMARK INTRA:                  -3.485
REMARK UNBOUND:                -5.529
REMARK SMILES CCCCCCC[C@H](N)[C@H](O)C(=O)N[C@H](C)C(=O)N(C)[C@H](CC(C)C)C(=O)N[C@@H](Cc1ccc(O)cc1)C(=O)N[C@@H](Cc1ccc(O)cc1)C(=O)O
REMARK SMILES IDX 18 1 17 2 15 3 16 4 14 5 12 6 13 7 10 9 11 10 8 12 9 13 7 16
REMARK SMILES IDX 6 17 5 18 4 19 3 20 2 21 1 22 19 23 20 24 21 25 22 26 23 27
REMARK SMILES IDX 24 28 25 29 26 30 27 31 28 32 29 34 30 35 31 36 32 37 37 38
REMARK SMILES IDX 33 39 36 40 34 41 35 42 38 44 39 45 40 46 41 48 42 49 43 50
REMARK SMILES IDX 44 51 49 52 45 53 48 54 46 55 47 56 50 58 51 59 52 60
REMARK H PARENT 14 8 11 11 9 14 9 15 28 33 35 43 40 47 47 57 52 61
ROOT
ATOM      1  O   UNL     1       7.901  -2.879  -3.314  1.00  0.00    -0.272 OA
ATOM      2  C   UNL     1       7.354  -3.474  -2.373  1.00  0.00     0.245 C 
ENDROOT
BRANCH   2   3
ATOM      3  C   UNL     1       5.884  -3.935  -2.543  1.00  0.00     0.168 C 
ATOM      4  C   UNL     1       4.939  -3.025  -1.767  1.00  0.00     0.041 C 
BRANCH   3   5
ATOM      5  N   UNL     1       5.455  -4.113  -3.922  1.00  0.00    -0.342 N 
ATOM      6  C   UNL     1       5.757  -5.252  -4.637  1.00  0.00     0.251 C 
ATOM      7  O   UNL     1       6.435  -6.171  -4.190  1.00  0.00    -0.272 OA
ATOM      8  H   UNL     1       4.916  -3.402  -4.411  1.00  0.00     0.164 HD
BRANCH   6   9
ATOM      9  C   UNL     1       5.083  -5.284  -6.018  1.00  0.00     0.219 C 
BRANCH   9  10
ATOM     10  O   UNL     1       4.063  -4.287  -6.158  1.00  0.00    -0.382 OA
ATOM     11  H   UNL     1       3.334  -4.764  -6.611  1.00  0.00     0.211 HD
ENDBRANCH   9  10
BRANCH   9  12
ATOM     12  C   UNL     1       6.094  -5.205  -7.191  1.00  0.00     0.089 C 
BRANCH  12  13
ATOM     13  N   UNL     1       7.348  -4.600  -6.688  1.00  0.00    -0.325 NA
ATOM     14  H   UNL     1       7.983  -5.342  -6.387  1.00  0.00     0.119 HD
ATOM     15  H   UNL     1       7.141  -4.066  -5.840  1.00  0.00     0.119 HD
ENDBRANCH  12  13
BRANCH  12  16
ATOM     16  C   UNL     1       6.400  -6.540  -7.913  1.00  0.00     0.022 C 
BRANCH  16  17
ATOM     17  C   UNL     1       5.812  -6.787  -9.308  1.00  0.00     0.002 C 
BRANCH  17  18
ATOM     18  C   UNL     1       4.286  -6.834  -9.365  1.00  0.00     0.000 C 
BRANCH  18  19
ATOM     19  C   UNL     1       3.637  -5.518  -9.815  1.00  0.00    -0.000 C 
BRANCH  19  20
ATOM     20  C   UNL     1       2.106  -5.526  -9.845  1.00  0.00    -0.000 C 
BRANCH  20  21
ATOM     21  C   UNL     1       1.514  -6.938  -9.858  1.00  0.00    -0.003 C 
ATOM     22  C   UNL     1       0.464  -7.089 -10.948  1.00  0.00     0.004 C 
ENDBRANCH  20  21
ENDBRANCH  19  20
ENDBRANCH  18  19
ENDBRANCH  17  18
ENDBRANCH  16  17
ENDBRANCH  12  16
ENDBRANCH   9  12
ENDBRANCH   6   9
ENDBRANCH   3   5
ENDBRANCH   2   3
BRANCH   2  23
ATOM     23  N   UNL     1       8.091  -3.823  -1.247  1.00  0.00    -0.332 N 
ATOM     24  C   UNL     1       7.917  -5.056  -0.495  1.00  0.00     0.147 C 
BRANCH  23  25
ATOM     25  C   UNL     1       9.232  -2.975  -0.804  1.00  0.00     0.174 C 
BRANCH  25  26
ATOM     26  C   UNL     1      10.126  -3.670   0.250  1.00  0.00     0.038 C 
BRANCH  26  27
ATOM     27  C   UNL     1      11.653  -3.484   0.105  1.00  0.00    -0.015 C 
ATOM     28  C   UNL     1      12.141  -3.748  -1.319  1.00  0.00     0.007 C 
ATOM     29  C   UNL     1      12.149  -2.128   0.601  1.00  0.00     0.007 C 
ENDBRANCH  26  27
ENDBRANCH  25  26
BRANCH  25  30
ATOM     30  C   UNL     1       8.722  -1.583  -0.366  1.00  0.00     0.243 C 
ATOM     31  O   UNL     1       8.945  -0.570  -1.028  1.00  0.00    -0.273 OA
ATOM     32  N   UNL     1       8.013  -1.553   0.808  1.00  0.00    -0.342 N 
ATOM     33  H   UNL     1       7.748  -2.450   1.224  1.00  0.00     0.164 HD
BRANCH  32  34
ATOM     34  C   UNL     1       7.477  -0.320   1.390  1.00  0.00     0.175 C 
BRANCH  34  35
ATOM     35  C   UNL     1       6.097  -0.555   2.024  1.00  0.00     0.070 C 
BRANCH  35  36
ATOM     36  C   UNL     1       5.002   0.243   1.354  1.00  0.00    -0.045 A 
ATOM     37  C   UNL     1       4.815   0.152  -0.034  1.00  0.00     0.007 A 
ATOM     38  C   UNL     1       4.177   1.098   2.097  1.00  0.00     0.007 A 
ATOM     39  C   UNL     1       3.816   0.895  -0.663  1.00  0.00     0.046 A 
ATOM     40  C   UNL     1       3.177   1.843   1.468  1.00  0.00     0.046 A 
ATOM     41  C   UNL     1       3.005   1.734   0.092  1.00  0.00     0.115 A 
BRANCH  41  42
ATOM     42  O   UNL     1       2.043   2.445  -0.562  1.00  0.00    -0.508 OA
ATOM     43  H   UNL     1       1.424   1.817  -0.969  1.00  0.00     0.293 HD
ENDBRANCH  41  42
ENDBRANCH  35  36
ENDBRANCH  34  35
BRANCH  34  44
ATOM     44  C   UNL     1       8.502   0.209   2.417  1.00  0.00     0.243 C 
ATOM     45  O   UNL     1       9.685   0.426   2.169  1.00  0.00    -0.273 OA
ATOM     46  N   UNL     1       7.999   0.298   3.698  1.00  0.00    -0.341 N 
ATOM     47  H   UNL     1       7.044  -0.004   3.876  1.00  0.00     0.164 HD
BRANCH  46  48
ATOM     48  C   UNL     1       8.801   0.710   4.852  1.00  0.00     0.196 C 
BRANCH  48  49
ATOM     49  C   UNL     1       8.336   2.069   5.402  1.00  0.00     0.072 C 
BRANCH  49  50
ATOM     50  C   UNL     1       9.430   3.113   5.375  1.00  0.00    -0.045 A 
ATOM     51  C   UNL     1       9.790   3.778   6.556  1.00  0.00     0.007 A 
ATOM     52  C   UNL     1      10.081   3.444   4.180  1.00  0.00     0.007 A 
ATOM     53  C   UNL     1      10.789   4.752   6.541  1.00  0.00     0.046 A 
ATOM     54  C   UNL     1      11.080   4.420   4.164  1.00  0.00     0.046 A 
ATOM     55  C   UNL     1      11.427   5.065   5.347  1.00  0.00     0.115 A 
BRANCH  55  56
ATOM     56  O   UNL     1      12.396   6.024   5.374  1.00  0.00    -0.508 OA
ATOM     57  H   UNL     1      13.157   5.705   4.864  1.00  0.00     0.293 HD
ENDBRANCH  55  56
ENDBRANCH  49  50
ENDBRANCH  48  49
BRANCH  48  58
ATOM     58  C   UNL     1       8.682  -0.357   5.949  1.00  0.00     0.326 C 
ATOM     59  O   UNL     1       7.830  -1.225   6.046  1.00  0.00    -0.250 OA
BRANCH  58  60
ATOM     60  O   UNL     1       9.666  -0.288   6.881  1.00  0.00    -0.480 OA
ATOM     61  H   UNL     1      10.253  -1.039   6.645  1.00  0.00     0.296 HD
ENDBRANCH  58  60
ENDBRANCH  48  58
ENDBRANCH  46  48
ENDBRANCH  34  44
ENDBRANCH  32  34
ENDBRANCH  25  30
ENDBRANCH  23  25
ENDBRANCH   2  23
TORSDOF 28
ENDMDL
MODEL 3
REMARK VINA RESULT:    -7.554      4.211      9.384
REMARK INTER + INTRA:         -24.343
REMARK INTER:                 -20.832
REMARK INTRA:                  -3.512
REMARK UNBOUND:                -5.529
REMARK SMILES CCCCCCC[C@H](N)[C@H](O)C(=O)N[C@H](C)C(=O)N(C)[C@H](CC(C)C)C(=O)N[C@@H](Cc1ccc(O)cc1)C(=O)N[C@@H](Cc1ccc(O)cc1)C(=O)O
REMARK SMILES IDX 18 1 17 2 15 3 16 4 14 5 12 6 13 7 10 9 11 10 8 12 9 13 7 16
REMARK SMILES IDX 6 17 5 18 4 19 3 20 2 21 1 22 19 23 20 24 21 25 22 26 23 27
REMARK SMILES IDX 24 28 25 29 26 30 27 31 28 32 29 34 30 35 31 36 32 37 37 38
REMARK SMILES IDX 33 39 36 40 34 41 35 42 38 44 39 45 40 46 41 48 42 49 43 50
REMARK SMILES IDX 44 51 49 52 45 53 48 54 46 55 47 56 50 58 51 59 52 60
REMARK H PARENT 14 8 11 11 9 14 9 15 28 33 35 43 40 47 47 57 52 61
ROOT
ATOM      1  O   UNL     1       7.850  -3.050  -3.329  1.00  0.00    -0.272 OA
ATOM      2  C   UNL     1       7.307  -3.572  -2.344  1.00  0.00     0.245 C 
ENDROOT
BRANCH   2   3
ATOM      3  C   UNL     1       5.831  -4.025  -2.466  1.00  0.00     0.168 C 
ATOM      4  C   UNL     1       4.919  -3.127  -1.638  1.00  0.00     0.041 C 
BRANCH   3   5
ATOM      5  N   UNL     1       5.348  -4.176  -3.830  1.00  0.00    -0.342 N 
ATOM      6  C   UNL     1       5.672  -5.274  -4.599  1.00  0.00     0.251 C 
ATOM      7  O   UNL     1       6.413  -6.173  -4.217  1.00  0.00    -0.272 OA
ATOM      8  H   UNL     1       4.754  -3.477  -4.269  1.00  0.00     0.164 HD
BRANCH   6   9
ATOM      9  C   UNL     1       4.938  -5.291  -5.950  1.00  0.00     0.219 C 
BRANCH   9  10
ATOM     10  O   UNL     1       3.766  -4.467  -5.952  1.00  0.00    -0.382 OA
ATOM     11  H   UNL     1       3.598  -4.306  -6.907  1.00  0.00     0.211 HD
ENDBRANCH   9  10
BRANCH   9  12
ATOM     12  C   UNL     1       5.859  -4.942  -7.148  1.00  0.00     0.089 C 
BRANCH  12  13
ATOM     13  N   UNL     1       7.202  -4.605  -6.623  1.00  0.00    -0.325 NA
ATOM     14  H   UNL     1       7.909  -5.115  -7.156  1.00  0.00     0.119 HD
ATOM     15  H   UNL     1       7.282  -4.959  -5.667  1.00  0.00     0.119 HD
ENDBRANCH  12  13
BRANCH  12  16
ATOM     16  C   UNL     1       5.975  -6.022  -8.251  1.00  0.00     0.022 C 
BRANCH  16  17
ATOM     17  C   UNL     1       5.921  -5.594  -9.724  1.00  0.00     0.002 C 
BRANCH  17  18
ATOM     18  C   UNL     1       7.196  -4.941 -10.252  1.00  0.00     0.000 C 
BRANCH  18  19
ATOM     19  C   UNL     1       8.486  -5.656  -9.829  1.00  0.00    -0.000 C 
BRANCH  19  20
ATOM     20  C   UNL     1       9.082  -6.599 -10.878  1.00  0.00    -0.000 C 
BRANCH  20  21
ATOM     21  C   UNL     1       8.700  -8.064 -10.654  1.00  0.00    -0.003 C 
ATOM     22  C   UNL     1       7.516  -8.467 -11.521  1.00  0.00     0.004 C 
ENDBRANCH  20  21
ENDBRANCH  19  20
ENDBRANCH  18  19
ENDBRANCH  17  18
ENDBRANCH  16  17
ENDBRANCH  12  16
ENDBRANCH   9  12
ENDBRANCH   6   9
ENDBRANCH   3   5
ENDBRANCH   2   3
BRANCH   2  23
ATOM     23  N   UNL     1       8.054  -3.852  -1.205  1.00  0.00    -0.332 N 
ATOM     24  C   UNL     1       7.882  -5.036  -0.375  1.00  0.00     0.147 C 
BRANCH  23  25
ATOM     25  C   UNL     1       9.202  -2.984  -0.827  1.00  0.00     0.174 C 
BRANCH  25  26
ATOM     26  C   UNL     1      10.155  -3.654   0.190  1.00  0.00     0.038 C 
BRANCH  26  27
ATOM     27  C   UNL     1      11.366  -4.422  -0.387  1.00  0.00    -0.015 C 
ATOM     28  C   UNL     1      12.387  -3.494  -1.045  1.00  0.00     0.007 C 
ATOM     29  C   UNL     1      12.047  -5.334   0.631  1.00  0.00     0.007 C 
ENDBRANCH  26  27
ENDBRANCH  25  26
BRANCH  25  30
ATOM     30  C   UNL     1       8.693  -1.594  -0.379  1.00  0.00     0.243 C 
ATOM     31  O   UNL     1       8.958  -0.571  -1.008  1.00  0.00    -0.273 OA
ATOM     32  N   UNL     1       7.936  -1.580   0.764  1.00  0.00    -0.342 N 
ATOM     33  H   UNL     1       7.642  -2.481   1.149  1.00  0.00     0.164 HD
BRANCH  32  34
ATOM     34  C   UNL     1       7.393  -0.352   1.351  1.00  0.00     0.175 C 
BRANCH  34  35
ATOM     35  C   UNL     1       6.015  -0.597   1.984  1.00  0.00     0.070 C 
BRANCH  35  36
ATOM     36  C   UNL     1       4.921   0.228   1.343  1.00  0.00    -0.045 A 
ATOM     37  C   UNL     1       4.702   0.148  -0.040  1.00  0.00     0.007 A 
ATOM     38  C   UNL     1       4.132   1.095   2.110  1.00  0.00     0.007 A 
ATOM     39  C   UNL     1       3.705   0.916  -0.643  1.00  0.00     0.046 A 
ATOM     40  C   UNL     1       3.134   1.864   1.507  1.00  0.00     0.046 A 
ATOM     41  C   UNL     1       2.929   1.767   0.135  1.00  0.00     0.115 A 
BRANCH  41  42
ATOM     42  O   UNL     1       1.967   2.502  -0.493  1.00  0.00    -0.508 OA
ATOM     43  H   UNL     1       2.390   3.013  -1.203  1.00  0.00     0.293 HD
ENDBRANCH  41  42
ENDBRANCH  35  36
ENDBRANCH  34  35
BRANCH  34  44
ATOM     44  C   UNL     1       8.415   0.179   2.381  1.00  0.00     0.243 C 
ATOM     45  O   UNL     1       9.586   0.444   2.123  1.00  0.00    -0.273 OA
ATOM     46  N   UNL     1       7.929   0.211   3.671  1.00  0.00    -0.341 N 
ATOM     47  H   UNL     1       6.988  -0.129   3.852  1.00  0.00     0.164 HD
BRANCH  46  48
ATOM     48  C   UNL     1       8.734   0.613   4.826  1.00  0.00     0.196 C 
BRANCH  48  49
ATOM     49  C   UNL     1       8.288   1.980   5.371  1.00  0.00     0.072 C 
BRANCH  49  50
ATOM     50  C   UNL     1       9.382   3.021   5.298  1.00  0.00    -0.045 A 
ATOM     51  C   UNL     1      10.084   3.214   4.099  1.00  0.00     0.007 A 
ATOM     52  C   UNL     1       9.724   3.788   6.419  1.00  0.00     0.007 A 
ATOM     53  C   UNL     1      11.104   4.163   4.022  1.00  0.00     0.046 A 
ATOM     54  C   UNL     1      10.746   4.737   6.343  1.00  0.00     0.046 A 
ATOM     55  C   UNL     1      11.427   4.917   5.144  1.00  0.00     0.115 A 
BRANCH  55  56
ATOM     56  O   UNL     1      12.431   5.832   5.028  1.00  0.00    -0.508 OA
ATOM     57  H   UNL     1      12.752   5.820   4.112  1.00  0.00     0.293 HD
ENDBRANCH  55  56
ENDBRANCH  49  50
ENDBRANCH  48  49
BRANCH  48  58
ATOM     58  C   UNL     1       8.597  -0.450   5.925  1.00  0.00     0.326 C 
ATOM     59  O   UNL     1       7.936  -0.374   6.948  1.00  0.00    -0.250 OA
BRANCH  58  60
ATOM     60  O   UNL     1       9.298  -1.583   5.672  1.00  0.00    -0.480 OA
ATOM     61  H   UNL     1       8.801  -1.996   4.932  1.00  0.00     0.296 HD
ENDBRANCH  58  60
ENDBRANCH  48  58
ENDBRANCH  46  48
ENDBRANCH  34  44
ENDBRANCH  32  34
ENDBRANCH  25  30
ENDBRANCH  23  25
ENDBRANCH   2  23
TORSDOF 28
ENDMDL
MODEL 4
REMARK VINA RESULT:    -7.184      4.282      9.372
REMARK INTER + INTRA:         -23.422
REMARK INTER:                 -20.933
REMARK INTRA:                  -2.489
REMARK UNBOUND:                -5.529
REMARK SMILES CCCCCCC[C@H](N)[C@H](O)C(=O)N[C@H](C)C(=O)N(C)[C@H](CC(C)C)C(=O)N[C@@H](Cc1ccc(O)cc1)C(=O)N[C@@H](Cc1ccc(O)cc1)C(=O)O
REMARK SMILES IDX 18 1 17 2 15 3 16 4 14 5 12 6 13 7 10 9 11 10 8 12 9 13 7 16
REMARK SMILES IDX 6 17 5 18 4 19 3 20 2 21 1 22 19 23 20 24 21 25 22 26 23 27
REMARK SMILES IDX 24 28 25 29 26 30 27 31 28 32 29 34 30 35 31 36 32 37 37 38
REMARK SMILES IDX 33 39 36 40 34 41 35 42 38 44 39 45 40 46 41 48 42 49 43 50
REMARK SMILES IDX 44 51 49 52 45 53 48 54 46 55 47 56 50 58 51 59 52 60
REMARK H PARENT 14 8 11 11 9 14 9 15 28 33 35 43 40 47 47 57 52 61
ROOT
ATOM      1  O   UNL     1       4.927  -3.635  -2.676  1.00  0.00    -0.272 OA
ATOM      2  C   UNL     1       5.525  -4.517  -2.043  1.00  0.00     0.245 C 
ENDROOT
BRANCH   2   3
ATOM      3  C   UNL     1       6.364  -5.555  -2.831  1.00  0.00     0.168 C 
ATOM      4  C   UNL     1       6.698  -6.757  -1.956  1.00  0.00     0.041 C 
BRANCH   3   5
ATOM      5  N   UNL     1       5.796  -5.956  -4.109  1.00  0.00    -0.342 N 
ATOM      6  C   UNL     1       6.214  -5.396  -5.298  1.00  0.00     0.251 C 
ATOM      7  O   UNL     1       7.050  -4.502  -5.368  1.00  0.00    -0.272 OA
ATOM      8  H   UNL     1       5.069  -6.664  -4.174  1.00  0.00     0.164 HD
BRANCH   6   9
ATOM      9  C   UNL     1       5.582  -6.071  -6.526  1.00  0.00     0.219 C 
BRANCH   9  10
ATOM     10  O   UNL     1       4.990  -7.338  -6.217  1.00  0.00    -0.382 OA
ATOM     11  H   UNL     1       4.812  -7.732  -7.100  1.00  0.00     0.211 HD
ENDBRANCH   9  10
BRANCH   9  12
ATOM     12  C   UNL     1       4.573  -5.158  -7.271  1.00  0.00     0.089 C 
BRANCH  12  13
ATOM     13  N   UNL     1       4.043  -4.165  -6.309  1.00  0.00    -0.325 NA
ATOM     14  H   UNL     1       3.712  -3.345  -6.821  1.00  0.00     0.119 HD
ATOM     15  H   UNL     1       4.812  -3.824  -5.727  1.00  0.00     0.119 HD
ENDBRANCH  12  13
BRANCH  12  16
ATOM     16  C   UNL     1       5.110  -4.442  -8.533  1.00  0.00     0.022 C 
BRANCH  16  17
ATOM     17  C   UNL     1       5.818  -5.267  -9.616  1.00  0.00     0.002 C 
BRANCH  17  18
ATOM     18  C   UNL     1       5.211  -5.156 -11.013  1.00  0.00     0.000 C 
BRANCH  18  19
ATOM     19  C   UNL     1       3.719  -5.511 -11.075  1.00  0.00    -0.000 C 
BRANCH  19  20
ATOM     20  C   UNL     1       3.360  -6.903 -10.549  1.00  0.00    -0.000 C 
BRANCH  20  21
ATOM     21  C   UNL     1       2.079  -6.916  -9.711  1.00  0.00    -0.003 C 
ATOM     22  C   UNL     1       0.840  -6.925 -10.593  1.00  0.00     0.004 C 
ENDBRANCH  20  21
ENDBRANCH  19  20
ENDBRANCH  18  19
ENDBRANCH  17  18
ENDBRANCH  16  17
ENDBRANCH  12  16
ENDBRANCH   9  12
ENDBRANCH   6   9
ENDBRANCH   3   5
ENDBRANCH   2   3
BRANCH   2  23
ATOM     23  N   UNL     1       5.534  -4.491  -0.653  1.00  0.00    -0.332 N 
ATOM     24  C   UNL     1       4.445  -4.962   0.189  1.00  0.00     0.147 C 
BRANCH  23  25
ATOM     25  C   UNL     1       6.761  -4.078   0.082  1.00  0.00     0.174 C 
BRANCH  25  26
ATOM     26  C   UNL     1       6.973  -4.871   1.393  1.00  0.00     0.038 C 
BRANCH  26  27
ATOM     27  C   UNL     1       8.429  -5.227   1.769  1.00  0.00    -0.015 C 
ATOM     28  C   UNL     1       8.606  -5.455   3.270  1.00  0.00     0.007 C 
ATOM     29  C   UNL     1       8.989  -6.406   0.976  1.00  0.00     0.007 C 
ENDBRANCH  26  27
ENDBRANCH  25  26
BRANCH  25  30
ATOM     30  C   UNL     1       6.776  -2.544   0.274  1.00  0.00     0.243 C 
ATOM     31  O   UNL     1       7.150  -1.782  -0.616  1.00  0.00    -0.273 OA
ATOM     32  N   UNL     1       6.354  -2.095   1.499  1.00  0.00    -0.342 N 
ATOM     33  H   UNL     1       5.927  -2.777   2.132  1.00  0.00     0.164 HD
BRANCH  32  34
ATOM     34  C   UNL     1       6.326  -0.677   1.867  1.00  0.00     0.175 C 
BRANCH  34  35
ATOM     35  C   UNL     1       4.967  -0.281   2.463  1.00  0.00     0.070 C 
BRANCH  35  36
ATOM     36  C   UNL     1       4.121   0.525   1.503  1.00  0.00    -0.045 A 
ATOM     37  C   UNL     1       4.111   0.205   0.137  1.00  0.00     0.007 A 
ATOM     38  C   UNL     1       3.358   1.610   1.954  1.00  0.00     0.007 A 
ATOM     39  C   UNL     1       3.344   0.951  -0.758  1.00  0.00     0.046 A 
ATOM     40  C   UNL     1       2.591   2.359   1.058  1.00  0.00     0.046 A 
ATOM     41  C   UNL     1       2.590   2.021  -0.291  1.00  0.00     0.115 A 
BRANCH  41  42
ATOM     42  O   UNL     1       1.857   2.726  -1.199  1.00  0.00    -0.508 OA
ATOM     43  H   UNL     1       1.643   3.592  -0.812  1.00  0.00     0.293 HD
ENDBRANCH  41  42
ENDBRANCH  35  36
ENDBRANCH  34  35
BRANCH  34  44
ATOM     44  C   UNL     1       7.487  -0.417   2.853  1.00  0.00     0.243 C 
ATOM     45  O   UNL     1       7.434  -0.634   4.061  1.00  0.00    -0.273 OA
ATOM     46  N   UNL     1       8.568   0.215   2.275  1.00  0.00    -0.341 N 
ATOM     47  H   UNL     1       8.518   0.480   1.294  1.00  0.00     0.164 HD
BRANCH  46  48
ATOM     48  C   UNL     1       9.757   0.625   3.024  1.00  0.00     0.196 C 
BRANCH  48  49
ATOM     49  C   UNL     1       9.383   1.189   4.405  1.00  0.00     0.072 C 
BRANCH  49  50
ATOM     50  C   UNL     1       9.969   2.560   4.652  1.00  0.00    -0.045 A 
ATOM     51  C   UNL     1      10.831   3.133   3.705  1.00  0.00     0.007 A 
ATOM     52  C   UNL     1       9.683   3.266   5.827  1.00  0.00     0.007 A 
ATOM     53  C   UNL     1      11.389   4.392   3.927  1.00  0.00     0.046 A 
ATOM     54  C   UNL     1      10.242   4.526   6.051  1.00  0.00     0.046 A 
ATOM     55  C   UNL     1      11.090   5.079   5.098  1.00  0.00     0.115 A 
BRANCH  55  56
ATOM     56  O   UNL     1      11.657   6.306   5.278  1.00  0.00    -0.508 OA
ATOM     57  H   UNL     1      12.618   6.192   5.346  1.00  0.00     0.293 HD
ENDBRANCH  55  56
ENDBRANCH  49  50
ENDBRANCH  48  49
BRANCH  48  58
ATOM     58  C   UNL     1      10.681  -0.589   3.197  1.00  0.00     0.326 C 
ATOM     59  O   UNL     1      10.781  -1.308   4.178  1.00  0.00    -0.250 OA
BRANCH  58  60
ATOM     60  O   UNL     1      11.439  -0.853   2.103  1.00  0.00    -0.480 OA
ATOM     61  H   UNL     1      10.806  -0.747   1.359  1.00  0.00     0.296 HD
ENDBRANCH  58  60
ENDBRANCH  48  58
ENDBRANCH  46  48
ENDBRANCH  34  44
ENDBRANCH  32  34
ENDBRANCH  25  30
ENDBRANCH  23  25
ENDBRANCH   2  23
TORSDOF 28
ENDMDL
MODEL 5
REMARK VINA RESULT:    -7.097      4.042      9.019
REMARK INTER + INTRA:         -23.206
REMARK INTER:                 -20.023
REMARK INTRA:                  -3.183
REMARK UNBOUND:                -5.529
REMARK SMILES CCCCCCC[C@H](N)[C@H](O)C(=O)N[C@H](C)C(=O)N(C)[C@H](CC(C)C)C(=O)N[C@@H](Cc1ccc(O)cc1)C(=O)N[C@@H](Cc1ccc(O)cc1)C(=O)O
REMARK SMILES IDX 18 1 17 2 15 3 16 4 14 5 12 6 13 7 10 9 11 10 8 12 9 13 7 16
REMARK SMILES IDX 6 17 5 18 4 19 3 20 2 21 1 22 19 23 20 24 21 25 22 26 23 27
REMARK SMILES IDX 24 28 25 29 26 30 27 31 28 32 29 34 30 35 31 36 32 37 37 38
REMARK SMILES IDX 33 39 36 40 34 41 35 42 38 44 39 45 40 46 41 48 42 49 43 50
REMARK SMILES IDX 44 51 49 52 45 53 48 54 46 55 47 56 50 58 51 59 52 60
REMARK H PARENT 14 8 11 11 9 14 9 15 28 33 35 43 40 47 47 57 52 61
ROOT
ATOM      1  O   UNL     1       7.015  -3.780  -0.072  1.00  0.00    -0.272 OA
ATOM      2  C   UNL     1       6.127  -4.425  -0.651  1.00  0.00     0.245 C 
ENDROOT
BRANCH   2   3
ATOM      3  C   UNL     1       6.537  -5.397  -1.785  1.00  0.00     0.168 C 
ATOM      4  C   UNL     1       6.852  -6.780  -1.227  1.00  0.00     0.041 C 
BRANCH   3   5
ATOM      5  N   UNL     1       5.604  -5.462  -2.900  1.00  0.00    -0.342 N 
ATOM      6  C   UNL     1       5.819  -4.766  -4.070  1.00  0.00     0.251 C 
ATOM      7  O   UNL     1       6.773  -4.016  -4.246  1.00  0.00    -0.272 OA
ATOM      8  H   UNL     1       4.757  -6.024  -2.858  1.00  0.00     0.164 HD
BRANCH   6   9
ATOM      9  C   UNL     1       4.783  -5.096  -5.157  1.00  0.00     0.219 C 
BRANCH   9  10
ATOM     10  O   UNL     1       3.906  -3.998  -5.437  1.00  0.00    -0.382 OA
ATOM     11  H   UNL     1       4.146  -3.739  -6.354  1.00  0.00     0.211 HD
ENDBRANCH   9  10
BRANCH   9  12
ATOM     12  C   UNL     1       5.422  -5.638  -6.462  1.00  0.00     0.089 C 
BRANCH  12  13
ATOM     13  N   UNL     1       6.725  -6.254  -6.124  1.00  0.00    -0.325 NA
ATOM     14  H   UNL     1       6.838  -7.116  -6.661  1.00  0.00     0.119 HD
ATOM     15  H   UNL     1       6.708  -6.549  -5.145  1.00  0.00     0.119 HD
ENDBRANCH  12  13
BRANCH  12  16
ATOM     16  C   UNL     1       4.559  -6.632  -7.277  1.00  0.00     0.022 C 
BRANCH  16  17
ATOM     17  C   UNL     1       4.036  -6.210  -8.657  1.00  0.00     0.002 C 
BRANCH  17  18
ATOM     18  C   UNL     1       5.059  -6.297  -9.788  1.00  0.00     0.000 C 
BRANCH  18  19
ATOM     19  C   UNL     1       5.770  -4.972 -10.091  1.00  0.00    -0.000 C 
BRANCH  19  20
ATOM     20  C   UNL     1       7.029  -5.092 -10.954  1.00  0.00    -0.000 C 
BRANCH  20  21
ATOM     21  C   UNL     1       8.262  -5.528 -10.158  1.00  0.00    -0.003 C 
ATOM     22  C   UNL     1       8.373  -4.766  -8.846  1.00  0.00     0.004 C 
ENDBRANCH  20  21
ENDBRANCH  19  20
ENDBRANCH  18  19
ENDBRANCH  17  18
ENDBRANCH  16  17
ENDBRANCH  12  16
ENDBRANCH   9  12
ENDBRANCH   6   9
ENDBRANCH   3   5
ENDBRANCH   2   3
BRANCH   2  23
ATOM     23  N   UNL     1       4.814  -4.360  -0.198  1.00  0.00    -0.332 N 
ATOM     24  C   UNL     1       4.029  -5.510   0.228  1.00  0.00     0.147 C 
BRANCH  23  25
ATOM     25  C   UNL     1       4.152  -3.041   0.002  1.00  0.00     0.174 C 
BRANCH  25  26
ATOM     26  C   UNL     1       4.645  -1.964  -0.992  1.00  0.00     0.038 C 
BRANCH  26  27
ATOM     27  C   UNL     1       5.157  -0.637  -0.390  1.00  0.00    -0.015 C 
ATOM     28  C   UNL     1       6.519  -0.228  -0.951  1.00  0.00     0.007 C 
ATOM     29  C   UNL     1       4.159   0.512  -0.512  1.00  0.00     0.007 C 
ENDBRANCH  26  27
ENDBRANCH  25  26
BRANCH  25  30
ATOM     30  C   UNL     1       4.257  -2.613   1.484  1.00  0.00     0.243 C 
ATOM     31  O   UNL     1       3.282  -2.202   2.112  1.00  0.00    -0.273 OA
ATOM     32  N   UNL     1       5.503  -2.718   2.045  1.00  0.00    -0.342 N 
ATOM     33  H   UNL     1       6.227  -3.199   1.506  1.00  0.00     0.164 HD
BRANCH  32  34
ATOM     34  C   UNL     1       5.795  -2.332   3.429  1.00  0.00     0.175 C 
BRANCH  34  35
ATOM     35  C   UNL     1       6.444  -3.487   4.206  1.00  0.00     0.070 C 
BRANCH  35  36
ATOM     36  C   UNL     1       5.842  -3.678   5.580  1.00  0.00    -0.045 A 
ATOM     37  C   UNL     1       6.630  -3.482   6.725  1.00  0.00     0.007 A 
ATOM     38  C   UNL     1       4.507  -4.073   5.732  1.00  0.00     0.007 A 
ATOM     39  C   UNL     1       6.088  -3.669   7.997  1.00  0.00     0.046 A 
ATOM     40  C   UNL     1       3.963  -4.262   7.005  1.00  0.00     0.046 A 
ATOM     41  C   UNL     1       4.759  -4.057   8.127  1.00  0.00     0.115 A 
BRANCH  41  42
ATOM     42  O   UNL     1       4.269  -4.232   9.387  1.00  0.00    -0.508 OA
ATOM     43  H   UNL     1       4.104  -5.180   9.521  1.00  0.00     0.293 HD
ENDBRANCH  41  42
ENDBRANCH  35  36
ENDBRANCH  34  35
BRANCH  34  44
ATOM     44  C   UNL     1       6.698  -1.079   3.396  1.00  0.00     0.243 C 
ATOM     45  O   UNL     1       6.428  -0.014   3.946  1.00  0.00    -0.273 OA
ATOM     46  N   UNL     1       7.796  -1.215   2.573  1.00  0.00    -0.341 N 
ATOM     47  H   UNL     1       7.914  -2.076   2.046  1.00  0.00     0.164 HD
BRANCH  46  48
ATOM     48  C   UNL     1       8.759  -0.138   2.329  1.00  0.00     0.196 C 
BRANCH  48  49
ATOM     49  C   UNL     1       9.736   0.016   3.506  1.00  0.00     0.072 C 
BRANCH  49  50
ATOM     50  C   UNL     1      10.042   1.463   3.823  1.00  0.00    -0.045 A 
ATOM     51  C   UNL     1       9.239   2.163   4.734  1.00  0.00     0.007 A 
ATOM     52  C   UNL     1      11.108   2.127   3.203  1.00  0.00     0.007 A 
ATOM     53  C   UNL     1       9.503   3.502   5.024  1.00  0.00     0.046 A 
ATOM     54  C   UNL     1      11.372   3.467   3.492  1.00  0.00     0.046 A 
ATOM     55  C   UNL     1      10.567   4.144   4.402  1.00  0.00     0.115 A 
BRANCH  55  56
ATOM     56  O   UNL     1      10.790   5.453   4.712  1.00  0.00    -0.508 OA
ATOM     57  H   UNL     1      10.933   5.521   5.669  1.00  0.00     0.293 HD
ENDBRANCH  55  56
ENDBRANCH  49  50
ENDBRANCH  48  49
BRANCH  48  58
ATOM     58  C   UNL     1       9.542  -0.450   1.047  1.00  0.00     0.326 C 
ATOM     59  O   UNL     1       9.887   0.338   0.181  1.00  0.00    -0.250 OA
BRANCH  58  60
ATOM     60  O   UNL     1       9.873  -1.760   0.919  1.00  0.00    -0.480 OA
ATOM     61  H   UNL     1       9.004  -2.201   0.798  1.00  0.00     0.296 HD
ENDBRANCH  58  60
ENDBRANCH  48  58
ENDBRANCH  46  48
ENDBRANCH  34  44
ENDBRANCH  32  34
ENDBRANCH  25  30
ENDBRANCH  23  25
ENDBRANCH   2  23
TORSDOF 28
ENDMDL
MODEL 6
REMARK VINA RESULT:    -6.769      4.111      9.170
REMARK INTER + INTRA:         -22.389
REMARK INTER:                 -20.289
REMARK INTRA:                  -2.100
REMARK UNBOUND:                -5.529
REMARK SMILES CCCCCCC[C@H](N)[C@H](O)C(=O)N[C@H](C)C(=O)N(C)[C@H](CC(C)C)C(=O)N[C@@H](Cc1ccc(O)cc1)C(=O)N[C@@H](Cc1ccc(O)cc1)C(=O)O
REMARK SMILES IDX 18 1 17 2 15 3 16 4 14 5 12 6 13 7 10 9 11 10 8 12 9 13 7 16
REMARK SMILES IDX 6 17 5 18 4 19 3 20 2 21 1 22 19 23 20 24 21 25 22 26 23 27
REMARK SMILES IDX 24 28 25 29 26 30 27 31 28 32 29 34 30 35 31 36 32 37 37 38
REMARK SMILES IDX 33 39 36 40 34 41 35 42 38 44 39 45 40 46 41 48 42 49 43 50
REMARK SMILES IDX 44 51 49 52 45 53 48 54 46 55 47 56 50 58 51 59 52 60
REMARK H PARENT 14 8 11 11 9 14 9 15 28 33 35 43 40 47 47 57 52 61
ROOT
ATOM      1  O   UNL     1       5.476  -3.794  -0.805  1.00  0.00    -0.272 OA
ATOM      2  C   UNL     1       6.535  -4.340  -1.149  1.00  0.00     0.245 C 
ENDROOT
BRANCH   2   3
ATOM      3  C   UNL     1       6.460  -5.657  -1.962  1.00  0.00     0.168 C 
ATOM      4  C   UNL     1       6.275  -6.854  -1.037  1.00  0.00     0.041 C 
BRANCH   3   5
ATOM      5  N   UNL     1       5.487  -5.652  -3.044  1.00  0.00    -0.342 N 
ATOM      6  C   UNL     1       5.736  -5.020  -4.244  1.00  0.00     0.251 C 
ATOM      7  O   UNL     1       6.761  -4.388  -4.475  1.00  0.00    -0.272 OA
ATOM      8  H   UNL     1       4.586  -6.115  -2.956  1.00  0.00     0.164 HD
BRANCH   6   9
ATOM      9  C   UNL     1       4.633  -5.267  -5.285  1.00  0.00     0.219 C 
BRANCH   9  10
ATOM     10  O   UNL     1       4.130  -4.053  -5.856  1.00  0.00    -0.382 OA
ATOM     11  H   UNL     1       3.874  -3.518  -5.072  1.00  0.00     0.211 HD
ENDBRANCH   9  10
BRANCH   9  12
ATOM     12  C   UNL     1       5.055  -6.264  -6.396  1.00  0.00     0.089 C 
BRANCH  12  13
ATOM     13  N   UNL     1       3.983  -6.309  -7.416  1.00  0.00    -0.325 NA
ATOM     14  H   UNL     1       3.358  -7.091  -7.212  1.00  0.00     0.119 HD
ATOM     15  H   UNL     1       4.398  -6.530  -8.324  1.00  0.00     0.119 HD
ENDBRANCH  12  13
BRANCH  12  16
ATOM     16  C   UNL     1       6.420  -5.987  -7.072  1.00  0.00     0.022 C 
BRANCH  16  17
ATOM     17  C   UNL     1       6.796  -6.764  -8.341  1.00  0.00     0.002 C 
BRANCH  17  18
ATOM     18  C   UNL     1       8.278  -6.722  -8.706  1.00  0.00     0.000 C 
BRANCH  18  19
ATOM     19  C   UNL     1       8.602  -5.816  -9.901  1.00  0.00    -0.000 C 
BRANCH  19  20
ATOM     20  C   UNL     1       7.461  -4.897 -10.348  1.00  0.00    -0.000 C 
BRANCH  20  21
ATOM     21  C   UNL     1       7.085  -5.081 -11.821  1.00  0.00    -0.003 C 
ATOM     22  C   UNL     1       6.458  -6.444 -12.067  1.00  0.00     0.004 C 
ENDBRANCH  20  21
ENDBRANCH  19  20
ENDBRANCH  18  19
ENDBRANCH  17  18
ENDBRANCH  16  17
ENDBRANCH  12  16
ENDBRANCH   9  12
ENDBRANCH   6   9
ENDBRANCH   3   5
ENDBRANCH   2   3
BRANCH   2  23
ATOM     23  N   UNL     1       7.752  -3.709  -0.912  1.00  0.00    -0.332 N 
ATOM     24  C   UNL     1       8.440  -2.856  -1.869  1.00  0.00     0.147 C 
BRANCH  23  25
ATOM     25  C   UNL     1       8.382  -3.775   0.435  1.00  0.00     0.174 C 
BRANCH  25  26
ATOM     26  C   UNL     1       8.203  -5.152   1.117  1.00  0.00     0.038 C 
BRANCH  26  27
ATOM     27  C   UNL     1       9.406  -6.120   1.066  1.00  0.00    -0.015 C 
ATOM     28  C   UNL     1      10.596  -5.533   0.306  1.00  0.00     0.007 C 
ATOM     29  C   UNL     1       9.841  -6.621   2.441  1.00  0.00     0.007 C 
ENDBRANCH  26  27
ENDBRANCH  25  26
BRANCH  25  30
ATOM     30  C   UNL     1       7.908  -2.586   1.303  1.00  0.00     0.243 C 
ATOM     31  O   UNL     1       7.711  -2.702   2.512  1.00  0.00    -0.273 OA
ATOM     32  N   UNL     1       7.716  -1.404   0.635  1.00  0.00    -0.342 N 
ATOM     33  H   UNL     1       8.035  -1.351  -0.336  1.00  0.00     0.164 HD
BRANCH  32  34
ATOM     34  C   UNL     1       7.244  -0.181   1.290  1.00  0.00     0.175 C 
BRANCH  34  35
ATOM     35  C   UNL     1       5.850  -0.380   1.906  1.00  0.00     0.070 C 
BRANCH  35  36
ATOM     36  C   UNL     1       4.772   0.387   1.173  1.00  0.00    -0.045 A 
ATOM     37  C   UNL     1       3.959   1.293   1.870  1.00  0.00     0.007 A 
ATOM     38  C   UNL     1       4.555   0.189  -0.197  1.00  0.00     0.007 A 
ATOM     39  C   UNL     1       2.953   1.995   1.205  1.00  0.00     0.046 A 
ATOM     40  C   UNL     1       3.546   0.891  -0.863  1.00  0.00     0.046 A 
ATOM     41  C   UNL     1       2.755   1.789  -0.155  1.00  0.00     0.115 A 
BRANCH  41  42
ATOM     42  O   UNL     1       1.759   2.492  -0.766  1.00  0.00    -0.508 OA
ATOM     43  H   UNL     1       2.164   3.212  -1.277  1.00  0.00     0.293 HD
ENDBRANCH  41  42
ENDBRANCH  35  36
ENDBRANCH  34  35
BRANCH  34  44
ATOM     44  C   UNL     1       8.290   0.229   2.350  1.00  0.00     0.243 C 
ATOM     45  O   UNL     1       9.495   0.325   2.135  1.00  0.00    -0.273 OA
ATOM     46  N   UNL     1       7.765   0.358   3.619  1.00  0.00    -0.341 N 
ATOM     47  H   UNL     1       6.781   0.154   3.768  1.00  0.00     0.164 HD
BRANCH  46  48
ATOM     48  C   UNL     1       8.575   0.673   4.798  1.00  0.00     0.196 C 
BRANCH  48  49
ATOM     49  C   UNL     1       8.197   2.042   5.387  1.00  0.00     0.072 C 
BRANCH  49  50
ATOM     50  C   UNL     1       9.322   3.048   5.288  1.00  0.00    -0.045 A 
ATOM     51  C   UNL     1       9.673   3.815   6.409  1.00  0.00     0.007 A 
ATOM     52  C   UNL     1      10.010   3.244   4.084  1.00  0.00     0.007 A 
ATOM     53  C   UNL     1      10.700   4.756   6.326  1.00  0.00     0.046 A 
ATOM     54  C   UNL     1      11.038   4.187   4.002  1.00  0.00     0.046 A 
ATOM     55  C   UNL     1      11.375   4.934   5.125  1.00  0.00     0.115 A 
BRANCH  55  56
ATOM     56  O   UNL     1      12.371   5.865   5.086  1.00  0.00    -0.508 OA
ATOM     57  H   UNL     1      12.902   5.711   4.288  1.00  0.00     0.293 HD
ENDBRANCH  55  56
ENDBRANCH  49  50
ENDBRANCH  48  49
BRANCH  48  58
ATOM     58  C   UNL     1       8.363  -0.419   5.855  1.00  0.00     0.326 C 
ATOM     59  O   UNL     1       7.994  -0.268   7.009  1.00  0.00    -0.250 OA
BRANCH  58  60
ATOM     60  O   UNL     1       8.614  -1.672   5.399  1.00  0.00    -0.480 OA
ATOM     61  H   UNL     1       8.105  -2.243   6.014  1.00  0.00     0.296 HD
ENDBRANCH  58  60
ENDBRANCH  48  58
ENDBRANCH  46  48
ENDBRANCH  34  44
ENDBRANCH  32  34
ENDBRANCH  25  30
ENDBRANCH  23  25
ENDBRANCH   2  23
TORSDOF 28
ENDMDL
MODEL 7
REMARK VINA RESULT:    -6.643      3.389      6.494
REMARK INTER + INTRA:         -22.075
REMARK INTER:                 -17.178
REMARK INTRA:                  -4.897
REMARK UNBOUND:                -5.529
REMARK SMILES CCCCCCC[C@H](N)[C@H](O)C(=O)N[C@H](C)C(=O)N(C)[C@H](CC(C)C)C(=O)N[C@@H](Cc1ccc(O)cc1)C(=O)N[C@@H](Cc1ccc(O)cc1)C(=O)O
REMARK SMILES IDX 18 1 17 2 15 3 16 4 14 5 12 6 13 7 10 9 11 10 8 12 9 13 7 16
REMARK SMILES IDX 6 17 5 18 4 19 3 20 2 21 1 22 19 23 20 24 21 25 22 26 23 27
REMARK SMILES IDX 24 28 25 29 26 30 27 31 28 32 29 34 30 35 31 36 32 37 37 38
REMARK SMILES IDX 33 39 36 40 34 41 35 42 38 44 39 45 40 46 41 48 42 49 43 50
REMARK SMILES IDX 44 51 49 52 45 53 48 54 46 55 47 56 50 58 51 59 52 60
REMARK H PARENT 14 8 11 11 9 14 9 15 28 33 35 43 40 47 47 57 52 61
ROOT
ATOM      1  O   UNL     1       7.497  -1.567   5.938  1.00  0.00    -0.272 OA
ATOM      2  C   UNL     1       8.539  -0.904   6.057  1.00  0.00     0.245 C 
ENDROOT
BRANCH   2   3
ATOM      3  C   UNL     1       8.549   0.289   7.044  1.00  0.00     0.168 C 
ATOM      4  C   UNL     1       8.345   1.606   6.304  1.00  0.00     0.041 C 
BRANCH   3   5
ATOM      5  N   UNL     1       7.642   0.156   8.173  1.00  0.00    -0.342 N 
ATOM      6  C   UNL     1       7.915  -0.684   9.231  1.00  0.00     0.251 C 
ATOM      7  O   UNL     1       8.906  -1.405   9.285  1.00  0.00    -0.272 OA
ATOM      8  H   UNL     1       6.770   0.678   8.225  1.00  0.00     0.164 HD
BRANCH   6   9
ATOM      9  C   UNL     1       6.891  -0.556  10.372  1.00  0.00     0.219 C 
BRANCH   9  10
ATOM     10  O   UNL     1       6.244   0.722  10.392  1.00  0.00    -0.382 OA
ATOM     11  H   UNL     1       5.574   0.653   9.678  1.00  0.00     0.211 HD
ENDBRANCH   9  10
BRANCH   9  12
ATOM     12  C   UNL     1       5.847  -1.703  10.384  1.00  0.00     0.089 C 
BRANCH  12  13
ATOM     13  N   UNL     1       4.495  -1.103  10.458  1.00  0.00    -0.325 NA
ATOM     14  H   UNL     1       4.575  -0.086  10.399  1.00  0.00     0.119 HD
ATOM     15  H   UNL     1       4.102  -1.286  11.384  1.00  0.00     0.119 HD
ENDBRANCH  12  13
BRANCH  12  16
ATOM     16  C   UNL     1       5.922  -2.701   9.204  1.00  0.00     0.022 C 
BRANCH  16  17
ATOM     17  C   UNL     1       4.931  -3.872   9.152  1.00  0.00     0.002 C 
BRANCH  17  18
ATOM     18  C   UNL     1       4.482  -4.276   7.749  1.00  0.00     0.000 C 
BRANCH  18  19
ATOM     19  C   UNL     1       3.298  -3.461   7.214  1.00  0.00    -0.000 C 
BRANCH  19  20
ATOM     20  C   UNL     1       2.214  -3.134   8.245  1.00  0.00    -0.000 C 
BRANCH  20  21
ATOM     21  C   UNL     1       1.495  -1.813   7.961  1.00  0.00    -0.003 C 
ATOM     22  C   UNL     1       0.918  -1.786   6.555  1.00  0.00     0.004 C 
ENDBRANCH  20  21
ENDBRANCH  19  20
ENDBRANCH  18  19
ENDBRANCH  17  18
ENDBRANCH  16  17
ENDBRANCH  12  16
ENDBRANCH   9  12
ENDBRANCH   6   9
ENDBRANCH   3   5
ENDBRANCH   2   3
BRANCH   2  23
ATOM     23  N   UNL     1       9.699  -1.309   5.405  1.00  0.00    -0.332 N 
ATOM     24  C   UNL     1      10.913  -1.749   6.077  1.00  0.00     0.147 C 
BRANCH  23  25
ATOM     25  C   UNL     1       9.721  -1.441   3.923  1.00  0.00     0.174 C 
BRANCH  25  26
ATOM     26  C   UNL     1       8.967  -0.296   3.206  1.00  0.00     0.038 C 
BRANCH  26  27
ATOM     27  C   UNL     1       9.771   0.541   2.186  1.00  0.00    -0.015 C 
ATOM     28  C   UNL     1      11.067   1.095   2.778  1.00  0.00     0.007 C 
ATOM     29  C   UNL     1      10.049  -0.197   0.879  1.00  0.00     0.007 C 
ENDBRANCH  26  27
ENDBRANCH  25  26
BRANCH  25  30
ATOM     30  C   UNL     1       9.249  -2.853   3.506  1.00  0.00     0.243 C 
ATOM     31  O   UNL     1       9.770  -3.871   3.957  1.00  0.00    -0.273 OA
ATOM     32  N   UNL     1       8.220  -2.891   2.601  1.00  0.00    -0.342 N 
ATOM     33  H   UNL     1       7.748  -2.010   2.382  1.00  0.00     0.164 HD
BRANCH  32  34
ATOM     34  C   UNL     1       7.662  -4.139   2.073  1.00  0.00     0.175 C 
BRANCH  34  35
ATOM     35  C   UNL     1       6.543  -4.677   2.977  1.00  0.00     0.070 C 
BRANCH  35  36
ATOM     36  C   UNL     1       5.292  -3.828   2.927  1.00  0.00    -0.045 A 
ATOM     37  C   UNL     1       4.376  -3.989   1.877  1.00  0.00     0.007 A 
ATOM     38  C   UNL     1       5.041  -2.860   3.908  1.00  0.00     0.007 A 
ATOM     39  C   UNL     1       3.226  -3.201   1.815  1.00  0.00     0.046 A 
ATOM     40  C   UNL     1       3.891  -2.069   3.846  1.00  0.00     0.046 A 
ATOM     41  C   UNL     1       2.993  -2.249   2.799  1.00  0.00     0.115 A 
BRANCH  41  42
ATOM     42  O   UNL     1       1.859  -1.498   2.700  1.00  0.00    -0.508 OA
ATOM     43  H   UNL     1       1.180  -1.895   3.270  1.00  0.00     0.293 HD
ENDBRANCH  41  42
ENDBRANCH  35  36
ENDBRANCH  34  35
BRANCH  34  44
ATOM     44  C   UNL     1       7.165  -3.871   0.635  1.00  0.00     0.243 C 
ATOM     45  O   UNL     1       6.757  -4.739  -0.131  1.00  0.00    -0.273 OA
ATOM     46  N   UNL     1       7.340  -2.565   0.228  1.00  0.00    -0.341 N 
ATOM     47  H   UNL     1       7.791  -1.907   0.859  1.00  0.00     0.164 HD
BRANCH  46  48
ATOM     48  C   UNL     1       7.007  -2.088  -1.116  1.00  0.00     0.196 C 
BRANCH  48  49
ATOM     49  C   UNL     1       6.853  -0.558  -1.146  1.00  0.00     0.072 C 
BRANCH  49  50
ATOM     50  C   UNL     1       5.879  -0.051  -0.107  1.00  0.00    -0.045 A 
ATOM     51  C   UNL     1       4.546   0.201  -0.463  1.00  0.00     0.007 A 
ATOM     52  C   UNL     1       6.291   0.192   1.210  1.00  0.00     0.007 A 
ATOM     53  C   UNL     1       3.641   0.682   0.484  1.00  0.00     0.046 A 
ATOM     54  C   UNL     1       5.385   0.674   2.157  1.00  0.00     0.046 A 
ATOM     55  C   UNL     1       4.066   0.914   1.786  1.00  0.00     0.115 A 
BRANCH  55  56
ATOM     56  O   UNL     1       3.152   1.386   2.680  1.00  0.00    -0.508 OA
ATOM     57  H   UNL     1       2.468   0.708   2.805  1.00  0.00     0.293 HD
ENDBRANCH  55  56
ENDBRANCH  49  50
ENDBRANCH  48  49
BRANCH  48  58
ATOM     58  C   UNL     1       8.118  -2.513  -2.086  1.00  0.00     0.326 C 
ATOM     59  O   UNL     1       9.322  -2.413  -1.920  1.00  0.00    -0.250 OA
BRANCH  58  60
ATOM     60  O   UNL     1       7.651  -3.068  -3.234  1.00  0.00    -0.480 OA
ATOM     61  H   UNL     1       8.180  -2.622  -3.931  1.00  0.00     0.296 HD
ENDBRANCH  58  60
ENDBRANCH  48  58
ENDBRANCH  46  48
ENDBRANCH  34  44
ENDBRANCH  32  34
ENDBRANCH  25  30
ENDBRANCH  23  25
ENDBRANCH   2  23
TORSDOF 28
ENDMDL
MODEL 8
REMARK VINA RESULT:    -6.609      4.092      8.836
REMARK INTER + INTRA:         -21.990
REMARK INTER:                 -17.361
REMARK INTRA:                  -4.629
REMARK UNBOUND:                -5.529
REMARK SMILES CCCCCCC[C@H](N)[C@H](O)C(=O)N[C@H](C)C(=O)N(C)[C@H](CC(C)C)C(=O)N[C@@H](Cc1ccc(O)cc1)C(=O)N[C@@H](Cc1ccc(O)cc1)C(=O)O
REMARK SMILES IDX 18 1 17 2 15 3 16 4 14 5 12 6 13 7 10 9 11 10 8 12 9 13 7 16
REMARK SMILES IDX 6 17 5 18 4 19 3 20 2 21 1 22 19 23 20 24 21 25 22 26 23 27
REMARK SMILES IDX 24 28 25 29 26 30 27 31 28 32 29 34 30 35 31 36 32 37 37 38
REMARK SMILES IDX 33 39 36 40 34 41 35 42 38 44 39 45 40 46 41 48 42 49 43 50
REMARK SMILES IDX 44 51 49 52 45 53 48 54 46 55 47 56 50 58 51 59 52 60
REMARK H PARENT 14 8 11 11 9 14 9 15 28 33 35 43 40 47 47 57 52 61
ROOT
ATOM      1  O   UNL     1       4.495  -2.963  -1.383  1.00  0.00    -0.272 OA
ATOM      2  C   UNL     1       5.349  -3.784  -1.750  1.00  0.00     0.245 C 
ENDROOT
BRANCH   2   3
ATOM      3  C   UNL     1       6.204  -3.454  -2.999  1.00  0.00     0.168 C 
ATOM      4  C   UNL     1       7.526  -2.811  -2.596  1.00  0.00     0.041 C 
BRANCH   3   5
ATOM      5  N   UNL     1       6.400  -4.567  -3.916  1.00  0.00    -0.342 N 
ATOM      6  C   UNL     1       5.482  -4.871  -4.899  1.00  0.00     0.251 C 
ATOM      7  O   UNL     1       4.426  -4.265  -5.048  1.00  0.00    -0.272 OA
ATOM      8  H   UNL     1       7.223  -5.164  -3.867  1.00  0.00     0.164 HD
BRANCH   6   9
ATOM      9  C   UNL     1       5.963  -5.990  -5.836  1.00  0.00     0.219 C 
BRANCH   9  10
ATOM     10  O   UNL     1       4.939  -6.951  -6.120  1.00  0.00    -0.382 OA
ATOM     11  H   UNL     1       4.631  -7.230  -5.230  1.00  0.00     0.211 HD
ENDBRANCH   9  10
BRANCH   9  12
ATOM     12  C   UNL     1       6.596  -5.456  -7.147  1.00  0.00     0.089 C 
BRANCH  12  13
ATOM     13  N   UNL     1       7.537  -4.366  -6.802  1.00  0.00    -0.325 NA
ATOM     14  H   UNL     1       7.846  -4.483  -5.835  1.00  0.00     0.119 HD
ATOM     15  H   UNL     1       7.033  -3.477  -6.816  1.00  0.00     0.119 HD
ENDBRANCH  12  13
BRANCH  12  16
ATOM     16  C   UNL     1       7.303  -6.508  -8.036  1.00  0.00     0.022 C 
BRANCH  16  17
ATOM     17  C   UNL     1       8.320  -6.037  -9.085  1.00  0.00     0.002 C 
BRANCH  17  18
ATOM     18  C   UNL     1       7.778  -5.938 -10.509  1.00  0.00     0.000 C 
BRANCH  18  19
ATOM     19  C   UNL     1       6.855  -4.734 -10.743  1.00  0.00    -0.000 C 
BRANCH  19  20
ATOM     20  C   UNL     1       5.409  -5.085 -11.107  1.00  0.00    -0.000 C 
BRANCH  20  21
ATOM     21  C   UNL     1       5.118  -6.586 -11.025  1.00  0.00    -0.003 C 
ATOM     22  C   UNL     1       4.131  -6.899  -9.911  1.00  0.00     0.004 C 
ENDBRANCH  20  21
ENDBRANCH  19  20
ENDBRANCH  18  19
ENDBRANCH  17  18
ENDBRANCH  16  17
ENDBRANCH  12  16
ENDBRANCH   9  12
ENDBRANCH   6   9
ENDBRANCH   3   5
ENDBRANCH   2   3
BRANCH   2  23
ATOM     23  N   UNL     1       5.607  -4.911  -0.978  1.00  0.00    -0.332 N 
ATOM     24  C   UNL     1       5.109  -6.246  -1.274  1.00  0.00     0.147 C 
BRANCH  23  25
ATOM     25  C   UNL     1       6.551  -4.835   0.171  1.00  0.00     0.174 C 
BRANCH  25  26
ATOM     26  C   UNL     1       7.545  -6.019   0.213  1.00  0.00     0.038 C 
BRANCH  26  27
ATOM     27  C   UNL     1       9.017  -5.710  -0.142  1.00  0.00    -0.015 C 
ATOM     28  C   UNL     1       9.399  -4.261   0.162  1.00  0.00     0.007 C 
ATOM     29  C   UNL     1      10.012  -6.674   0.500  1.00  0.00     0.007 C 
ENDBRANCH  26  27
ENDBRANCH  25  26
BRANCH  25  30
ATOM     30  C   UNL     1       5.769  -4.633   1.489  1.00  0.00     0.243 C 
ATOM     31  O   UNL     1       4.539  -4.626   1.521  1.00  0.00    -0.273 OA
ATOM     32  N   UNL     1       6.535  -4.457   2.612  1.00  0.00    -0.342 N 
ATOM     33  H   UNL     1       7.542  -4.616   2.529  1.00  0.00     0.164 HD
BRANCH  32  34
ATOM     34  C   UNL     1       5.966  -4.225   3.943  1.00  0.00     0.175 C 
BRANCH  34  35
ATOM     35  C   UNL     1       7.059  -4.206   5.022  1.00  0.00     0.070 C 
BRANCH  35  36
ATOM     36  C   UNL     1       8.454  -4.252   4.443  1.00  0.00    -0.045 A 
ATOM     37  C   UNL     1       9.137  -5.474   4.354  1.00  0.00     0.007 A 
ATOM     38  C   UNL     1       9.092  -3.082   4.010  1.00  0.00     0.007 A 
ATOM     39  C   UNL     1      10.431  -5.525   3.833  1.00  0.00     0.046 A 
ATOM     40  C   UNL     1      10.388  -3.131   3.490  1.00  0.00     0.046 A 
ATOM     41  C   UNL     1      11.045  -4.354   3.405  1.00  0.00     0.115 A 
BRANCH  41  42
ATOM     42  O   UNL     1      12.310  -4.446   2.905  1.00  0.00    -0.508 OA
ATOM     43  H   UNL     1      12.425  -5.335   2.529  1.00  0.00     0.293 HD
ENDBRANCH  41  42
ENDBRANCH  35  36
ENDBRANCH  34  35
BRANCH  34  44
ATOM     44  C   UNL     1       5.173  -2.899   3.900  1.00  0.00     0.243 C 
ATOM     45  O   UNL     1       4.379  -2.537   4.764  1.00  0.00    -0.273 OA
ATOM     46  N   UNL     1       5.337  -2.199   2.723  1.00  0.00    -0.341 N 
ATOM     47  H   UNL     1       5.915  -2.598   1.988  1.00  0.00     0.164 HD
BRANCH  46  48
ATOM     48  C   UNL     1       4.635  -0.949   2.424  1.00  0.00     0.196 C 
BRANCH  48  49
ATOM     49  C   UNL     1       5.291  -0.205   1.249  1.00  0.00     0.072 C 
BRANCH  49  50
ATOM     50  C   UNL     1       6.800  -0.179   1.347  1.00  0.00    -0.045 A 
ATOM     51  C   UNL     1       7.579  -0.587   0.254  1.00  0.00     0.007 A 
ATOM     52  C   UNL     1       7.439   0.228   2.525  1.00  0.00     0.007 A 
ATOM     53  C   UNL     1       8.971  -0.580   0.338  1.00  0.00     0.046 A 
ATOM     54  C   UNL     1       8.833   0.235   2.609  1.00  0.00     0.046 A 
ATOM     55  C   UNL     1       9.588  -0.169   1.513  1.00  0.00     0.115 A 
BRANCH  55  56
ATOM     56  O   UNL     1      10.951  -0.178   1.554  1.00  0.00    -0.508 OA
ATOM     57  H   UNL     1      11.283  -0.297   0.650  1.00  0.00     0.293 HD
ENDBRANCH  55  56
ENDBRANCH  49  50
ENDBRANCH  48  49
BRANCH  48  58
ATOM     58  C   UNL     1       3.173  -1.268   2.080  1.00  0.00     0.326 C 
ATOM     59  O   UNL     1       2.186  -1.029   2.756  1.00  0.00    -0.250 OA
BRANCH  58  60
ATOM     60  O   UNL     1       3.020  -1.868   0.873  1.00  0.00    -0.480 OA
ATOM     61  H   UNL     1       3.852  -1.644   0.402  1.00  0.00     0.296 HD
ENDBRANCH  58  60
ENDBRANCH  48  58
ENDBRANCH  46  48
ENDBRANCH  34  44
ENDBRANCH  32  34
ENDBRANCH  25  30
ENDBRANCH  23  25
ENDBRANCH   2  23
TORSDOF 28
ENDMDL
MODEL 9
REMARK VINA RESULT:    -6.547      2.816      7.186
REMARK INTER + INTRA:         -21.835
REMARK INTER:                 -15.994
REMARK INTRA:                  -5.842
REMARK UNBOUND:                -5.529
REMARK SMILES CCCCCCC[C@H](N)[C@H](O)C(=O)N[C@H](C)C(=O)N(C)[C@H](CC(C)C)C(=O)N[C@@H](Cc1ccc(O)cc1)C(=O)N[C@@H](Cc1ccc(O)cc1)C(=O)O
REMARK SMILES IDX 18 1 17 2 15 3 16 4 14 5 12 6 13 7 10 9 11 10 8 12 9 13 7 16
REMARK SMILES IDX 6 17 5 18 4 19 3 20 2 21 1 22 19 23 20 24 21 25 22 26 23 27
REMARK SMILES IDX 24 28 25 29 26 30 27 31 28 32 29 34 30 35 31 36 32 37 37 38
REMARK SMILES IDX 33 39 36 40 34 41 35 42 38 44 39 45 40 46 41 48 42 49 43 50
REMARK SMILES IDX 44 51 49 52 45 53 48 54 46 55 47 56 50 58 51 59 52 60
REMARK H PARENT 14 8 11 11 9 14 9 15 28 33 35 43 40 47 47 57 52 61
ROOT
ATOM      1  O   UNL     1       7.294  -4.551   4.025  1.00  0.00    -0.272 OA
ATOM      2  C   UNL     1       8.397  -4.255   4.507  1.00  0.00     0.245 C 
ENDROOT
BRANCH   2   3
ATOM      3  C   UNL     1       9.674  -4.597   3.699  1.00  0.00     0.168 C 
ATOM      4  C   UNL     1      10.024  -6.074   3.838  1.00  0.00     0.041 C 
BRANCH   3   5
ATOM      5  N   UNL     1       9.648  -4.174   2.307  1.00  0.00    -0.342 N 
ATOM      6  C   UNL     1      10.198  -2.978   1.899  1.00  0.00     0.251 C 
ATOM      7  O   UNL     1      10.706  -2.169   2.669  1.00  0.00    -0.272 OA
ATOM      8  H   UNL     1       9.222  -4.746   1.582  1.00  0.00     0.164 HD
BRANCH   6   9
ATOM      9  C   UNL     1      10.182  -2.807   0.371  1.00  0.00     0.219 C 
BRANCH   9  10
ATOM     10  O   UNL     1       9.853  -4.020  -0.317  1.00  0.00    -0.382 OA
ATOM     11  H   UNL     1       9.448  -3.707  -1.156  1.00  0.00     0.211 HD
ENDBRANCH   9  10
BRANCH   9  12
ATOM     12  C   UNL     1       9.274  -1.642  -0.102  1.00  0.00     0.089 C 
BRANCH  12  13
ATOM     13  N   UNL     1      10.051  -0.383  -0.025  1.00  0.00    -0.325 NA
ATOM     14  H   UNL     1       9.681   0.194   0.734  1.00  0.00     0.119 HD
ATOM     15  H   UNL     1       9.888   0.159  -0.876  1.00  0.00     0.119 HD
ENDBRANCH  12  13
BRANCH  12  16
ATOM     16  C   UNL     1       8.651  -1.796  -1.510  1.00  0.00     0.022 C 
BRANCH  16  17
ATOM     17  C   UNL     1       7.159  -1.494  -1.703  1.00  0.00     0.002 C 
BRANCH  17  18
ATOM     18  C   UNL     1       6.271  -2.723  -1.892  1.00  0.00     0.000 C 
BRANCH  18  19
ATOM     19  C   UNL     1       6.122  -3.584  -0.631  1.00  0.00    -0.000 C 
BRANCH  19  20
ATOM     20  C   UNL     1       4.911  -4.522  -0.624  1.00  0.00    -0.000 C 
BRANCH  20  21
ATOM     21  C   UNL     1       5.222  -5.906  -1.200  1.00  0.00    -0.003 C 
ATOM     22  C   UNL     1       6.467  -6.505  -0.564  1.00  0.00     0.004 C 
ENDBRANCH  20  21
ENDBRANCH  19  20
ENDBRANCH  18  19
ENDBRANCH  17  18
ENDBRANCH  16  17
ENDBRANCH  12  16
ENDBRANCH   9  12
ENDBRANCH   6   9
ENDBRANCH   3   5
ENDBRANCH   2   3
BRANCH   2  23
ATOM     23  N   UNL     1       8.467  -3.524   5.688  1.00  0.00    -0.332 N 
ATOM     24  C   UNL     1       7.413  -3.471   6.690  1.00  0.00     0.147 C 
BRANCH  23  25
ATOM     25  C   UNL     1       9.727  -2.827   6.066  1.00  0.00     0.174 C 
BRANCH  25  26
ATOM     26  C   UNL     1      10.267  -3.266   7.447  1.00  0.00     0.038 C 
BRANCH  26  27
ATOM     27  C   UNL     1      11.255  -4.453   7.467  1.00  0.00    -0.015 C 
ATOM     28  C   UNL     1      10.544  -5.805   7.511  1.00  0.00     0.007 C 
ATOM     29  C   UNL     1      12.270  -4.417   6.327  1.00  0.00     0.007 C 
ENDBRANCH  26  27
ENDBRANCH  25  26
BRANCH  25  30
ATOM     30  C   UNL     1       9.551  -1.297   5.925  1.00  0.00     0.243 C 
ATOM     31  O   UNL     1       9.962  -0.514   6.781  1.00  0.00    -0.273 OA
ATOM     32  N   UNL     1       8.905  -0.876   4.792  1.00  0.00    -0.342 N 
ATOM     33  H   UNL     1       8.721  -1.572   4.065  1.00  0.00     0.164 HD
BRANCH  32  34
ATOM     34  C   UNL     1       8.626   0.534   4.505  1.00  0.00     0.175 C 
BRANCH  34  35
ATOM     35  C   UNL     1       9.724   1.153   3.626  1.00  0.00     0.070 C 
BRANCH  35  36
ATOM     36  C   UNL     1      10.198   2.493   4.140  1.00  0.00    -0.045 A 
ATOM     37  C   UNL     1       9.704   2.994   5.354  1.00  0.00     0.007 A 
ATOM     38  C   UNL     1      11.113   3.261   3.408  1.00  0.00     0.007 A 
ATOM     39  C   UNL     1      10.125   4.236   5.829  1.00  0.00     0.046 A 
ATOM     40  C   UNL     1      11.534   4.506   3.883  1.00  0.00     0.046 A 
ATOM     41  C   UNL     1      11.036   4.981   5.091  1.00  0.00     0.115 A 
BRANCH  41  42
ATOM     42  O   UNL     1      11.420   6.191   5.590  1.00  0.00    -0.508 OA
ATOM     43  H   UNL     1      11.961   6.639   4.919  1.00  0.00     0.293 HD
ENDBRANCH  41  42
ENDBRANCH  35  36
ENDBRANCH  34  35
BRANCH  34  44
ATOM     44  C   UNL     1       7.235   0.620   3.837  1.00  0.00     0.243 C 
ATOM     45  O   UNL     1       6.571   1.649   3.748  1.00  0.00    -0.273 OA
ATOM     46  N   UNL     1       6.732  -0.606   3.456  1.00  0.00    -0.341 N 
ATOM     47  H   UNL     1       7.270  -1.445   3.658  1.00  0.00     0.164 HD
BRANCH  46  48
ATOM     48  C   UNL     1       5.404  -0.783   2.865  1.00  0.00     0.196 C 
BRANCH  48  49
ATOM     49  C   UNL     1       5.464  -0.737   1.329  1.00  0.00     0.072 C 
BRANCH  49  50
ATOM     50  C   UNL     1       4.428   0.190   0.734  1.00  0.00    -0.045 A 
ATOM     51  C   UNL     1       4.114   0.104  -0.630  1.00  0.00     0.007 A 
ATOM     52  C   UNL     1       3.787   1.155   1.521  1.00  0.00     0.007 A 
ATOM     53  C   UNL     1       3.170   0.962  -1.193  1.00  0.00     0.046 A 
ATOM     54  C   UNL     1       2.842   2.016   0.957  1.00  0.00     0.046 A 
ATOM     55  C   UNL     1       2.541   1.911  -0.396  1.00  0.00     0.115 A 
BRANCH  55  56
ATOM     56  O   UNL     1       1.626   2.732  -0.985  1.00  0.00    -0.508 OA
ATOM     57  H   UNL     1       1.930   3.649  -0.889  1.00  0.00     0.293 HD
ENDBRANCH  55  56
ENDBRANCH  49  50
ENDBRANCH  48  49
BRANCH  48  58
ATOM     58  C   UNL     1       4.832  -2.134   3.317  1.00  0.00     0.326 C 
ATOM     59  O   UNL     1       4.129  -2.893   2.670  1.00  0.00    -0.250 OA
BRANCH  58  60
ATOM     60  O   UNL     1       5.191  -2.478   4.579  1.00  0.00    -0.480 OA
ATOM     61  H   UNL     1       5.611  -1.661   4.926  1.00  0.00     0.296 HD
ENDBRANCH  58  60
ENDBRANCH  48  58
ENDBRANCH  46  48
ENDBRANCH  34  44
ENDBRANCH  32  34
ENDBRANCH  25  30
ENDBRANCH  23  25
ENDBRANCH   2  23
TORSDOF 28
ENDMDL
MODEL 10
REMARK VINA RESULT:    -6.450      2.277      5.090
REMARK INTER + INTRA:         -21.593
REMARK INTER:                 -15.820
REMARK INTRA:                  -5.773
REMARK UNBOUND:                -5.529
REMARK SMILES CCCCCCC[C@H](N)[C@H](O)C(=O)N[C@H](C)C(=O)N(C)[C@H](CC(C)C)C(=O)N[C@@H](Cc1ccc(O)cc1)C(=O)N[C@@H](Cc1ccc(O)cc1)C(=O)O
REMARK SMILES IDX 18 1 17 2 15 3 16 4 14 5 12 6 13 7 10 9 11 10 8 12 9 13 7 16
REMARK SMILES IDX 6 17 5 18 4 19 3 20 2 21 1 22 19 23 20 24 21 25 22 26 23 27
REMARK SMILES IDX 24 28 25 29 26 30 27 31 28 32 29 34 30 35 31 36 32 37 37 38
REMARK SMILES IDX 33 39 36 40 34 41 35 42 38 44 39 45 40 46 41 48 42 49 43 50
REMARK SMILES IDX 44 51 49 52 45 53 48 54 46 55 47 56 50 58 51 59 52 60
REMARK H PARENT 14 8 11 11 9 14 9 15 28 33 35 43 40 47 47 57 52 61
ROOT
ATOM      1  O   UNL     1       7.862  -3.012   1.413  1.00  0.00    -0.272 OA
ATOM      2  C   UNL     1       8.975  -2.554   1.713  1.00  0.00     0.245 C 
ENDROOT
BRANCH   2   3
ATOM      3  C   UNL     1       9.202  -1.026   1.600  1.00  0.00     0.168 C 
ATOM      4  C   UNL     1       9.017  -0.556   0.161  1.00  0.00     0.041 C 
BRANCH   3   5
ATOM      5  N   UNL     1       8.430  -0.223   2.536  1.00  0.00    -0.342 N 
ATOM      6  C   UNL     1       9.010   0.369   3.638  1.00  0.00     0.251 C 
ATOM      7  O   UNL     1      10.192   0.233   3.935  1.00  0.00    -0.272 OA
ATOM      8  H   UNL     1       7.432  -0.067   2.413  1.00  0.00     0.164 HD
BRANCH   6   9
ATOM      9  C   UNL     1       8.038   1.283   4.402  1.00  0.00     0.219 C 
BRANCH   9  10
ATOM     10  O   UNL     1       6.753   0.682   4.598  1.00  0.00    -0.382 OA
ATOM     11  H   UNL     1       6.967  -0.236   4.875  1.00  0.00     0.211 HD
ENDBRANCH   9  10
BRANCH   9  12
ATOM     12  C   UNL     1       8.616   1.798   5.746  1.00  0.00     0.089 C 
BRANCH  12  13
ATOM     13  N   UNL     1       8.181   3.201   5.935  1.00  0.00    -0.325 NA
ATOM     14  H   UNL     1       8.361   3.481   6.901  1.00  0.00     0.119 HD
ATOM     15  H   UNL     1       7.165   3.249   5.829  1.00  0.00     0.119 HD
ENDBRANCH  12  13
BRANCH  12  16
ATOM     16  C   UNL     1       8.269   0.960   6.999  1.00  0.00     0.022 C 
BRANCH  16  17
ATOM     17  C   UNL     1       9.111  -0.281   7.325  1.00  0.00     0.002 C 
BRANCH  17  18
ATOM     18  C   UNL     1       8.338  -1.598   7.343  1.00  0.00     0.000 C 
BRANCH  18  19
ATOM     19  C   UNL     1       9.184  -2.824   6.973  1.00  0.00    -0.000 C 
BRANCH  19  20
ATOM     20  C   UNL     1       8.733  -3.569   5.713  1.00  0.00    -0.000 C 
BRANCH  20  21
ATOM     21  C   UNL     1       7.484  -2.960   5.072  1.00  0.00    -0.003 C 
ATOM     22  C   UNL     1       6.586  -4.033   4.477  1.00  0.00     0.004 C 
ENDBRANCH  20  21
ENDBRANCH  19  20
ENDBRANCH  18  19
ENDBRANCH  17  18
ENDBRANCH  16  17
ENDBRANCH  12  16
ENDBRANCH   9  12
ENDBRANCH   6   9
ENDBRANCH   3   5
ENDBRANCH   2   3
BRANCH   2  23
ATOM     23  N   UNL     1       9.947  -3.388   2.254  1.00  0.00    -0.332 N 
ATOM     24  C   UNL     1      11.183  -2.925   2.869  1.00  0.00     0.147 C 
BRANCH  23  25
ATOM     25  C   UNL     1       9.710  -4.854   2.351  1.00  0.00     0.174 C 
BRANCH  25  26
ATOM     26  C   UNL     1      10.793  -5.586   3.178  1.00  0.00     0.038 C 
BRANCH  26  27
ATOM     27  C   UNL     1      10.762  -7.131   3.162  1.00  0.00    -0.015 C 
ATOM     28  C   UNL     1      12.120  -7.746   3.496  1.00  0.00     0.007 C 
ATOM     29  C   UNL     1       9.670  -7.725   4.048  1.00  0.00     0.007 C 
ENDBRANCH  26  27
ENDBRANCH  25  26
BRANCH  25  30
ATOM     30  C   UNL     1       9.495  -5.453   0.942  1.00  0.00     0.243 C 
ATOM     31  O   UNL     1      10.337  -5.340   0.052  1.00  0.00    -0.273 OA
ATOM     32  N   UNL     1       8.306  -6.108   0.751  1.00  0.00    -0.342 N 
ATOM     33  H   UNL     1       7.723  -6.282   1.574  1.00  0.00     0.164 HD
BRANCH  32  34
ATOM     34  C   UNL     1       7.920  -6.713  -0.527  1.00  0.00     0.175 C 
BRANCH  34  35
ATOM     35  C   UNL     1       7.647  -8.217  -0.373  1.00  0.00     0.070 C 
BRANCH  35  36
ATOM     36  C   UNL     1       8.858  -8.986   0.104  1.00  0.00    -0.045 A 
ATOM     37  C   UNL     1       8.736  -9.906   1.157  1.00  0.00     0.007 A 
ATOM     38  C   UNL     1      10.116  -8.777  -0.476  1.00  0.00     0.007 A 
ATOM     39  C   UNL     1       9.851 -10.610   1.613  1.00  0.00     0.046 A 
ATOM     40  C   UNL     1      11.233  -9.481  -0.018  1.00  0.00     0.046 A 
ATOM     41  C   UNL     1      11.090 -10.393   1.022  1.00  0.00     0.115 A 
BRANCH  41  42
ATOM     42  O   UNL     1      12.154 -11.098   1.500  1.00  0.00    -0.508 OA
ATOM     43  H   UNL     1      12.964 -10.597   1.306  1.00  0.00     0.293 HD
ENDBRANCH  41  42
ENDBRANCH  35  36
ENDBRANCH  34  35
BRANCH  34  44
ATOM     44  C   UNL     1       6.686  -5.954  -1.063  1.00  0.00     0.243 C 
ATOM     45  O   UNL     1       5.599  -6.475  -1.298  1.00  0.00    -0.273 OA
ATOM     46  N   UNL     1       6.947  -4.639  -1.384  1.00  0.00    -0.341 N 
ATOM     47  H   UNL     1       7.895  -4.284  -1.281  1.00  0.00     0.164 HD
BRANCH  46  48
ATOM     48  C   UNL     1       5.952  -3.740  -1.973  1.00  0.00     0.196 C 
BRANCH  48  49
ATOM     49  C   UNL     1       6.284  -2.267  -1.679  1.00  0.00     0.072 C 
BRANCH  49  50
ATOM     50  C   UNL     1       5.348  -1.651  -0.664  1.00  0.00    -0.045 A 
ATOM     51  C   UNL     1       4.436  -2.461   0.028  1.00  0.00     0.007 A 
ATOM     52  C   UNL     1       5.362  -0.273  -0.414  1.00  0.00     0.007 A 
ATOM     53  C   UNL     1       3.559  -1.902   0.957  1.00  0.00     0.046 A 
ATOM     54  C   UNL     1       4.483   0.287   0.515  1.00  0.00     0.046 A 
ATOM     55  C   UNL     1       3.589  -0.533   1.194  1.00  0.00     0.115 A 
BRANCH  55  56
ATOM     56  O   UNL     1       2.714  -0.026   2.109  1.00  0.00    -0.508 OA
ATOM     57  H   UNL     1       2.799  -0.536   2.930  1.00  0.00     0.293 HD
ENDBRANCH  55  56
ENDBRANCH  49  50
ENDBRANCH  48  49
BRANCH  48  58
ATOM     58  C   UNL     1       5.910  -3.965  -3.490  1.00  0.00     0.326 C 
ATOM     59  O   UNL     1       4.921  -4.122  -4.188  1.00  0.00    -0.250 OA
BRANCH  58  60
ATOM     60  O   UNL     1       7.137  -3.969  -4.071  1.00  0.00    -0.480 OA
ATOM     61  H   UNL     1       7.734  -3.701  -3.339  1.00  0.00     0.296 HD
ENDBRANCH  58  60
ENDBRANCH  48  58
ENDBRANCH  46  48
ENDBRANCH  34  44
ENDBRANCH  32  34
ENDBRANCH  25  30
ENDBRANCH  23  25
ENDBRANCH   2  23
TORSDOF 28
ENDMDL
