MODEL 1
REMARK VINA RESULT:    -8.325      0.000      0.000
REMARK INTER + INTRA:         -32.094
REMARK INTER:                 -24.872
REMARK INTRA:                  -7.222
REMARK UNBOUND:                -7.222
REMARK SMILES C=C1C(=O)N[C@H](C)C(=O)N[C@@H](CC(C)C)C(=O)N[C@@H](C(=O)O)[C@H](C)C(=O)N[C@@H](CCCN=C(N)N)C(=O)N[C@@H](/C=C/C(C)=C/[C@H](C)[C@H](Cc2ccccc2)OC)[C@H](C)C(=O)N[C@@H](C(=O)O)CCC(=O)N1C
REMARK SMILES IDX 39 1 38 2 37 3 36 4 28 6 27 7 25 8 26 9 23 11 24 12 19 13
REMARK SMILES IDX 18 14 16 15 17 16 11 18 10 19 8 20 9 21 12 24 13 25 14 26
REMARK SMILES IDX 15 27 20 28 21 29 22 30 29 32 30 33 31 34 32 35 33 36 34 37
REMARK SMILES IDX 35 38 57 43 58 44 59 45 60 46 61 47 62 49 66 50 67 51 68 52
REMARK SMILES IDX 69 53 70 54 71 55 2 56 1 57 3 58 4 59 5 60 6 62 7 63 63 65
REMARK SMILES IDX 64 66 65 67 40 69 41 70 42 71 44 72 43 73 45 74 46 75 47 76
REMARK SMILES IDX 55 77 56 78 48 79 49 80 50 81 54 82 51 83 53 84 52 85
REMARK H PARENT 38 5 27 10 18 17 10 22 22 31 34 39 34 40 35 41 35 42 61 48
REMARK H PARENT 5 61 65 68
REMARK Flexibility Score:  369.900
ROOT
ATOM      1  C   UNL     1      -9.529   0.965  -4.626  1.00  0.00     0.117 C 
ENDROOT
BRANCH   1   2
ATOM      2  N   UNL     1      -8.857   0.518  -3.406  1.00  0.00    -0.347 N 
ATOM      3  O   UNL     1      -9.298   2.362  -2.112  1.00  0.00    -0.273 OA
ATOM      4  C   UNL     1      -8.874   1.216  -2.213  1.00  0.00     0.243 C 
ATOM      5  H   UNL     1      -8.388  -0.375  -3.398  1.00  0.00     0.164 HD
BRANCH   4   6
ATOM      6  C   UNL     1      -8.158   0.482  -1.051  1.00  0.00     0.171 C 
BRANCH   6   7
ATOM      7  N   UNL     1      -7.471   1.447  -0.179  1.00  0.00    -0.344 N 
ATOM      8  C   UNL     1      -6.101   1.408  -0.029  1.00  0.00     0.226 C 
ATOM      9  O   UNL     1      -5.400   0.570  -0.584  1.00  0.00    -0.275 OA
ATOM     10  H   UNL     1      -8.023   2.112   0.349  1.00  0.00     0.164 HD
BRANCH   8  11
ATOM     11  C   UNL     1      -5.538   2.503   0.860  1.00  0.00     0.109 C 
ATOM     12  C   UNL     1      -6.184   2.442   2.244  1.00  0.00     0.021 C 
BRANCH  11  13
ATOM     13  C   UNL     1      -3.997   2.433   0.861  1.00  0.00     0.204 C 
BRANCH  13  14
ATOM     14  N   UNL     1      -3.419   2.990  -0.366  1.00  0.00    -0.340 N 
ATOM     15  C   UNL     1      -2.385   2.387  -1.048  1.00  0.00     0.243 C 
ATOM     16  O   UNL     1      -1.914   1.303  -0.708  1.00  0.00    -0.273 OA
ATOM     17  H   UNL     1      -3.658   3.954  -0.614  1.00  0.00     0.164 HD
BRANCH  15  18
ATOM     18  C   UNL     1      -1.803   3.258  -2.188  1.00  0.00     0.171 C 
BRANCH  18  19
ATOM     19  N   UNL     1      -0.534   2.647  -2.576  1.00  0.00    -0.343 N 
ATOM     20  C   UNL     1       0.676   3.111  -2.096  1.00  0.00     0.242 CG0
ATOM     21  O   UNL     1       0.751   4.139  -1.428  1.00  0.00    -0.273 OA
ATOM     22  H   UNL     1      -0.536   1.864  -3.220  1.00  0.00     0.164 HD
ATOM     23  G   UNL     1       1.899   2.291  -2.555  1.00  0.00     0.000 G0
ENDBRANCH  18  19
BRANCH  18  24
ATOM     24  C   UNL     1      -2.779   3.326  -3.369  1.00  0.00     0.038 C 
BRANCH  24  25
ATOM     25  C   UNL     1      -3.611   2.046  -3.592  1.00  0.00    -0.015 C 
ATOM     26  C   UNL     1      -3.140   1.247  -4.808  1.00  0.00     0.007 C 
ATOM     27  C   UNL     1      -5.088   2.413  -3.758  1.00  0.00     0.007 C 
ENDBRANCH  24  25
ENDBRANCH  18  24
ENDBRANCH  15  18
ENDBRANCH  13  14
BRANCH  13  28
ATOM     28  C   UNL     1      -3.360   3.173   2.040  1.00  0.00     0.327 C 
ATOM     29  O   UNL     1      -2.944   2.667   3.072  1.00  0.00    -0.250 OA
BRANCH  28  30
ATOM     30  O   UNL     1      -3.393   4.514   1.903  1.00  0.00    -0.480 OA
ATOM     31  H   UNL     1      -4.143   4.676   1.295  1.00  0.00     0.296 HD
ENDBRANCH  28  30
ENDBRANCH  13  28
ENDBRANCH  11  13
ENDBRANCH   8  11
ENDBRANCH   6   7
BRANCH   6  32
ATOM     32  C   UNL     1      -9.188  -0.333  -0.261  1.00  0.00     0.037 C 
BRANCH  32  33
ATOM     33  C   UNL     1      -8.546  -1.111   0.896  1.00  0.00     0.026 C 
BRANCH  33  34
ATOM     34  C   UNL     1      -9.221  -0.827   2.239  1.00  0.00     0.146 C 
BRANCH  34  35
ATOM     35  N   UNL     1      -8.949   0.553   2.617  1.00  0.00    -0.254 NA
ATOM     36  C   UNL     1      -9.418   0.989   3.727  1.00  0.00     0.185 C 
ATOM     37  N   UNL     1      -9.169   2.258   4.089  1.00  0.00    -0.370 N 
ATOM     38  N   UNL     1     -10.160   0.342   4.643  1.00  0.00    -0.370 N 
ATOM     39  H   UNL     1      -8.605   2.808   3.454  1.00  0.00     0.159 HD
ATOM     40  H   UNL     1      -9.349   2.619   5.010  1.00  0.00     0.159 HD
ATOM     41  H   UNL     1     -10.586   0.835   5.411  1.00  0.00     0.159 HD
ATOM     42  H   UNL     1     -10.437  -0.616   4.495  1.00  0.00     0.159 HD
ENDBRANCH  34  35
ENDBRANCH  33  34
ENDBRANCH  32  33
ENDBRANCH   6  32
ENDBRANCH   4   6
ENDBRANCH   1   2
BRANCH   1  43
ATOM     43  C   UNL     1     -10.774   0.062  -4.864  1.00  0.00     0.102 C 
ATOM     44  C   UNL     1     -11.794   0.672  -5.841  1.00  0.00     0.020 C 
BRANCH  43  45
ATOM     45  C   UNL     1     -11.383  -0.396  -3.536  1.00  0.00     0.225 C 
ATOM     46  O   UNL     1     -11.155  -1.494  -3.037  1.00  0.00    -0.275 OA
ATOM     47  N   UNL     1     -12.290   0.471  -2.970  1.00  0.00    -0.342 N 
ATOM     48  H   UNL     1     -12.351   1.421  -3.307  1.00  0.00     0.164 HD
BRANCH  47  49
ATOM     49  C   UNL     1     -12.926   0.180  -1.681  1.00  0.00     0.192 C 
BRANCH  49  50
ATOM     50  C   UNL     1     -14.413  -0.115  -1.896  1.00  0.00     0.047 C 
BRANCH  50  51
ATOM     51  C   UNL     1     -15.025   0.754  -3.002  1.00  0.00     0.103 C 
BRANCH  51  52
ATOM     52  C   UNL     1     -15.950   1.831  -2.439  1.00  0.00     0.226 C 
ATOM     53  O   UNL     1     -15.755   3.014  -2.726  1.00  0.00    -0.275 OA
BRANCH  52  54
ATOM     54  N   UNL     1     -17.039   1.382  -1.670  1.00  0.00    -0.311 N 
ATOM     55  C   UNL     1     -17.983   0.390  -2.202  1.00  0.00     0.153 C 
BRANCH  54  56
ATOM     56  C   UNL     1     -17.262   1.858  -0.367  1.00  0.00     0.102 C 
ATOM     57  C   UNL     1     -16.538   1.513   0.711  1.00  0.00     0.043 C 
BRANCH  56  58
ATOM     58  C   UNL     1     -18.349   2.868  -0.086  1.00  0.00     0.268 C 
ATOM     59  O   UNL     1     -19.524   2.563   0.065  1.00  0.00    -0.268 OA
ATOM     60  N   UNL     1     -17.873   4.151   0.047  1.00  0.00    -0.339 N 
ATOM     61  H   UNL     1     -16.886   4.322  -0.104  1.00  0.00     0.164 HD
BRANCH  60  62
ATOM     62  C   UNL     1     -18.746   5.275   0.382  1.00  0.00     0.168 CG0
ATOM     63  C   UNL     1     -18.836   5.467   1.891  1.00  0.00     0.041 C 
ATOM     64  G   UNL     1     -20.146   5.041  -0.223  1.00  0.00     0.000 G0
ENDBRANCH  60  62
ENDBRANCH  56  58
ENDBRANCH  54  56
ENDBRANCH  52  54
ENDBRANCH  51  52
ENDBRANCH  50  51
ENDBRANCH  49  50
BRANCH  49  65
ATOM     65  C   UNL     1     -12.777   1.352  -0.699  1.00  0.00     0.326 C 
ATOM     66  O   UNL     1     -13.028   1.313   0.497  1.00  0.00    -0.250 OA
BRANCH  65  67
ATOM     67  O   UNL     1     -12.385   2.515  -1.264  1.00  0.00    -0.480 OA
ATOM     68  H   UNL     1     -11.423   2.553  -1.073  1.00  0.00     0.296 HD
ENDBRANCH  65  67
ENDBRANCH  49  65
ENDBRANCH  47  49
ENDBRANCH  43  45
ENDBRANCH   1  43
BRANCH   1  69
ATOM     69  C   UNL     1      -8.458   1.034  -5.699  1.00  0.00    -0.001 C 
ATOM     70  C   UNL     1      -8.175   2.073  -6.505  1.00  0.00     0.001 C 
BRANCH  70  71
ATOM     71  C   UNL     1      -7.124   2.136  -7.522  1.00  0.00    -0.055 C 
ATOM     72  C   UNL     1      -7.233   1.316  -8.588  1.00  0.00    -0.018 C 
ATOM     73  C   UNL     1      -6.000   3.118  -7.312  1.00  0.00     0.044 C 
BRANCH  72  74
ATOM     74  C   UNL     1      -6.306   1.166  -9.787  1.00  0.00     0.038 C 
ATOM     75  C   UNL     1      -7.113   1.552 -11.033  1.00  0.00     0.015 C 
BRANCH  74  76
ATOM     76  C   UNL     1      -5.736  -0.283  -9.801  1.00  0.00     0.128 C 
BRANCH  76  77
ATOM     77  O   UNL     1      -6.452  -1.083 -10.757  1.00  0.00    -0.381 OA
ATOM     78  C   UNL     1      -5.994  -2.426 -10.835  1.00  0.00     0.195 C 
ENDBRANCH  76  77
BRANCH  76  79
ATOM     79  C   UNL     1      -4.200  -0.353  -9.992  1.00  0.00     0.068 C 
BRANCH  79  80
ATOM     80  C   UNL     1      -3.400   0.905  -9.755  1.00  0.00    -0.045 A 
ATOM     81  C   UNL     1      -2.944   1.684 -10.827  1.00  0.00     0.004 A 
ATOM     82  C   UNL     1      -3.075   1.300  -8.449  1.00  0.00     0.004 A 
ATOM     83  C   UNL     1      -2.193   2.839 -10.599  1.00  0.00     0.000 A 
ATOM     84  C   UNL     1      -2.322   2.455  -8.222  1.00  0.00     0.000 A 
ATOM     85  C   UNL     1      -1.883   3.225  -9.297  1.00  0.00     0.000 A 
ENDBRANCH  79  80
ENDBRANCH  76  79
ENDBRANCH  74  76
ENDBRANCH  72  74
ENDBRANCH  70  71
ENDBRANCH   1  69
TORSDOF 17
ENDMDL
MODEL 2
REMARK VINA RESULT:    -8.238      1.767      2.367
REMARK INTER + INTRA:         -31.834
REMARK INTER:                 -24.495
REMARK INTRA:                  -7.339
REMARK UNBOUND:                -7.222
REMARK SMILES C=C1C(=O)N[C@H](C)C(=O)N[C@@H](CC(C)C)C(=O)N[C@@H](C(=O)O)[C@H](C)C(=O)N[C@@H](CCCN=C(N)N)C(=O)N[C@@H](/C=C/C(C)=C/[C@H](C)[C@H](Cc2ccccc2)OC)[C@H](C)C(=O)N[C@@H](C(=O)O)CCC(=O)N1C
REMARK SMILES IDX 39 1 38 2 37 3 36 4 28 6 27 7 25 8 26 9 23 11 24 12 19 13
REMARK SMILES IDX 18 14 16 15 17 16 11 18 10 19 8 20 9 21 12 24 13 25 14 26
REMARK SMILES IDX 15 27 20 28 21 29 22 30 29 32 30 33 31 34 32 35 33 36 34 37
REMARK SMILES IDX 35 38 57 43 58 44 59 45 60 46 61 47 62 49 66 50 67 51 68 52
REMARK SMILES IDX 69 53 70 54 71 55 2 56 1 57 3 58 4 59 5 60 6 62 7 63 63 65
REMARK SMILES IDX 64 66 65 67 40 69 41 70 42 71 44 72 43 73 45 74 46 75 47 76
REMARK SMILES IDX 55 77 56 78 48 79 49 80 50 81 54 82 51 83 53 84 52 85
REMARK H PARENT 38 5 27 10 18 17 10 22 22 31 34 39 34 40 35 41 35 42 61 48
REMARK H PARENT 5 61 65 68
REMARK Flexibility Score:  369.900
ROOT
ATOM      1  C   UNL     1     -10.100   1.147  -4.812  1.00  0.00     0.117 C 
ENDROOT
BRANCH   1   2
ATOM      2  N   UNL     1      -9.275   0.661  -3.705  1.00  0.00    -0.347 N 
ATOM      3  O   UNL     1      -9.237   2.597  -2.471  1.00  0.00    -0.273 OA
ATOM      4  C   UNL     1      -8.985   1.401  -2.575  1.00  0.00     0.243 C 
ATOM      5  H   UNL     1      -8.928  -0.285  -3.726  1.00  0.00     0.164 HD
BRANCH   4   6
ATOM      6  C   UNL     1      -8.165   0.623  -1.515  1.00  0.00     0.171 C 
BRANCH   6   7
ATOM      7  N   UNL     1      -7.525   1.556  -0.573  1.00  0.00    -0.344 N 
ATOM      8  C   UNL     1      -6.284   1.278  -0.043  1.00  0.00     0.226 C 
ATOM      9  O   UNL     1      -5.669   0.252  -0.304  1.00  0.00    -0.275 OA
ATOM     10  H   UNL     1      -8.032   2.382  -0.281  1.00  0.00     0.164 HD
BRANCH   8  11
ATOM     11  C   UNL     1      -5.737   2.363   0.868  1.00  0.00     0.109 C 
ATOM     12  C   UNL     1      -6.323   2.215   2.272  1.00  0.00     0.021 C 
BRANCH  11  13
ATOM     13  C   UNL     1      -4.196   2.367   0.807  1.00  0.00     0.204 C 
BRANCH  13  14
ATOM     14  N   UNL     1      -3.697   2.901  -0.464  1.00  0.00    -0.340 N 
ATOM     15  C   UNL     1      -2.868   2.186  -1.302  1.00  0.00     0.243 C 
ATOM     16  O   UNL     1      -2.537   1.025  -1.070  1.00  0.00    -0.273 OA
ATOM     17  H   UNL     1      -3.808   3.903  -0.642  1.00  0.00     0.164 HD
BRANCH  15  18
ATOM     18  C   UNL     1      -2.304   3.024  -2.476  1.00  0.00     0.171 C 
BRANCH  18  19
ATOM     19  N   UNL     1      -1.166   2.279  -3.013  1.00  0.00    -0.343 N 
ATOM     20  C   UNL     1      -0.029   2.916  -3.471  1.00  0.00     0.242 CG0
ATOM     21  O   UNL     1       0.027   4.139  -3.572  1.00  0.00    -0.273 OA
ATOM     22  H   UNL     1      -1.211   1.267  -3.057  1.00  0.00     0.164 HD
ATOM     23  G   UNL     1       1.095   1.962  -3.925  1.00  0.00     0.000 G0
ENDBRANCH  18  19
BRANCH  18  24
ATOM     24  C   UNL     1      -3.380   3.252  -3.544  1.00  0.00     0.038 C 
BRANCH  24  25
ATOM     25  C   UNL     1      -4.174   1.989  -3.940  1.00  0.00    -0.015 C 
ATOM     26  C   UNL     1      -3.853   1.516  -5.358  1.00  0.00     0.007 C 
ATOM     27  C   UNL     1      -5.675   2.265  -3.816  1.00  0.00     0.007 C 
ENDBRANCH  24  25
ENDBRANCH  18  24
ENDBRANCH  15  18
ENDBRANCH  13  14
BRANCH  13  28
ATOM     28  C   UNL     1      -3.549   3.186   1.928  1.00  0.00     0.327 C 
ATOM     29  O   UNL     1      -2.993   2.741   2.920  1.00  0.00    -0.250 OA
BRANCH  28  30
ATOM     30  O   UNL     1      -3.746   4.514   1.794  1.00  0.00    -0.480 OA
ATOM     31  H   UNL     1      -4.616   4.585   1.349  1.00  0.00     0.296 HD
ENDBRANCH  28  30
ENDBRANCH  13  28
ENDBRANCH  11  13
ENDBRANCH   8  11
ENDBRANCH   6   7
BRANCH   6  32
ATOM     32  C   UNL     1      -9.090  -0.351  -0.777  1.00  0.00     0.037 C 
BRANCH  32  33
ATOM     33  C   UNL     1      -9.813   0.316   0.401  1.00  0.00     0.026 C 
BRANCH  33  34
ATOM     34  C   UNL     1     -11.311   0.490   0.146  1.00  0.00     0.146 C 
BRANCH  34  35
ATOM     35  N   UNL     1     -11.804   1.585   0.970  1.00  0.00    -0.254 NA
ATOM     36  C   UNL     1     -11.909   2.749   0.446  1.00  0.00     0.185 C 
ATOM     37  N   UNL     1     -12.367   3.764   1.195  1.00  0.00    -0.370 N 
ATOM     38  N   UNL     1     -11.618   3.141  -0.807  1.00  0.00    -0.370 N 
ATOM     39  H   UNL     1     -12.619   3.546   2.151  1.00  0.00     0.159 HD
ATOM     40  H   UNL     1     -12.641   4.655   0.817  1.00  0.00     0.159 HD
ATOM     41  H   UNL     1     -11.612   4.115  -1.060  1.00  0.00     0.159 HD
ATOM     42  H   UNL     1     -11.249   2.484  -1.477  1.00  0.00     0.159 HD
ENDBRANCH  34  35
ENDBRANCH  33  34
ENDBRANCH  32  33
ENDBRANCH   6  32
ENDBRANCH   4   6
ENDBRANCH   1   2
BRANCH   1  43
ATOM     43  C   UNL     1     -11.225   0.107  -5.084  1.00  0.00     0.102 C 
ATOM     44  C   UNL     1     -12.219   0.552  -6.171  1.00  0.00     0.020 C 
BRANCH  43  45
ATOM     45  C   UNL     1     -11.890  -0.338  -3.779  1.00  0.00     0.225 C 
ATOM     46  O   UNL     1     -11.388  -1.157  -3.015  1.00  0.00    -0.275 OA
ATOM     47  N   UNL     1     -13.148   0.172  -3.551  1.00  0.00    -0.342 N 
ATOM     48  H   UNL     1     -13.479   0.951  -4.102  1.00  0.00     0.164 HD
BRANCH  47  49
ATOM     49  C   UNL     1     -13.890  -0.139  -2.325  1.00  0.00     0.192 C 
BRANCH  49  50
ATOM     50  C   UNL     1     -15.083  -1.038  -2.661  1.00  0.00     0.047 C 
BRANCH  50  51
ATOM     51  C   UNL     1     -15.988  -0.426  -3.739  1.00  0.00     0.103 C 
BRANCH  51  52
ATOM     52  C   UNL     1     -17.380  -0.098  -3.202  1.00  0.00     0.226 C 
ATOM     53  O   UNL     1     -17.532   0.133  -2.001  1.00  0.00    -0.275 OA
BRANCH  52  54
ATOM     54  N   UNL     1     -18.413  -0.007  -4.153  1.00  0.00    -0.311 N 
ATOM     55  C   UNL     1     -18.125   0.337  -5.552  1.00  0.00     0.153 C 
BRANCH  54  56
ATOM     56  C   UNL     1     -19.753  -0.246  -3.804  1.00  0.00     0.102 C 
ATOM     57  C   UNL     1     -20.455  -1.337  -4.154  1.00  0.00     0.043 C 
BRANCH  56  58
ATOM     58  C   UNL     1     -20.514   0.729  -2.937  1.00  0.00     0.268 C 
ATOM     59  O   UNL     1     -21.413   0.390  -2.179  1.00  0.00    -0.268 OA
ATOM     60  N   UNL     1     -20.049   2.018  -3.038  1.00  0.00    -0.339 N 
ATOM     61  H   UNL     1     -19.307   2.218  -3.698  1.00  0.00     0.164 HD
BRANCH  60  62
ATOM     62  C   UNL     1     -20.602   3.110  -2.238  1.00  0.00     0.168 CG0
ATOM     63  C   UNL     1     -19.512   3.803  -1.431  1.00  0.00     0.041 C 
ATOM     64  G   UNL     1     -21.706   2.563  -1.309  1.00  0.00     0.000 G0
ENDBRANCH  60  62
ENDBRANCH  56  58
ENDBRANCH  54  56
ENDBRANCH  52  54
ENDBRANCH  51  52
ENDBRANCH  50  51
ENDBRANCH  49  50
BRANCH  49  65
ATOM     65  C   UNL     1     -14.393   1.135  -1.629  1.00  0.00     0.326 C 
ATOM     66  O   UNL     1     -14.354   2.264  -2.097  1.00  0.00    -0.250 OA
BRANCH  65  67
ATOM     67  O   UNL     1     -14.856   0.946  -0.374  1.00  0.00    -0.480 OA
ATOM     68  H   UNL     1     -15.237   0.042  -0.401  1.00  0.00     0.296 HD
ENDBRANCH  65  67
ENDBRANCH  49  65
ENDBRANCH  47  49
ENDBRANCH  43  45
ENDBRANCH   1  43
BRANCH   1  69
ATOM     69  C   UNL     1      -9.139   1.499  -5.934  1.00  0.00    -0.001 C 
ATOM     70  C   UNL     1      -8.767   0.720  -6.965  1.00  0.00     0.001 C 
BRANCH  70  71
ATOM     71  C   UNL     1      -7.856   1.079  -8.054  1.00  0.00    -0.055 C 
ATOM     72  C   UNL     1      -8.004   0.439  -9.233  1.00  0.00    -0.018 C 
ATOM     73  C   UNL     1      -6.823   2.142  -7.784  1.00  0.00     0.044 C 
BRANCH  72  74
ATOM     74  C   UNL     1      -7.215   0.603 -10.524  1.00  0.00     0.038 C 
ATOM     75  C   UNL     1      -8.146   1.273 -11.541  1.00  0.00     0.015 C 
BRANCH  74  76
ATOM     76  C   UNL     1      -6.667  -0.789 -10.957  1.00  0.00     0.128 C 
BRANCH  76  77
ATOM     77  O   UNL     1      -6.777  -0.937 -12.383  1.00  0.00    -0.381 OA
ATOM     78  C   UNL     1      -6.010  -2.013 -12.906  1.00  0.00     0.195 C 
ENDBRANCH  76  77
BRANCH  76  79
ATOM     79  C   UNL     1      -5.243  -1.097 -10.431  1.00  0.00     0.068 C 
BRANCH  79  80
ATOM     80  C   UNL     1      -4.295   0.062 -10.237  1.00  0.00    -0.045 A 
ATOM     81  C   UNL     1      -3.859   0.433  -8.958  1.00  0.00     0.004 A 
ATOM     82  C   UNL     1      -3.854   0.807 -11.342  1.00  0.00     0.004 A 
ATOM     83  C   UNL     1      -2.993   1.514  -8.787  1.00  0.00     0.000 A 
ATOM     84  C   UNL     1      -2.989   1.889 -11.169  1.00  0.00     0.000 A 
ATOM     85  C   UNL     1      -2.557   2.241  -9.892  1.00  0.00     0.000 A 
ENDBRANCH  79  80
ENDBRANCH  76  79
ENDBRANCH  74  76
ENDBRANCH  72  74
ENDBRANCH  70  71
ENDBRANCH   1  69
TORSDOF 17
ENDMDL
MODEL 3
REMARK VINA RESULT:    -8.108      5.138     13.747
REMARK INTER + INTRA:         -31.446
REMARK INTER:                 -23.897
REMARK INTRA:                  -7.549
REMARK UNBOUND:                -7.222
REMARK SMILES C=C1C(=O)N[C@H](C)C(=O)N[C@@H](CC(C)C)C(=O)N[C@@H](C(=O)O)[C@H](C)C(=O)N[C@@H](CCCN=C(N)N)C(=O)N[C@@H](/C=C/C(C)=C/[C@H](C)[C@H](Cc2ccccc2)OC)[C@H](C)C(=O)N[C@@H](C(=O)O)CCC(=O)N1C
REMARK SMILES IDX 39 1 38 2 37 3 36 4 28 6 27 7 25 8 26 9 23 11 24 12 19 13
REMARK SMILES IDX 18 14 16 15 17 16 11 18 10 19 8 20 9 21 12 24 13 25 14 26
REMARK SMILES IDX 15 27 20 28 21 29 22 30 29 32 30 33 31 34 32 35 33 36 34 37
REMARK SMILES IDX 35 38 57 43 58 44 59 45 60 46 61 47 62 49 66 50 67 51 68 52
REMARK SMILES IDX 69 53 70 54 71 55 2 56 1 57 3 58 4 59 5 60 6 62 7 63 63 65
REMARK SMILES IDX 64 66 65 67 40 69 41 70 42 71 44 72 43 73 45 74 46 75 47 76
REMARK SMILES IDX 55 77 56 78 48 79 49 80 50 81 54 82 51 83 53 84 52 85
REMARK H PARENT 38 5 27 10 18 17 10 22 22 31 34 39 34 40 35 41 35 42 61 48
REMARK H PARENT 5 61 65 68
REMARK Flexibility Score:  369.900
ROOT
ATOM      1  C   UNL     1      -2.457   1.988  -9.070  1.00  0.00     0.117 C 
ENDROOT
BRANCH   1   2
ATOM      2  N   UNL     1      -3.661   2.169  -8.259  1.00  0.00    -0.347 N 
ATOM      3  O   UNL     1      -3.099   0.753  -6.542  1.00  0.00    -0.273 OA
ATOM      4  C   UNL     1      -3.846   1.606  -7.011  1.00  0.00     0.243 C 
ATOM      5  H   UNL     1      -4.394   2.779  -8.591  1.00  0.00     0.164 HD
BRANCH   4   6
ATOM      6  C   UNL     1      -5.172   2.025  -6.327  1.00  0.00     0.171 C 
BRANCH   6   7
ATOM      7  N   UNL     1      -6.324   1.466  -7.052  1.00  0.00    -0.344 N 
ATOM      8  C   UNL     1      -7.560   2.071  -6.980  1.00  0.00     0.226 C 
ATOM      9  O   UNL     1      -7.767   3.072  -6.305  1.00  0.00    -0.275 OA
ATOM     10  H   UNL     1      -6.208   0.602  -7.567  1.00  0.00     0.164 HD
BRANCH   8  11
ATOM     11  C   UNL     1      -8.632   1.407  -7.827  1.00  0.00     0.109 C 
ATOM     12  C   UNL     1      -8.002   0.763  -9.062  1.00  0.00     0.021 C 
BRANCH  11  13
ATOM     13  C   UNL     1      -9.468   0.451  -6.953  1.00  0.00     0.204 C 
BRANCH  13  14
ATOM     14  N   UNL     1      -9.351   0.764  -5.525  1.00  0.00    -0.340 N 
ATOM     15  C   UNL     1      -9.378  -0.202  -4.542  1.00  0.00     0.243 C 
ATOM     16  O   UNL     1      -9.441  -1.403  -4.799  1.00  0.00    -0.273 OA
ATOM     17  H   UNL     1      -9.449   1.742  -5.238  1.00  0.00     0.164 HD
BRANCH  15  18
ATOM     18  C   UNL     1      -9.448   0.377  -3.108  1.00  0.00     0.171 C 
BRANCH  18  19
ATOM     19  N   UNL     1     -10.379  -0.467  -2.361  1.00  0.00    -0.343 N 
ATOM     20  C   UNL     1     -11.588   0.014  -1.897  1.00  0.00     0.242 CG0
ATOM     21  O   UNL     1     -11.878   1.205  -1.974  1.00  0.00    -0.273 OA
ATOM     22  H   UNL     1     -10.132  -1.432  -2.171  1.00  0.00     0.164 HD
ATOM     23  G   UNL     1     -12.470  -1.044  -1.201  1.00  0.00     0.000 G0
ENDBRANCH  18  19
BRANCH  18  24
ATOM     24  C   UNL     1      -8.058   0.390  -2.460  1.00  0.00     0.038 C 
BRANCH  24  25
ATOM     25  C   UNL     1      -7.986   1.124  -1.104  1.00  0.00    -0.015 C 
ATOM     26  C   UNL     1      -6.970   2.267  -1.111  1.00  0.00     0.007 C 
ATOM     27  C   UNL     1      -7.634   0.127   0.002  1.00  0.00     0.007 C 
ENDBRANCH  24  25
ENDBRANCH  18  24
ENDBRANCH  15  18
ENDBRANCH  13  14
BRANCH  13  28
ATOM     28  C   UNL     1     -10.960   0.466  -7.300  1.00  0.00     0.327 C 
ATOM     29  O   UNL     1     -11.533  -0.300  -8.060  1.00  0.00    -0.250 OA
BRANCH  28  30
ATOM     30  O   UNL     1     -11.617   1.514  -6.763  1.00  0.00    -0.480 OA
ATOM     31  H   UNL     1     -11.159   2.299  -7.130  1.00  0.00     0.296 HD
ENDBRANCH  28  30
ENDBRANCH  13  28
ENDBRANCH  11  13
ENDBRANCH   8  11
ENDBRANCH   6   7
BRANCH   6  32
ATOM     32  C   UNL     1      -5.159   1.550  -4.870  1.00  0.00     0.037 C 
BRANCH  32  33
ATOM     33  C   UNL     1      -4.555   2.597  -3.924  1.00  0.00     0.026 C 
BRANCH  33  34
ATOM     34  C   UNL     1      -3.320   2.077  -3.187  1.00  0.00     0.146 C 
BRANCH  34  35
ATOM     35  N   UNL     1      -2.275   3.089  -3.247  1.00  0.00    -0.254 NA
ATOM     36  C   UNL     1      -1.296   2.914  -4.055  1.00  0.00     0.185 C 
ATOM     37  N   UNL     1      -0.330   3.843  -4.122  1.00  0.00    -0.370 N 
ATOM     38  N   UNL     1      -1.067   1.889  -4.895  1.00  0.00    -0.370 N 
ATOM     39  H   UNL     1      -0.436   4.653  -3.525  1.00  0.00     0.159 HD
ATOM     40  H   UNL     1       0.370   3.866  -4.844  1.00  0.00     0.159 HD
ATOM     41  H   UNL     1      -0.189   1.799  -5.379  1.00  0.00     0.159 HD
ATOM     42  H   UNL     1      -1.705   1.110  -4.939  1.00  0.00     0.159 HD
ENDBRANCH  34  35
ENDBRANCH  33  34
ENDBRANCH  32  33
ENDBRANCH   6  32
ENDBRANCH   4   6
ENDBRANCH   1   2
BRANCH   1  43
ATOM     43  C   UNL     1      -1.931   3.389  -9.495  1.00  0.00     0.102 C 
ATOM     44  C   UNL     1      -1.530   3.468 -10.978  1.00  0.00     0.020 C 
BRANCH  43  45
ATOM     45  C   UNL     1      -0.849   3.886  -8.532  1.00  0.00     0.225 C 
ATOM     46  O   UNL     1      -0.867   3.656  -7.326  1.00  0.00    -0.275 OA
ATOM     47  N   UNL     1       0.114   4.697  -9.089  1.00  0.00    -0.342 N 
ATOM     48  H   UNL     1       0.202   4.751 -10.094  1.00  0.00     0.164 HD
BRANCH  47  49
ATOM     49  C   UNL     1       1.231   5.217  -8.295  1.00  0.00     0.192 C 
BRANCH  49  50
ATOM     50  C   UNL     1       1.880   6.393  -9.029  1.00  0.00     0.047 C 
BRANCH  50  51
ATOM     51  C   UNL     1       1.362   6.540 -10.467  1.00  0.00     0.103 C 
BRANCH  51  52
ATOM     52  C   UNL     1       2.160   5.690 -11.453  1.00  0.00     0.226 C 
ATOM     53  O   UNL     1       1.842   4.514 -11.642  1.00  0.00    -0.275 OA
BRANCH  52  54
ATOM     54  N   UNL     1       3.187   6.345 -12.157  1.00  0.00    -0.311 N 
ATOM     55  C   UNL     1       2.980   6.815 -13.534  1.00  0.00     0.153 C 
BRANCH  54  56
ATOM     56  C   UNL     1       4.442   6.579 -11.571  1.00  0.00     0.102 C 
ATOM     57  C   UNL     1       5.360   5.632 -11.317  1.00  0.00     0.043 C 
BRANCH  56  58
ATOM     58  C   UNL     1       4.882   7.979 -11.214  1.00  0.00     0.268 C 
ATOM     59  O   UNL     1       5.623   8.649 -11.921  1.00  0.00    -0.268 OA
ATOM     60  N   UNL     1       4.314   8.444 -10.052  1.00  0.00    -0.339 N 
ATOM     61  H   UNL     1       3.718   7.822  -9.518  1.00  0.00     0.164 HD
BRANCH  60  62
ATOM     62  C   UNL     1       4.554   9.798  -9.555  1.00  0.00     0.168 CG0
ATOM     63  C   UNL     1       3.756  10.063  -8.284  1.00  0.00     0.041 C 
ATOM     64  G   UNL     1       4.193  10.822 -10.650  1.00  0.00     0.000 G0
ENDBRANCH  60  62
ENDBRANCH  56  58
ENDBRANCH  54  56
ENDBRANCH  52  54
ENDBRANCH  51  52
ENDBRANCH  50  51
ENDBRANCH  49  50
BRANCH  49  65
ATOM     65  C   UNL     1       2.290   4.135  -8.031  1.00  0.00     0.326 C 
ATOM     66  O   UNL     1       2.318   3.389  -7.063  1.00  0.00    -0.250 OA
BRANCH  65  67
ATOM     67  O   UNL     1       3.282   4.082  -8.947  1.00  0.00    -0.480 OA
ATOM     68  H   UNL     1       3.741   3.239  -8.742  1.00  0.00     0.296 HD
ENDBRANCH  65  67
ENDBRANCH  49  65
ENDBRANCH  47  49
ENDBRANCH  43  45
ENDBRANCH   1  43
BRANCH   1  69
ATOM     69  C   UNL     1      -2.819   0.983 -10.148  1.00  0.00    -0.001 C 
ATOM     70  C   UNL     1      -3.917   0.976 -10.924  1.00  0.00     0.001 C 
BRANCH  70  71
ATOM     71  C   UNL     1      -4.246   0.012 -11.976  1.00  0.00    -0.055 C 
ATOM     72  C   UNL     1      -3.625   0.147 -13.167  1.00  0.00    -0.018 C 
ATOM     73  C   UNL     1      -5.246  -1.067 -11.652  1.00  0.00     0.044 C 
BRANCH  72  74
ATOM     74  C   UNL     1      -3.763  -0.697 -14.426  1.00  0.00     0.038 C 
ATOM     75  C   UNL     1      -2.349  -1.112 -14.850  1.00  0.00     0.015 C 
BRANCH  74  76
ATOM     76  C   UNL     1      -4.551   0.120 -15.492  1.00  0.00     0.128 C 
BRANCH  76  77
ATOM     77  O   UNL     1      -3.777   0.229 -16.698  1.00  0.00    -0.381 OA
ATOM     78  C   UNL     1      -3.551   1.569 -17.113  1.00  0.00     0.195 C 
ENDBRANCH  76  77
BRANCH  76  79
ATOM     79  C   UNL     1      -5.988  -0.401 -15.747  1.00  0.00     0.068 C 
BRANCH  79  80
ATOM     80  C   UNL     1      -7.013  -0.214 -14.654  1.00  0.00    -0.045 A 
ATOM     81  C   UNL     1      -7.768  -1.294 -14.181  1.00  0.00     0.004 A 
ATOM     82  C   UNL     1      -7.244   1.059 -14.112  1.00  0.00     0.004 A 
ATOM     83  C   UNL     1      -8.724  -1.111 -13.179  1.00  0.00     0.000 A 
ATOM     84  C   UNL     1      -8.200   1.242 -13.111  1.00  0.00     0.000 A 
ATOM     85  C   UNL     1      -8.939   0.157 -12.644  1.00  0.00     0.000 A 
ENDBRANCH  79  80
ENDBRANCH  76  79
ENDBRANCH  74  76
ENDBRANCH  72  74
ENDBRANCH  70  71
ENDBRANCH   1  69
TORSDOF 17
ENDMDL
MODEL 4
REMARK VINA RESULT:    -8.097      3.081     12.573
REMARK INTER + INTRA:         -31.414
REMARK INTER:                 -23.213
REMARK INTRA:                  -8.201
REMARK UNBOUND:                -7.222
REMARK SMILES C=C1C(=O)N[C@H](C)C(=O)N[C@@H](CC(C)C)C(=O)N[C@@H](C(=O)O)[C@H](C)C(=O)N[C@@H](CCCN=C(N)N)C(=O)N[C@@H](/C=C/C(C)=C/[C@H](C)[C@H](Cc2ccccc2)OC)[C@H](C)C(=O)N[C@@H](C(=O)O)CCC(=O)N1C
REMARK SMILES IDX 39 1 38 2 37 3 36 4 28 6 27 7 25 8 26 9 23 11 24 12 19 13
REMARK SMILES IDX 18 14 16 15 17 16 11 18 10 19 8 20 9 21 12 24 13 25 14 26
REMARK SMILES IDX 15 27 20 28 21 29 22 30 29 32 30 33 31 34 32 35 33 36 34 37
REMARK SMILES IDX 35 38 57 43 58 44 59 45 60 46 61 47 62 49 66 50 67 51 68 52
REMARK SMILES IDX 69 53 70 54 71 55 2 56 1 57 3 58 4 59 5 60 6 62 7 63 63 65
REMARK SMILES IDX 64 66 65 67 40 69 41 70 42 71 44 72 43 73 45 74 46 75 47 76
REMARK SMILES IDX 55 77 56 78 48 79 49 80 50 81 54 82 51 83 53 84 52 85
REMARK H PARENT 38 5 27 10 18 17 10 22 22 31 34 39 34 40 35 41 35 42 61 48
REMARK H PARENT 5 61 65 68
REMARK Flexibility Score:  369.900
ROOT
ATOM      1  C   UNL     1     -11.760   0.496  -6.780  1.00  0.00     0.117 C 
ENDROOT
BRANCH   1   2
ATOM      2  N   UNL     1     -11.702   0.662  -5.328  1.00  0.00    -0.347 N 
ATOM      3  O   UNL     1     -12.363  -1.457  -4.744  1.00  0.00    -0.273 OA
ATOM      4  C   UNL     1     -11.921  -0.359  -4.423  1.00  0.00     0.243 C 
ATOM      5  H   UNL     1     -11.439   1.557  -4.942  1.00  0.00     0.164 HD
BRANCH   4   6
ATOM      6  C   UNL     1     -11.713   0.062  -2.946  1.00  0.00     0.171 C 
BRANCH   6   7
ATOM      7  N   UNL     1     -12.919  -0.230  -2.154  1.00  0.00    -0.344 N 
ATOM      8  C   UNL     1     -13.688   0.793  -1.643  1.00  0.00     0.226 C 
ATOM      9  O   UNL     1     -13.403   1.974  -1.799  1.00  0.00    -0.275 OA
ATOM     10  H   UNL     1     -13.149  -1.194  -1.947  1.00  0.00     0.164 HD
BRANCH   8  11
ATOM     11  C   UNL     1     -14.927   0.331  -0.897  1.00  0.00     0.109 C 
ATOM     12  C   UNL     1     -14.602  -0.898  -0.048  1.00  0.00     0.021 C 
BRANCH  11  13
ATOM     13  C   UNL     1     -15.538   1.513  -0.118  1.00  0.00     0.204 C 
BRANCH  13  14
ATOM     14  N   UNL     1     -16.982   1.635  -0.344  1.00  0.00    -0.340 N 
ATOM     15  C   UNL     1     -17.532   2.599  -1.160  1.00  0.00     0.243 C 
ATOM     16  O   UNL     1     -16.846   3.389  -1.805  1.00  0.00    -0.273 OA
ATOM     17  H   UNL     1     -17.610   1.114   0.274  1.00  0.00     0.164 HD
BRANCH  15  18
ATOM     18  C   UNL     1     -19.077   2.667  -1.081  1.00  0.00     0.171 C 
BRANCH  18  19
ATOM     19  N   UNL     1     -19.402   3.755  -0.161  1.00  0.00    -0.343 N 
ATOM     20  C   UNL     1     -20.609   3.806   0.510  1.00  0.00     0.242 CG0
ATOM     21  O   UNL     1     -21.516   3.014   0.264  1.00  0.00    -0.273 OA
ATOM     22  H   UNL     1     -18.729   4.498  -0.011  1.00  0.00     0.164 HD
ATOM     23  G   UNL     1     -20.739   4.984   1.497  1.00  0.00     0.000 G0
ENDBRANCH  18  19
BRANCH  18  24
ATOM     24  C   UNL     1     -19.680   2.909  -2.471  1.00  0.00     0.038 C 
BRANCH  24  25
ATOM     25  C   UNL     1     -20.146   1.632  -3.202  1.00  0.00    -0.015 C 
ATOM     26  C   UNL     1     -21.215   1.918  -4.257  1.00  0.00     0.007 C 
ATOM     27  C   UNL     1     -20.684   0.623  -2.184  1.00  0.00     0.007 C 
ENDBRANCH  24  25
ENDBRANCH  18  24
ENDBRANCH  15  18
ENDBRANCH  13  14
BRANCH  13  28
ATOM     28  C   UNL     1     -15.322   1.415   1.395  1.00  0.00     0.327 C 
ATOM     29  O   UNL     1     -16.173   1.150   2.231  1.00  0.00    -0.250 OA
BRANCH  28  30
ATOM     30  O   UNL     1     -14.079   1.772   1.776  1.00  0.00    -0.480 OA
ATOM     31  H   UNL     1     -13.876   2.559   1.230  1.00  0.00     0.296 HD
ENDBRANCH  28  30
ENDBRANCH  13  28
ENDBRANCH  11  13
ENDBRANCH   8  11
ENDBRANCH   6   7
BRANCH   6  32
ATOM     32  C   UNL     1     -10.494  -0.675  -2.380  1.00  0.00     0.037 C 
BRANCH  32  33
ATOM     33  C   UNL     1      -9.297   0.262  -2.168  1.00  0.00     0.026 C 
BRANCH  33  34
ATOM     34  C   UNL     1      -9.062   0.587  -0.692  1.00  0.00     0.146 C 
BRANCH  34  35
ATOM     35  N   UNL     1      -9.866   1.748  -0.334  1.00  0.00    -0.254 NA
ATOM     36  C   UNL     1     -10.860   1.586   0.458  1.00  0.00     0.185 C 
ATOM     37  N   UNL     1     -11.604   2.650   0.799  1.00  0.00    -0.370 N 
ATOM     38  N   UNL     1     -11.303   0.457   1.037  1.00  0.00    -0.370 N 
ATOM     39  H   UNL     1     -11.326   3.542   0.411  1.00  0.00     0.159 HD
ATOM     40  H   UNL     1     -12.282   2.639   1.541  1.00  0.00     0.159 HD
ATOM     41  H   UNL     1     -12.181   0.434   1.531  1.00  0.00     0.159 HD
ATOM     42  H   UNL     1     -10.848  -0.425   0.857  1.00  0.00     0.159 HD
ENDBRANCH  34  35
ENDBRANCH  33  34
ENDBRANCH  32  33
ENDBRANCH   6  32
ENDBRANCH   4   6
ENDBRANCH   1   2
BRANCH   1  43
ATOM     43  C   UNL     1     -10.682   1.413  -7.427  1.00  0.00     0.102 C 
ATOM     44  C   UNL     1     -10.802   1.514  -8.957  1.00  0.00     0.020 C 
BRANCH  43  45
ATOM     45  C   UNL     1      -9.279   1.043  -6.937  1.00  0.00     0.225 C 
ATOM     46  O   UNL     1      -9.008  -0.044  -6.436  1.00  0.00    -0.275 OA
ATOM     47  N   UNL     1      -8.343   2.050  -7.006  1.00  0.00    -0.342 N 
ATOM     48  H   UNL     1      -8.537   2.877  -7.553  1.00  0.00     0.164 HD
BRANCH  47  49
ATOM     49  C   UNL     1      -6.950   1.829  -6.605  1.00  0.00     0.192 C 
BRANCH  49  50
ATOM     50  C   UNL     1      -6.759   2.263  -5.150  1.00  0.00     0.047 C 
BRANCH  50  51
ATOM     51  C   UNL     1      -6.148   1.150  -4.286  1.00  0.00     0.103 C 
BRANCH  51  52
ATOM     52  C   UNL     1      -4.829   1.579  -3.647  1.00  0.00     0.226 C 
ATOM     53  O   UNL     1      -4.000   2.200  -4.316  1.00  0.00    -0.275 OA
BRANCH  52  54
ATOM     54  N   UNL     1      -4.674   1.294  -2.278  1.00  0.00    -0.311 N 
ATOM     55  C   UNL     1      -5.128   0.015  -1.716  1.00  0.00     0.153 C 
BRANCH  54  56
ATOM     56  C   UNL     1      -4.076   2.214  -1.401  1.00  0.00     0.102 C 
ATOM     57  C   UNL     1      -4.706   3.256  -0.834  1.00  0.00     0.043 C 
BRANCH  56  58
ATOM     58  C   UNL     1      -2.632   2.062  -0.985  1.00  0.00     0.268 C 
ATOM     59  O   UNL     1      -2.229   1.139  -0.290  1.00  0.00    -0.268 OA
ATOM     60  N   UNL     1      -1.811   3.027  -1.519  1.00  0.00    -0.339 N 
ATOM     61  H   UNL     1      -2.225   3.764  -2.076  1.00  0.00     0.164 HD
BRANCH  60  62
ATOM     62  C   UNL     1      -0.366   3.031  -1.295  1.00  0.00     0.168 CG0
ATOM     63  C   UNL     1       0.309   4.138  -2.096  1.00  0.00     0.041 C 
ATOM     64  G   UNL     1       0.219   1.653  -1.667  1.00  0.00     0.000 G0
ENDBRANCH  60  62
ENDBRANCH  56  58
ENDBRANCH  54  56
ENDBRANCH  52  54
ENDBRANCH  51  52
ENDBRANCH  50  51
ENDBRANCH  49  50
BRANCH  49  65
ATOM     65  C   UNL     1      -5.973   2.607  -7.500  1.00  0.00     0.326 C 
ATOM     66  O   UNL     1      -6.252   3.131  -8.569  1.00  0.00    -0.250 OA
BRANCH  65  67
ATOM     67  O   UNL     1      -4.699   2.639  -7.050  1.00  0.00    -0.480 OA
ATOM     68  H   UNL     1      -4.362   1.738  -7.245  1.00  0.00     0.296 HD
ENDBRANCH  65  67
ENDBRANCH  49  65
ENDBRANCH  47  49
ENDBRANCH  43  45
ENDBRANCH   1  43
BRANCH   1  69
ATOM     69  C   UNL     1     -13.214   0.686  -7.171  1.00  0.00    -0.001 C 
ATOM     70  C   UNL     1     -14.010  -0.192  -7.807  1.00  0.00     0.001 C 
BRANCH  70  71
ATOM     71  C   UNL     1     -15.419  -0.006  -8.159  1.00  0.00    -0.055 C 
ATOM     72  C   UNL     1     -16.168  -1.111  -8.356  1.00  0.00    -0.018 C 
ATOM     73  C   UNL     1     -15.935   1.405  -8.270  1.00  0.00     0.044 C 
BRANCH  72  74
ATOM     74  C   UNL     1     -17.641  -1.224  -8.724  1.00  0.00     0.038 C 
ATOM     75  C   UNL     1     -17.731  -1.164 -10.253  1.00  0.00     0.015 C 
BRANCH  74  76
ATOM     76  C   UNL     1     -18.430  -0.107  -7.979  1.00  0.00     0.128 C 
BRANCH  76  77
ATOM     77  O   UNL     1     -19.245   0.623  -8.911  1.00  0.00    -0.381 OA
ATOM     78  C   UNL     1     -19.832   1.795  -8.361  1.00  0.00     0.195 C 
ENDBRANCH  76  77
BRANCH  76  79
ATOM     79  C   UNL     1     -19.230  -0.613  -6.752  1.00  0.00     0.068 C 
BRANCH  79  80
ATOM     80  C   UNL     1     -18.499  -0.750  -5.439  1.00  0.00    -0.045 A 
ATOM     81  C   UNL     1     -18.843  -1.752  -4.522  1.00  0.00     0.004 A 
ATOM     82  C   UNL     1     -17.474   0.148  -5.103  1.00  0.00     0.004 A 
ATOM     83  C   UNL     1     -18.171  -1.864  -3.303  1.00  0.00     0.000 A 
ATOM     84  C   UNL     1     -16.803   0.036  -3.883  1.00  0.00     0.000 A 
ATOM     85  C   UNL     1     -17.150  -0.970  -2.984  1.00  0.00     0.000 A 
ENDBRANCH  79  80
ENDBRANCH  76  79
ENDBRANCH  74  76
ENDBRANCH  72  74
ENDBRANCH  70  71
ENDBRANCH   1  69
TORSDOF 17
ENDMDL
MODEL 5
REMARK VINA RESULT:    -8.077      3.139      7.424
REMARK INTER + INTRA:         -31.352
REMARK INTER:                 -25.750
REMARK INTRA:                  -5.601
REMARK UNBOUND:                -7.222
REMARK SMILES C=C1C(=O)N[C@H](C)C(=O)N[C@@H](CC(C)C)C(=O)N[C@@H](C(=O)O)[C@H](C)C(=O)N[C@@H](CCCN=C(N)N)C(=O)N[C@@H](/C=C/C(C)=C/[C@H](C)[C@H](Cc2ccccc2)OC)[C@H](C)C(=O)N[C@@H](C(=O)O)CCC(=O)N1C
REMARK SMILES IDX 39 1 38 2 37 3 36 4 28 6 27 7 25 8 26 9 23 11 24 12 19 13
REMARK SMILES IDX 18 14 16 15 17 16 11 18 10 19 8 20 9 21 12 24 13 25 14 26
REMARK SMILES IDX 15 27 20 28 21 29 22 30 29 32 30 33 31 34 32 35 33 36 34 37
REMARK SMILES IDX 35 38 57 43 58 44 59 45 60 46 61 47 62 49 66 50 67 51 68 52
REMARK SMILES IDX 69 53 70 54 71 55 2 56 1 57 3 58 4 59 5 60 6 62 7 63 63 65
REMARK SMILES IDX 64 66 65 67 40 69 41 70 42 71 44 72 43 73 45 74 46 75 47 76
REMARK SMILES IDX 55 77 56 78 48 79 49 80 50 81 54 82 51 83 53 84 52 85
REMARK H PARENT 38 5 27 10 18 17 10 22 22 31 34 39 34 40 35 41 35 42 61 48
REMARK H PARENT 5 61 65 68
REMARK Flexibility Score:  369.900
ROOT
ATOM      1  C   UNL     1     -10.199   1.418  -1.751  1.00  0.00     0.117 C 
ENDROOT
BRANCH   1   2
ATOM      2  N   UNL     1      -9.869   1.503  -3.174  1.00  0.00    -0.347 N 
ATOM      3  O   UNL     1      -8.888  -0.561  -3.392  1.00  0.00    -0.273 OA
ATOM      4  C   UNL     1      -9.320   0.467  -3.904  1.00  0.00     0.243 C 
ATOM      5  H   UNL     1     -10.093   2.344  -3.684  1.00  0.00     0.164 HD
BRANCH   4   6
ATOM      6  C   UNL     1      -9.149   0.788  -5.410  1.00  0.00     0.171 C 
BRANCH   6   7
ATOM      7  N   UNL     1      -7.759   1.177  -5.698  1.00  0.00    -0.344 N 
ATOM      8  C   UNL     1      -7.432   2.496  -5.929  1.00  0.00     0.226 C 
ATOM      9  O   UNL     1      -8.267   3.392  -5.929  1.00  0.00    -0.275 OA
ATOM     10  H   UNL     1      -7.053   0.455  -5.773  1.00  0.00     0.164 HD
BRANCH   8  11
ATOM     11  C   UNL     1      -5.951   2.742  -6.157  1.00  0.00     0.109 C 
ATOM     12  C   UNL     1      -5.266   3.092  -4.835  1.00  0.00     0.021 C 
BRANCH  11  13
ATOM     13  C   UNL     1      -5.333   1.547  -6.911  1.00  0.00     0.204 C 
BRANCH  13  14
ATOM     14  N   UNL     1      -5.594   1.609  -8.352  1.00  0.00    -0.340 N 
ATOM     15  C   UNL     1      -6.396   0.700  -9.007  1.00  0.00     0.243 C 
ATOM     16  O   UNL     1      -6.999  -0.195  -8.417  1.00  0.00    -0.273 OA
ATOM     17  H   UNL     1      -5.010   2.229  -8.920  1.00  0.00     0.164 HD
BRANCH  15  18
ATOM     18  C   UNL     1      -6.358   0.839 -10.549  1.00  0.00     0.171 C 
BRANCH  18  19
ATOM     19  N   UNL     1      -4.951   0.977 -10.922  1.00  0.00    -0.343 N 
ATOM     20  C   UNL     1      -4.565   1.608 -12.088  1.00  0.00     0.242 CG0
ATOM     21  O   UNL     1      -5.387   1.965 -12.929  1.00  0.00    -0.273 OA
ATOM     22  H   UNL     1      -4.236   0.594 -10.314  1.00  0.00     0.164 HD
ATOM     23  G   UNL     1      -3.038   1.727 -12.273  1.00  0.00     0.000 G0
ENDBRANCH  18  19
BRANCH  18  24
ATOM     24  C   UNL     1      -7.000  -0.382 -11.219  1.00  0.00     0.038 C 
BRANCH  24  25
ATOM     25  C   UNL     1      -5.997  -1.431 -11.743  1.00  0.00    -0.015 C 
ATOM     26  C   UNL     1      -6.309  -1.875 -13.173  1.00  0.00     0.007 C 
ATOM     27  C   UNL     1      -5.993  -2.648 -10.815  1.00  0.00     0.007 C 
ENDBRANCH  24  25
ENDBRANCH  18  24
ENDBRANCH  15  18
ENDBRANCH  13  14
BRANCH  13  28
ATOM     28  C   UNL     1      -3.816   1.438  -6.729  1.00  0.00     0.327 C 
ATOM     29  O   UNL     1      -3.235   0.768  -5.888  1.00  0.00    -0.250 OA
BRANCH  28  30
ATOM     30  O   UNL     1      -3.126   2.268  -7.536  1.00  0.00    -0.480 OA
ATOM     31  H   UNL     1      -3.179   1.845  -8.419  1.00  0.00     0.296 HD
ENDBRANCH  28  30
ENDBRANCH  13  28
ENDBRANCH  11  13
ENDBRANCH   8  11
ENDBRANCH   6   7
BRANCH   6  32
ATOM     32  C   UNL     1      -9.556  -0.438  -6.236  1.00  0.00     0.037 C 
BRANCH  32  33
ATOM     33  C   UNL     1     -10.424  -0.060  -7.444  1.00  0.00     0.026 C 
BRANCH  33  34
ATOM     34  C   UNL     1     -11.442   1.033  -7.114  1.00  0.00     0.146 C 
BRANCH  34  35
ATOM     35  N   UNL     1     -12.284   0.576  -6.019  1.00  0.00    -0.254 NA
ATOM     36  C   UNL     1     -13.195  -0.291  -6.264  1.00  0.00     0.185 C 
ATOM     37  N   UNL     1     -13.974  -0.724  -5.261  1.00  0.00    -0.370 N 
ATOM     38  N   UNL     1     -13.514  -0.873  -7.434  1.00  0.00    -0.370 N 
ATOM     39  H   UNL     1     -13.788  -0.339  -4.343  1.00  0.00     0.159 HD
ATOM     40  H   UNL     1     -14.585  -1.519  -5.334  1.00  0.00     0.159 HD
ATOM     41  H   UNL     1     -14.343  -1.436  -7.527  1.00  0.00     0.159 HD
ATOM     42  H   UNL     1     -13.020  -0.630  -8.279  1.00  0.00     0.159 HD
ENDBRANCH  34  35
ENDBRANCH  33  34
ENDBRANCH  32  33
ENDBRANCH   6  32
ENDBRANCH   4   6
ENDBRANCH   1   2
BRANCH   1  43
ATOM     43  C   UNL     1     -11.453   2.298  -1.480  1.00  0.00     0.102 C 
ATOM     44  C   UNL     1     -11.417   3.010  -0.116  1.00  0.00     0.020 C 
BRANCH  43  45
ATOM     45  C   UNL     1     -12.743   1.514  -1.737  1.00  0.00     0.225 C 
ATOM     46  O   UNL     1     -13.025   1.026  -2.828  1.00  0.00    -0.275 OA
ATOM     47  N   UNL     1     -13.626   1.464  -0.684  1.00  0.00    -0.342 N 
ATOM     48  H   UNL     1     -13.319   1.733   0.240  1.00  0.00     0.164 HD
BRANCH  47  49
ATOM     49  C   UNL     1     -14.885   0.718  -0.774  1.00  0.00     0.192 C 
BRANCH  49  50
ATOM     50  C   UNL     1     -15.907   1.314   0.197  1.00  0.00     0.047 C 
BRANCH  50  51
ATOM     51  C   UNL     1     -17.311   1.404  -0.417  1.00  0.00     0.103 C 
BRANCH  51  52
ATOM     52  C   UNL     1     -17.319   2.212  -1.713  1.00  0.00     0.226 C 
ATOM     53  O   UNL     1     -16.855   3.354  -1.723  1.00  0.00    -0.275 OA
BRANCH  52  54
ATOM     54  N   UNL     1     -17.801   1.554  -2.860  1.00  0.00    -0.311 N 
ATOM     55  C   UNL     1     -16.879   0.927  -3.816  1.00  0.00     0.153 C 
BRANCH  54  56
ATOM     56  C   UNL     1     -19.177   1.466  -3.129  1.00  0.00     0.102 C 
ATOM     57  C   UNL     1     -19.751   0.530  -3.903  1.00  0.00     0.043 C 
BRANCH  56  58
ATOM     58  C   UNL     1     -20.153   2.435  -2.504  1.00  0.00     0.268 C 
ATOM     59  O   UNL     1     -20.350   3.562  -2.938  1.00  0.00    -0.268 OA
ATOM     60  N   UNL     1     -20.841   1.898  -1.442  1.00  0.00    -0.339 N 
ATOM     61  H   UNL     1     -20.612   0.960  -1.137  1.00  0.00     0.164 HD
BRANCH  60  62
ATOM     62  C   UNL     1     -21.879   2.643  -0.730  1.00  0.00     0.168 CG0
ATOM     63  C   UNL     1     -21.307   3.341   0.498  1.00  0.00     0.041 C 
ATOM     64  G   UNL     1     -23.021   1.685  -0.332  1.00  0.00     0.000 G0
ENDBRANCH  60  62
ENDBRANCH  56  58
ENDBRANCH  54  56
ENDBRANCH  52  54
ENDBRANCH  51  52
ENDBRANCH  50  51
ENDBRANCH  49  50
BRANCH  49  65
ATOM     65  C   UNL     1     -14.686  -0.771  -0.453  1.00  0.00     0.326 C 
ATOM     66  O   UNL     1     -15.262  -1.700  -1.000  1.00  0.00    -0.250 OA
BRANCH  65  67
ATOM     67  O   UNL     1     -13.833  -1.019   0.566  1.00  0.00    -0.480 OA
ATOM     68  H   UNL     1     -13.119  -0.358   0.436  1.00  0.00     0.296 HD
ENDBRANCH  65  67
ENDBRANCH  49  65
ENDBRANCH  47  49
ENDBRANCH  43  45
ENDBRANCH   1  43
BRANCH   1  69
ATOM     69  C   UNL     1      -8.915   1.718  -0.999  1.00  0.00    -0.001 C 
ATOM     70  C   UNL     1      -8.397   1.036   0.038  1.00  0.00     0.001 C 
BRANCH  70  71
ATOM     71  C   UNL     1      -7.146   1.323   0.742  1.00  0.00    -0.055 C 
ATOM     72  C   UNL     1      -6.052   1.587  -0.004  1.00  0.00    -0.018 C 
ATOM     73  C   UNL     1      -7.169   1.312   2.249  1.00  0.00     0.044 C 
BRANCH  72  74
ATOM     74  C   UNL     1      -4.636   1.918   0.446  1.00  0.00     0.038 C 
ATOM     75  C   UNL     1      -4.610   3.410   0.798  1.00  0.00     0.015 C 
BRANCH  74  76
ATOM     76  C   UNL     1      -3.643   1.493  -0.675  1.00  0.00     0.128 C 
BRANCH  76  77
ATOM     77  O   UNL     1      -4.022   0.213  -1.208  1.00  0.00    -0.381 OA
ATOM     78  C   UNL     1      -4.429   0.260  -2.569  1.00  0.00     0.195 C 
ENDBRANCH  76  77
BRANCH  76  79
ATOM     79  C   UNL     1      -3.440   2.565  -1.775  1.00  0.00     0.068 C 
BRANCH  79  80
ATOM     80  C   UNL     1      -2.027   2.988  -2.099  1.00  0.00    -0.045 A 
ATOM     81  C   UNL     1      -1.119   3.310  -1.082  1.00  0.00     0.004 A 
ATOM     82  C   UNL     1      -1.609   3.091  -3.434  1.00  0.00     0.004 A 
ATOM     83  C   UNL     1       0.182   3.713  -1.391  1.00  0.00     0.000 A 
ATOM     84  C   UNL     1      -0.308   3.495  -3.742  1.00  0.00     0.000 A 
ATOM     85  C   UNL     1       0.588   3.805  -2.720  1.00  0.00     0.000 A 
ENDBRANCH  79  80
ENDBRANCH  76  79
ENDBRANCH  74  76
ENDBRANCH  72  74
ENDBRANCH  70  71
ENDBRANCH   1  69
TORSDOF 17
ENDMDL
MODEL 6
REMARK VINA RESULT:    -8.054      4.171     12.218
REMARK INTER + INTRA:         -31.284
REMARK INTER:                 -24.388
REMARK INTRA:                  -6.896
REMARK UNBOUND:                -7.222
REMARK SMILES C=C1C(=O)N[C@H](C)C(=O)N[C@@H](CC(C)C)C(=O)N[C@@H](C(=O)O)[C@H](C)C(=O)N[C@@H](CCCN=C(N)N)C(=O)N[C@@H](/C=C/C(C)=C/[C@H](C)[C@H](Cc2ccccc2)OC)[C@H](C)C(=O)N[C@@H](C(=O)O)CCC(=O)N1C
REMARK SMILES IDX 39 1 38 2 37 3 36 4 28 6 27 7 25 8 26 9 23 11 24 12 19 13
REMARK SMILES IDX 18 14 16 15 17 16 11 18 10 19 8 20 9 21 12 24 13 25 14 26
REMARK SMILES IDX 15 27 20 28 21 29 22 30 29 32 30 33 31 34 32 35 33 36 34 37
REMARK SMILES IDX 35 38 57 43 58 44 59 45 60 46 61 47 62 49 66 50 67 51 68 52
REMARK SMILES IDX 69 53 70 54 71 55 2 56 1 57 3 58 4 59 5 60 6 62 7 63 63 65
REMARK SMILES IDX 64 66 65 67 40 69 41 70 42 71 44 72 43 73 45 74 46 75 47 76
REMARK SMILES IDX 55 77 56 78 48 79 49 80 50 81 54 82 51 83 53 84 52 85
REMARK H PARENT 38 5 27 10 18 17 10 22 22 31 34 39 34 40 35 41 35 42 61 48
REMARK H PARENT 5 61 65 68
REMARK Flexibility Score:  369.900
ROOT
ATOM      1  C   UNL     1      -8.470   1.385  -8.963  1.00  0.00     0.117 C 
ENDROOT
BRANCH   1   2
ATOM      2  N   UNL     1      -9.699   0.964  -8.288  1.00  0.00    -0.347 N 
ATOM      3  O   UNL     1     -11.170   2.264  -9.477  1.00  0.00    -0.273 OA
ATOM      4  C   UNL     1     -10.965   1.371  -8.662  1.00  0.00     0.243 C 
ATOM      5  H   UNL     1      -9.644   0.299  -7.532  1.00  0.00     0.164 HD
BRANCH   4   6
ATOM      6  C   UNL     1     -12.100   0.712  -7.838  1.00  0.00     0.171 C 
BRANCH   6   7
ATOM      7  N   UNL     1     -11.636   0.406  -6.476  1.00  0.00    -0.344 N 
ATOM      8  C   UNL     1     -12.090  -0.714  -5.813  1.00  0.00     0.226 C 
ATOM      9  O   UNL     1     -12.905  -1.486  -6.304  1.00  0.00    -0.275 OA
ATOM     10  H   UNL     1     -11.014   1.056  -6.011  1.00  0.00     0.164 HD
BRANCH   8  11
ATOM     11  C   UNL     1     -11.477  -0.920  -4.439  1.00  0.00     0.109 C 
ATOM     12  C   UNL     1     -10.026  -1.384  -4.575  1.00  0.00     0.021 C 
BRANCH  11  13
ATOM     13  C   UNL     1     -11.675   0.347  -3.584  1.00  0.00     0.204 C 
BRANCH  13  14
ATOM     14  N   UNL     1     -12.208   0.037  -2.254  1.00  0.00    -0.340 N 
ATOM     15  C   UNL     1     -13.055   0.883  -1.571  1.00  0.00     0.243 C 
ATOM     16  O   UNL     1     -13.473   1.933  -2.057  1.00  0.00    -0.273 OA
ATOM     17  H   UNL     1     -11.785  -0.738  -1.736  1.00  0.00     0.164 HD
BRANCH  15  18
ATOM     18  C   UNL     1     -13.318   0.447  -0.109  1.00  0.00     0.171 C 
BRANCH  18  19
ATOM     19  N   UNL     1     -13.585   1.667   0.650  1.00  0.00    -0.343 N 
ATOM     20  C   UNL     1     -12.616   2.265   1.434  1.00  0.00     0.242 CG0
ATOM     21  O   UNL     1     -11.529   1.728   1.634  1.00  0.00    -0.273 OA
ATOM     22  H   UNL     1     -14.507   2.087   0.609  1.00  0.00     0.164 HD
ATOM     23  G   UNL     1     -13.059   3.586   2.095  1.00  0.00     0.000 G0
ENDBRANCH  18  19
BRANCH  18  24
ATOM     24  C   UNL     1     -14.499  -0.528  -0.039  1.00  0.00     0.038 C 
BRANCH  24  25
ATOM     25  C   UNL     1     -15.405  -0.535  -1.289  1.00  0.00    -0.015 C 
ATOM     26  C   UNL     1     -16.723   0.206  -1.061  1.00  0.00     0.007 C 
ATOM     27  C   UNL     1     -15.691  -1.978  -1.710  1.00  0.00     0.007 C 
ENDBRANCH  24  25
ENDBRANCH  18  24
ENDBRANCH  15  18
ENDBRANCH  13  14
BRANCH  13  28
ATOM     28  C   UNL     1     -10.384   1.146  -3.381  1.00  0.00     0.327 C 
ATOM     29  O   UNL     1      -9.898   1.945  -4.167  1.00  0.00    -0.250 OA
BRANCH  28  30
ATOM     30  O   UNL     1      -9.723   0.806  -2.257  1.00  0.00    -0.480 OA
ATOM     31  H   UNL     1      -8.780   0.805  -2.523  1.00  0.00     0.296 HD
ENDBRANCH  28  30
ENDBRANCH  13  28
ENDBRANCH  11  13
ENDBRANCH   8  11
ENDBRANCH   6   7
BRANCH   6  32
ATOM     32  C   UNL     1     -13.310   1.653  -7.806  1.00  0.00     0.037 C 
BRANCH  32  33
ATOM     33  C   UNL     1     -14.566   1.001  -8.399  1.00  0.00     0.026 C 
BRANCH  33  34
ATOM     34  C   UNL     1     -15.586   0.613  -7.328  1.00  0.00     0.146 C 
BRANCH  34  35
ATOM     35  N   UNL     1     -15.397   1.472  -6.167  1.00  0.00    -0.254 NA
ATOM     36  C   UNL     1     -15.896   1.106  -5.045  1.00  0.00     0.185 C 
ATOM     37  N   UNL     1     -15.724   1.887  -3.967  1.00  0.00    -0.370 N 
ATOM     38  N   UNL     1     -16.606   0.001  -4.756  1.00  0.00    -0.370 N 
ATOM     39  H   UNL     1     -15.189   2.736  -4.102  1.00  0.00     0.159 HD
ATOM     40  H   UNL     1     -15.929   1.593  -3.028  1.00  0.00     0.159 HD
ATOM     41  H   UNL     1     -17.064  -0.106  -3.865  1.00  0.00     0.159 HD
ATOM     42  H   UNL     1     -16.826  -0.670  -5.475  1.00  0.00     0.159 HD
ENDBRANCH  34  35
ENDBRANCH  33  34
ENDBRANCH  32  33
ENDBRANCH   6  32
ENDBRANCH   4   6
ENDBRANCH   1   2
BRANCH   1  43
ATOM     43  C   UNL     1      -8.062   0.281  -9.981  1.00  0.00     0.102 C 
ATOM     44  C   UNL     1      -6.558  -0.041  -9.965  1.00  0.00     0.020 C 
BRANCH  43  45
ATOM     45  C   UNL     1      -8.618   0.587 -11.376  1.00  0.00     0.225 C 
ATOM     46  O   UNL     1      -8.664  -0.246 -12.276  1.00  0.00    -0.275 OA
ATOM     47  N   UNL     1      -8.982   1.896 -11.594  1.00  0.00    -0.342 N 
ATOM     48  H   UNL     1      -9.081   2.525 -10.810  1.00  0.00     0.164 HD
BRANCH  47  49
ATOM     49  C   UNL     1      -9.563   2.326 -12.869  1.00  0.00     0.192 C 
BRANCH  49  50
ATOM     50  C   UNL     1      -8.520   3.109 -13.671  1.00  0.00     0.047 C 
BRANCH  50  51
ATOM     51  C   UNL     1      -7.766   2.221 -14.670  1.00  0.00     0.103 C 
BRANCH  51  52
ATOM     52  C   UNL     1      -6.416   1.760 -14.123  1.00  0.00     0.226 C 
ATOM     53  O   UNL     1      -6.003   2.216 -13.055  1.00  0.00    -0.275 OA
BRANCH  52  54
ATOM     54  N   UNL     1      -5.749   0.762 -14.858  1.00  0.00    -0.311 N 
ATOM     55  C   UNL     1      -6.007   0.580 -16.292  1.00  0.00     0.153 C 
BRANCH  54  56
ATOM     56  C   UNL     1      -4.811  -0.090 -14.252  1.00  0.00     0.102 C 
ATOM     57  C   UNL     1      -5.118  -1.139 -13.471  1.00  0.00     0.043 C 
BRANCH  56  58
ATOM     58  C   UNL     1      -3.331   0.097 -14.483  1.00  0.00     0.268 C 
ATOM     59  O   UNL     1      -2.748   1.152 -14.273  1.00  0.00    -0.268 OA
ATOM     60  N   UNL     1      -2.698  -1.053 -14.890  1.00  0.00    -0.339 N 
ATOM     61  H   UNL     1      -3.254  -1.884 -15.053  1.00  0.00     0.164 HD
BRANCH  60  62
ATOM     62  C   UNL     1      -1.254  -1.111 -15.112  1.00  0.00     0.168 CG0
ATOM     63  C   UNL     1      -0.497  -1.111 -13.790  1.00  0.00     0.041 C 
ATOM     64  G   UNL     1      -0.817   0.079 -15.991  1.00  0.00     0.000 G0
ENDBRANCH  60  62
ENDBRANCH  56  58
ENDBRANCH  54  56
ENDBRANCH  52  54
ENDBRANCH  51  52
ENDBRANCH  50  51
ENDBRANCH  49  50
BRANCH  49  65
ATOM     65  C   UNL     1     -10.806   3.204 -12.658  1.00  0.00     0.326 C 
ATOM     66  O   UNL     1     -10.816   4.308 -12.133  1.00  0.00    -0.250 OA
BRANCH  65  67
ATOM     67  O   UNL     1     -11.969   2.639 -13.053  1.00  0.00    -0.480 OA
ATOM     68  H   UNL     1     -12.167   3.088 -13.903  1.00  0.00     0.296 HD
ENDBRANCH  65  67
ENDBRANCH  49  65
ENDBRANCH  47  49
ENDBRANCH  43  45
ENDBRANCH   1  43
BRANCH   1  69
ATOM     69  C   UNL     1      -7.494   1.768  -7.866  1.00  0.00    -0.001 C 
ATOM     70  C   UNL     1      -7.526   1.392  -6.575  1.00  0.00     0.001 C 
BRANCH  70  71
ATOM     71  C   UNL     1      -6.565   1.752  -5.530  1.00  0.00    -0.055 C 
ATOM     72  C   UNL     1      -6.566   1.017  -4.398  1.00  0.00    -0.018 C 
ATOM     73  C   UNL     1      -5.640   2.910  -5.795  1.00  0.00     0.044 C 
BRANCH  72  74
ATOM     74  C   UNL     1      -5.690   1.154  -3.161  1.00  0.00     0.038 C 
ATOM     75  C   UNL     1      -5.540  -0.247  -2.555  1.00  0.00     0.015 C 
BRANCH  74  76
ATOM     76  C   UNL     1      -6.327   2.211  -2.211  1.00  0.00     0.128 C 
BRANCH  76  77
ATOM     77  O   UNL     1      -7.119   1.555  -1.207  1.00  0.00    -0.381 OA
ATOM     78  C   UNL     1      -6.746   1.889   0.123  1.00  0.00     0.195 C 
ENDBRANCH  76  77
BRANCH  76  79
ATOM     79  C   UNL     1      -5.308   3.213  -1.612  1.00  0.00     0.068 C 
BRANCH  79  80
ATOM     80  C   UNL     1      -3.845   2.999  -1.913  1.00  0.00    -0.045 A 
ATOM     81  C   UNL     1      -2.961   2.555  -0.921  1.00  0.00     0.004 A 
ATOM     82  C   UNL     1      -3.339   3.271  -3.194  1.00  0.00     0.004 A 
ATOM     83  C   UNL     1      -1.606   2.373  -1.204  1.00  0.00     0.000 A 
ATOM     84  C   UNL     1      -1.983   3.089  -3.475  1.00  0.00     0.000 A 
ATOM     85  C   UNL     1      -1.118   2.639  -2.481  1.00  0.00     0.000 A 
ENDBRANCH  79  80
ENDBRANCH  76  79
ENDBRANCH  74  76
ENDBRANCH  72  74
ENDBRANCH  70  71
ENDBRANCH   1  69
TORSDOF 17
ENDMDL
MODEL 7
REMARK VINA RESULT:    -8.044      5.217     14.980
REMARK INTER + INTRA:         -31.255
REMARK INTER:                 -24.291
REMARK INTRA:                  -6.963
REMARK UNBOUND:                -7.222
REMARK SMILES C=C1C(=O)N[C@H](C)C(=O)N[C@@H](CC(C)C)C(=O)N[C@@H](C(=O)O)[C@H](C)C(=O)N[C@@H](CCCN=C(N)N)C(=O)N[C@@H](/C=C/C(C)=C/[C@H](C)[C@H](Cc2ccccc2)OC)[C@H](C)C(=O)N[C@@H](C(=O)O)CCC(=O)N1C
REMARK SMILES IDX 39 1 38 2 37 3 36 4 28 6 27 7 25 8 26 9 23 11 24 12 19 13
REMARK SMILES IDX 18 14 16 15 17 16 11 18 10 19 8 20 9 21 12 24 13 25 14 26
REMARK SMILES IDX 15 27 20 28 21 29 22 30 29 32 30 33 31 34 32 35 33 36 34 37
REMARK SMILES IDX 35 38 57 43 58 44 59 45 60 46 61 47 62 49 66 50 67 51 68 52
REMARK SMILES IDX 69 53 70 54 71 55 2 56 1 57 3 58 4 59 5 60 6 62 7 63 63 65
REMARK SMILES IDX 64 66 65 67 40 69 41 70 42 71 44 72 43 73 45 74 46 75 47 76
REMARK SMILES IDX 55 77 56 78 48 79 49 80 50 81 54 82 51 83 53 84 52 85
REMARK H PARENT 38 5 27 10 18 17 10 22 22 31 34 39 34 40 35 41 35 42 61 48
REMARK H PARENT 5 61 65 68
REMARK Flexibility Score:  369.900
ROOT
ATOM      1  C   UNL     1      -0.175   3.417  -6.133  1.00  0.00     0.117 C 
ENDROOT
BRANCH   1   2
ATOM      2  N   UNL     1      -1.280   2.501  -6.418  1.00  0.00    -0.347 N 
ATOM      3  O   UNL     1      -1.931   3.410  -8.423  1.00  0.00    -0.273 OA
ATOM      4  C   UNL     1      -2.014   2.515  -7.589  1.00  0.00     0.243 C 
ATOM      5  H   UNL     1      -1.505   1.776  -5.754  1.00  0.00     0.164 HD
BRANCH   4   6
ATOM      6  C   UNL     1      -3.070   1.384  -7.676  1.00  0.00     0.171 C 
BRANCH   6   7
ATOM      7  N   UNL     1      -4.380   1.868  -7.212  1.00  0.00    -0.344 N 
ATOM      8  C   UNL     1      -4.859   1.516  -5.968  1.00  0.00     0.226 C 
ATOM      9  O   UNL     1      -4.243   0.779  -5.208  1.00  0.00    -0.275 OA
ATOM     10  H   UNL     1      -4.948   2.424  -7.839  1.00  0.00     0.164 HD
BRANCH   8  11
ATOM     11  C   UNL     1      -6.198   2.138  -5.615  1.00  0.00     0.109 C 
ATOM     12  C   UNL     1      -6.367   3.472  -6.343  1.00  0.00     0.021 C 
BRANCH  11  13
ATOM     13  C   UNL     1      -7.328   1.118  -5.858  1.00  0.00     0.204 C 
BRANCH  13  14
ATOM     14  N   UNL     1      -8.550   1.462  -5.124  1.00  0.00    -0.340 N 
ATOM     15  C   UNL     1      -9.406   0.512  -4.610  1.00  0.00     0.243 C 
ATOM     16  O   UNL     1      -9.173  -0.693  -4.678  1.00  0.00    -0.273 OA
ATOM     17  H   UNL     1      -8.877   2.431  -5.164  1.00  0.00     0.164 HD
BRANCH  15  18
ATOM     18  C   UNL     1     -10.728   1.104  -4.061  1.00  0.00     0.171 C 
BRANCH  18  19
ATOM     19  N   UNL     1     -11.814   0.415  -4.755  1.00  0.00    -0.343 N 
ATOM     20  C   UNL     1     -12.078   0.632  -6.094  1.00  0.00     0.242 CG0
ATOM     21  O   UNL     1     -11.499   1.511  -6.729  1.00  0.00    -0.273 OA
ATOM     22  H   UNL     1     -12.397  -0.238  -4.243  1.00  0.00     0.164 HD
ATOM     23  G   UNL     1     -13.210  -0.242  -6.670  1.00  0.00     0.000 G0
ENDBRANCH  18  19
BRANCH  18  24
ATOM     24  C   UNL     1     -10.819   0.910  -2.543  1.00  0.00     0.038 C 
BRANCH  24  25
ATOM     25  C   UNL     1     -11.664   1.971  -1.807  1.00  0.00    -0.015 C 
ATOM     26  C   UNL     1     -10.842   3.192  -1.395  1.00  0.00     0.007 C 
ATOM     27  C   UNL     1     -12.313   1.345  -0.570  1.00  0.00     0.007 C 
ENDBRANCH  24  25
ENDBRANCH  18  24
ENDBRANCH  15  18
ENDBRANCH  13  14
BRANCH  13  28
ATOM     28  C   UNL     1      -7.710   0.982  -7.336  1.00  0.00     0.327 C 
ATOM     29  O   UNL     1      -7.117   0.325  -8.178  1.00  0.00    -0.250 OA
BRANCH  28  30
ATOM     30  O   UNL     1      -8.743   1.773  -7.690  1.00  0.00    -0.480 OA
ATOM     31  H   UNL     1      -8.328   2.638  -7.887  1.00  0.00     0.296 HD
ENDBRANCH  28  30
ENDBRANCH  13  28
ENDBRANCH  11  13
ENDBRANCH   8  11
ENDBRANCH   6   7
BRANCH   6  32
ATOM     32  C   UNL     1      -3.153   0.883  -9.122  1.00  0.00     0.037 C 
BRANCH  32  33
ATOM     33  C   UNL     1      -4.358   1.469  -9.871  1.00  0.00     0.026 C 
BRANCH  33  34
ATOM     34  C   UNL     1      -4.956   0.486 -10.878  1.00  0.00     0.146 C 
BRANCH  34  35
ATOM     35  N   UNL     1      -5.554   1.239 -11.971  1.00  0.00    -0.254 NA
ATOM     36  C   UNL     1      -6.687   1.805 -11.780  1.00  0.00     0.185 C 
ATOM     37  N   UNL     1      -7.245   2.506 -12.779  1.00  0.00    -0.370 N 
ATOM     38  N   UNL     1      -7.452   1.810 -10.674  1.00  0.00    -0.370 N 
ATOM     39  H   UNL     1      -6.723   2.558 -13.645  1.00  0.00     0.159 HD
ATOM     40  H   UNL     1      -8.035   3.116 -12.657  1.00  0.00     0.159 HD
ATOM     41  H   UNL     1      -8.391   2.175 -10.692  1.00  0.00     0.159 HD
ATOM     42  H   UNL     1      -7.164   1.309  -9.849  1.00  0.00     0.159 HD
ENDBRANCH  34  35
ENDBRANCH  33  34
ENDBRANCH  32  33
ENDBRANCH   6  32
ENDBRANCH   4   6
ENDBRANCH   1   2
BRANCH   1  43
ATOM     43  C   UNL     1       1.138   2.799  -6.695  1.00  0.00     0.102 C 
ATOM     44  C   UNL     1       2.072   2.250  -5.603  1.00  0.00     0.020 C 
BRANCH  43  45
ATOM     45  C   UNL     1       1.822   3.758  -7.674  1.00  0.00     0.225 C 
ATOM     46  O   UNL     1       3.040   3.823  -7.808  1.00  0.00    -0.275 OA
ATOM     47  N   UNL     1       0.984   4.622  -8.340  1.00  0.00    -0.342 N 
ATOM     48  H   UNL     1      -0.013   4.456  -8.335  1.00  0.00     0.164 HD
BRANCH  47  49
ATOM     49  C   UNL     1       1.494   5.572  -9.334  1.00  0.00     0.192 C 
BRANCH  49  50
ATOM     50  C   UNL     1       1.713   6.937  -8.676  1.00  0.00     0.047 C 
BRANCH  50  51
ATOM     51  C   UNL     1       2.726   7.797  -9.444  1.00  0.00     0.103 C 
BRANCH  51  52
ATOM     52  C   UNL     1       3.988   7.014  -9.802  1.00  0.00     0.226 C 
ATOM     53  O   UNL     1       4.581   6.380  -8.927  1.00  0.00    -0.275 OA
BRANCH  52  54
ATOM     54  N   UNL     1       4.359   7.009 -11.159  1.00  0.00    -0.311 N 
ATOM     55  C   UNL     1       5.261   8.033 -11.701  1.00  0.00     0.153 C 
BRANCH  54  56
ATOM     56  C   UNL     1       3.887   6.024 -12.043  1.00  0.00     0.102 C 
ATOM     57  C   UNL     1       3.182   6.268 -13.160  1.00  0.00     0.043 C 
BRANCH  56  58
ATOM     58  C   UNL     1       4.192   4.563 -11.811  1.00  0.00     0.268 C 
ATOM     59  O   UNL     1       3.384   3.668 -12.022  1.00  0.00    -0.268 OA
ATOM     60  N   UNL     1       5.485   4.340 -11.402  1.00  0.00    -0.339 N 
ATOM     61  H   UNL     1       6.089   5.136 -11.239  1.00  0.00     0.164 HD
BRANCH  60  62
ATOM     62  C   UNL     1       6.010   2.993 -11.179  1.00  0.00     0.168 CG0
ATOM     63  C   UNL     1       5.902   2.600  -9.711  1.00  0.00     0.041 C 
ATOM     64  G   UNL     1       7.476   2.924 -11.656  1.00  0.00     0.000 G0
ENDBRANCH  60  62
ENDBRANCH  56  58
ENDBRANCH  54  56
ENDBRANCH  52  54
ENDBRANCH  51  52
ENDBRANCH  50  51
ENDBRANCH  49  50
BRANCH  49  65
ATOM     65  C   UNL     1       0.528   5.726 -10.518  1.00  0.00     0.326 C 
ATOM     66  O   UNL     1       0.380   6.739 -11.187  1.00  0.00    -0.250 OA
BRANCH  65  67
ATOM     67  O   UNL     1      -0.239   4.641 -10.766  1.00  0.00    -0.480 OA
ATOM     68  H   UNL     1       0.321   3.890 -10.472  1.00  0.00     0.296 HD
ENDBRANCH  65  67
ENDBRANCH  49  65
ENDBRANCH  47  49
ENDBRANCH  43  45
ENDBRANCH   1  43
BRANCH   1  69
ATOM     69  C   UNL     1      -0.260   3.736  -4.652  1.00  0.00    -0.001 C 
ATOM     70  C   UNL     1      -0.584   2.896  -3.652  1.00  0.00     0.001 C 
BRANCH  70  71
ATOM     71  C   UNL     1      -0.641   3.210  -2.223  1.00  0.00    -0.055 C 
ATOM     72  C   UNL     1      -1.313   2.358  -1.420  1.00  0.00    -0.018 C 
ATOM     73  C   UNL     1       0.059   4.457  -1.749  1.00  0.00     0.044 C 
BRANCH  72  74
ATOM     74  C   UNL     1      -1.534   2.424   0.084  1.00  0.00     0.038 C 
ATOM     75  C   UNL     1      -0.974   1.128   0.682  1.00  0.00     0.015 C 
BRANCH  74  76
ATOM     76  C   UNL     1      -3.047   2.669   0.357  1.00  0.00     0.128 C 
BRANCH  76  77
ATOM     77  O   UNL     1      -3.206   3.611   1.431  1.00  0.00    -0.381 OA
ATOM     78  C   UNL     1      -4.552   3.764   1.862  1.00  0.00     0.195 C 
ENDBRANCH  76  77
BRANCH  76  79
ATOM     79  C   UNL     1      -3.861   3.054  -0.904  1.00  0.00     0.068 C 
BRANCH  79  80
ATOM     80  C   UNL     1      -4.993   2.146  -1.320  1.00  0.00    -0.045 A 
ATOM     81  C   UNL     1      -4.746   0.840  -1.763  1.00  0.00     0.004 A 
ATOM     82  C   UNL     1      -6.317   2.610  -1.294  1.00  0.00     0.004 A 
ATOM     83  C   UNL     1      -5.798   0.012  -2.159  1.00  0.00     0.000 A 
ATOM     84  C   UNL     1      -7.368   1.781  -1.692  1.00  0.00     0.000 A 
ATOM     85  C   UNL     1      -7.109   0.482  -2.122  1.00  0.00     0.000 A 
ENDBRANCH  79  80
ENDBRANCH  76  79
ENDBRANCH  74  76
ENDBRANCH  72  74
ENDBRANCH  70  71
ENDBRANCH   1  69
TORSDOF 17
ENDMDL
MODEL 8
REMARK VINA RESULT:    -8.018      5.519     12.411
REMARK INTER + INTRA:         -31.177
REMARK INTER:                 -25.590
REMARK INTRA:                  -5.587
REMARK UNBOUND:                -7.222
REMARK SMILES C=C1C(=O)N[C@H](C)C(=O)N[C@@H](CC(C)C)C(=O)N[C@@H](C(=O)O)[C@H](C)C(=O)N[C@@H](CCCN=C(N)N)C(=O)N[C@@H](/C=C/C(C)=C/[C@H](C)[C@H](Cc2ccccc2)OC)[C@H](C)C(=O)N[C@@H](C(=O)O)CCC(=O)N1C
REMARK SMILES IDX 39 1 38 2 37 3 36 4 28 6 27 7 25 8 26 9 23 11 24 12 19 13
REMARK SMILES IDX 18 14 16 15 17 16 11 18 10 19 8 20 9 21 12 24 13 25 14 26
REMARK SMILES IDX 15 27 20 28 21 29 22 30 29 32 30 33 31 34 32 35 33 36 34 37
REMARK SMILES IDX 35 38 57 43 58 44 59 45 60 46 61 47 62 49 66 50 67 51 68 52
REMARK SMILES IDX 69 53 70 54 71 55 2 56 1 57 3 58 4 59 5 60 6 62 7 63 63 65
REMARK SMILES IDX 64 66 65 67 40 69 41 70 42 71 44 72 43 73 45 74 46 75 47 76
REMARK SMILES IDX 55 77 56 78 48 79 49 80 50 81 54 82 51 83 53 84 52 85
REMARK H PARENT 38 5 27 10 18 17 10 22 22 31 34 39 34 40 35 41 35 42 61 48
REMARK H PARENT 5 61 65 68
REMARK Flexibility Score:  369.900
ROOT
ATOM      1  C   UNL     1      -0.655   2.694  -4.008  1.00  0.00     0.117 C 
ENDROOT
BRANCH   1   2
ATOM      2  N   UNL     1      -2.034   3.147  -3.821  1.00  0.00    -0.347 N 
ATOM      3  O   UNL     1      -3.084   1.165  -4.312  1.00  0.00    -0.273 OA
ATOM      4  C   UNL     1      -3.137   2.319  -3.899  1.00  0.00     0.243 C 
ATOM      5  H   UNL     1      -2.210   4.108  -3.571  1.00  0.00     0.164 HD
BRANCH   4   6
ATOM      6  C   UNL     1      -4.475   3.030  -3.575  1.00  0.00     0.171 C 
BRANCH   6   7
ATOM      7  N   UNL     1      -5.612   2.134  -3.840  1.00  0.00    -0.344 N 
ATOM      8  C   UNL     1      -6.316   2.223  -5.021  1.00  0.00     0.226 C 
ATOM      9  O   UNL     1      -6.054   3.050  -5.886  1.00  0.00    -0.275 OA
ATOM     10  H   UNL     1      -5.902   1.483  -3.121  1.00  0.00     0.164 HD
BRANCH   8  11
ATOM     11  C   UNL     1      -7.424   1.194  -5.167  1.00  0.00     0.109 C 
ATOM     12  C   UNL     1      -8.349   1.242  -3.951  1.00  0.00     0.021 C 
BRANCH  11  13
ATOM     13  C   UNL     1      -8.130   1.378  -6.526  1.00  0.00     0.204 C 
BRANCH  13  14
ATOM     14  N   UNL     1      -7.440   0.665  -7.606  1.00  0.00    -0.340 N 
ATOM     15  C   UNL     1      -7.013   1.287  -8.760  1.00  0.00     0.243 C 
ATOM     16  O   UNL     1      -7.128   2.498  -8.938  1.00  0.00    -0.273 OA
ATOM     17  H   UNL     1      -7.449  -0.358  -7.589  1.00  0.00     0.164 HD
BRANCH  15  18
ATOM     18  C   UNL     1      -6.502   0.303  -9.840  1.00  0.00     0.171 C 
BRANCH  18  19
ATOM     19  N   UNL     1      -6.327   1.080 -11.065  1.00  0.00    -0.343 N 
ATOM     20  C   UNL     1      -6.639   0.563 -12.308  1.00  0.00     0.242 CG0
ATOM     21  O   UNL     1      -6.952  -0.616 -12.454  1.00  0.00    -0.273 OA
ATOM     22  H   UNL     1      -5.961   2.024 -11.008  1.00  0.00     0.164 HD
ATOM     23  G   UNL     1      -6.464   1.557 -13.474  1.00  0.00     0.000 G0
ENDBRANCH  18  19
BRANCH  18  24
ATOM     24  C   UNL     1      -5.188  -0.352  -9.398  1.00  0.00     0.038 C 
BRANCH  24  25
ATOM     25  C   UNL     1      -3.952   0.568  -9.473  1.00  0.00    -0.015 C 
ATOM     26  C   UNL     1      -2.871   0.021 -10.406  1.00  0.00     0.007 C 
ATOM     27  C   UNL     1      -3.371   0.766  -8.071  1.00  0.00     0.007 C 
ENDBRANCH  24  25
ENDBRANCH  18  24
ENDBRANCH  15  18
ENDBRANCH  13  14
BRANCH  13  28
ATOM     28  C   UNL     1      -9.584   0.896  -6.521  1.00  0.00     0.327 C 
ATOM     29  O   UNL     1      -9.961  -0.263  -6.439  1.00  0.00    -0.250 OA
BRANCH  28  30
ATOM     30  O   UNL     1     -10.470   1.889  -6.739  1.00  0.00    -0.480 OA
ATOM     31  H   UNL     1      -9.921   2.699  -6.775  1.00  0.00     0.296 HD
ENDBRANCH  28  30
ENDBRANCH  13  28
ENDBRANCH  11  13
ENDBRANCH   8  11
ENDBRANCH   6   7
BRANCH   6  32
ATOM     32  C   UNL     1      -4.463   3.481  -2.110  1.00  0.00     0.037 C 
BRANCH  32  33
ATOM     33  C   UNL     1      -5.743   3.072  -1.368  1.00  0.00     0.026 C 
BRANCH  33  34
ATOM     34  C   UNL     1      -5.682   3.394   0.126  1.00  0.00     0.146 C 
BRANCH  34  35
ATOM     35  N   UNL     1      -6.363   2.339   0.863  1.00  0.00    -0.254 NA
ATOM     36  C   UNL     1      -6.188   2.262   2.129  1.00  0.00     0.185 C 
ATOM     37  N   UNL     1      -6.815   1.296   2.819  1.00  0.00    -0.370 N 
ATOM     38  N   UNL     1      -5.434   3.039   2.926  1.00  0.00    -0.370 N 
ATOM     39  H   UNL     1      -7.412   0.674   2.289  1.00  0.00     0.159 HD
ATOM     40  H   UNL     1      -6.869   1.275   3.823  1.00  0.00     0.159 HD
ATOM     41  H   UNL     1      -5.267   2.792   3.888  1.00  0.00     0.159 HD
ATOM     42  H   UNL     1      -4.892   3.797   2.540  1.00  0.00     0.159 HD
ENDBRANCH  34  35
ENDBRANCH  33  34
ENDBRANCH  32  33
ENDBRANCH   6  32
ENDBRANCH   4   6
ENDBRANCH   1   2
BRANCH   1  43
ATOM     43  C   UNL     1       0.248   3.416  -2.967  1.00  0.00     0.102 C 
ATOM     44  C   UNL     1       1.731   3.017  -3.063  1.00  0.00     0.020 C 
BRANCH  43  45
ATOM     45  C   UNL     1      -0.337   3.298  -1.556  1.00  0.00     0.225 C 
ATOM     46  O   UNL     1      -0.855   4.241  -0.964  1.00  0.00    -0.275 OA
ATOM     47  N   UNL     1      -0.163   2.079  -0.943  1.00  0.00    -0.342 N 
ATOM     48  H   UNL     1       0.123   1.279  -1.490  1.00  0.00     0.164 HD
BRANCH  47  49
ATOM     49  C   UNL     1      -0.702   1.810   0.394  1.00  0.00     0.192 C 
BRANCH  49  50
ATOM     50  C   UNL     1      -0.331   0.387   0.822  1.00  0.00     0.047 C 
BRANCH  50  51
ATOM     51  C   UNL     1       0.497   0.365   2.114  1.00  0.00     0.103 C 
BRANCH  51  52
ATOM     52  C   UNL     1       1.794  -0.424   1.951  1.00  0.00     0.226 C 
ATOM     53  O   UNL     1       1.853  -1.338   1.126  1.00  0.00    -0.275 OA
BRANCH  52  54
ATOM     54  N   UNL     1       2.890   0.005   2.723  1.00  0.00    -0.311 N 
ATOM     55  C   UNL     1       3.754  -0.962   3.413  1.00  0.00     0.153 C 
BRANCH  54  56
ATOM     56  C   UNL     1       3.201   1.369   2.858  1.00  0.00     0.102 C 
ATOM     57  C   UNL     1       3.526   2.186   1.843  1.00  0.00     0.043 C 
BRANCH  56  58
ATOM     58  C   UNL     1       3.146   2.047   4.206  1.00  0.00     0.268 C 
ATOM     59  O   UNL     1       2.162   2.013   4.933  1.00  0.00    -0.268 OA
ATOM     60  N   UNL     1       4.332   2.645   4.559  1.00  0.00    -0.339 N 
ATOM     61  H   UNL     1       5.098   2.637   3.896  1.00  0.00     0.164 HD
BRANCH  60  62
ATOM     62  C   UNL     1       4.518   3.305   5.851  1.00  0.00     0.168 CG0
ATOM     63  C   UNL     1       4.555   4.819   5.691  1.00  0.00     0.041 C 
ATOM     64  G   UNL     1       5.815   2.794   6.511  1.00  0.00     0.000 G0
ENDBRANCH  60  62
ENDBRANCH  56  58
ENDBRANCH  54  56
ENDBRANCH  52  54
ENDBRANCH  51  52
ENDBRANCH  50  51
ENDBRANCH  49  50
BRANCH  49  65
ATOM     65  C   UNL     1      -2.229   1.971   0.432  1.00  0.00     0.326 C 
ATOM     66  O   UNL     1      -2.845   2.734   1.162  1.00  0.00    -0.250 OA
BRANCH  65  67
ATOM     67  O   UNL     1      -2.905   1.137  -0.388  1.00  0.00    -0.480 OA
ATOM     68  H   UNL     1      -3.754   1.603  -0.544  1.00  0.00     0.296 HD
ENDBRANCH  65  67
ENDBRANCH  49  65
ENDBRANCH  47  49
ENDBRANCH  43  45
ENDBRANCH   1  43
BRANCH   1  69
ATOM     69  C   UNL     1      -0.351   2.863  -5.485  1.00  0.00    -0.001 C 
ATOM     70  C   UNL     1      -0.035   4.000  -6.130  1.00  0.00     0.001 C 
BRANCH  70  71
ATOM     71  C   UNL     1       0.278   4.147  -7.553  1.00  0.00    -0.055 C 
ATOM     72  C   UNL     1       1.504   4.606  -7.881  1.00  0.00    -0.018 C 
ATOM     73  C   UNL     1      -0.786   3.768  -8.549  1.00  0.00     0.044 C 
BRANCH  72  74
ATOM     74  C   UNL     1       2.103   4.854  -9.259  1.00  0.00     0.038 C 
ATOM     75  C   UNL     1       3.612   4.609  -9.147  1.00  0.00     0.015 C 
BRANCH  74  76
ATOM     76  C   UNL     1       1.706   6.285  -9.727  1.00  0.00     0.128 C 
BRANCH  76  77
ATOM     77  O   UNL     1       0.508   6.227 -10.520  1.00  0.00    -0.381 OA
ATOM     78  C   UNL     1       0.737   6.389 -11.913  1.00  0.00     0.195 C 
ENDBRANCH  76  77
BRANCH  76  79
ATOM     79  C   UNL     1       1.616   7.321  -8.578  1.00  0.00     0.068 C 
BRANCH  79  80
ATOM     80  C   UNL     1       2.628   8.440  -8.555  1.00  0.00    -0.045 A 
ATOM     81  C   UNL     1       2.397   9.607  -7.814  1.00  0.00     0.004 A 
ATOM     82  C   UNL     1       3.812   8.339  -9.302  1.00  0.00     0.004 A 
ATOM     83  C   UNL     1       3.333  10.644  -7.809  1.00  0.00     0.000 A 
ATOM     84  C   UNL     1       4.746   9.377  -9.296  1.00  0.00     0.000 A 
ATOM     85  C   UNL     1       4.508  10.528  -8.549  1.00  0.00     0.000 A 
ENDBRANCH  79  80
ENDBRANCH  76  79
ENDBRANCH  74  76
ENDBRANCH  72  74
ENDBRANCH  70  71
ENDBRANCH   1  69
TORSDOF 17
ENDMDL
MODEL 9
REMARK VINA RESULT:    -7.990      5.617     12.961
REMARK INTER + INTRA:         -31.092
REMARK INTER:                 -25.807
REMARK INTRA:                  -5.285
REMARK UNBOUND:                -7.222
REMARK SMILES C=C1C(=O)N[C@H](C)C(=O)N[C@@H](CC(C)C)C(=O)N[C@@H](C(=O)O)[C@H](C)C(=O)N[C@@H](CCCN=C(N)N)C(=O)N[C@@H](/C=C/C(C)=C/[C@H](C)[C@H](Cc2ccccc2)OC)[C@H](C)C(=O)N[C@@H](C(=O)O)CCC(=O)N1C
REMARK SMILES IDX 39 1 38 2 37 3 36 4 28 6 27 7 25 8 26 9 23 11 24 12 19 13
REMARK SMILES IDX 18 14 16 15 17 16 11 18 10 19 8 20 9 21 12 24 13 25 14 26
REMARK SMILES IDX 15 27 20 28 21 29 22 30 29 32 30 33 31 34 32 35 33 36 34 37
REMARK SMILES IDX 35 38 57 43 58 44 59 45 60 46 61 47 62 49 66 50 67 51 68 52
REMARK SMILES IDX 69 53 70 54 71 55 2 56 1 57 3 58 4 59 5 60 6 62 7 63 63 65
REMARK SMILES IDX 64 66 65 67 40 69 41 70 42 71 44 72 43 73 45 74 46 75 47 76
REMARK SMILES IDX 55 77 56 78 48 79 49 80 50 81 54 82 51 83 53 84 52 85
REMARK H PARENT 38 5 27 10 18 17 10 22 22 31 34 39 34 40 35 41 35 42 61 48
REMARK H PARENT 5 61 65 68
REMARK Flexibility Score:  369.900
ROOT
ATOM      1  C   UNL     1       0.134   2.615  -4.138  1.00  0.00     0.117 C 
ENDROOT
BRANCH   1   2
ATOM      2  N   UNL     1      -1.219   3.029  -3.766  1.00  0.00    -0.347 N 
ATOM      3  O   UNL     1      -2.373   1.529  -5.066  1.00  0.00    -0.273 OA
ATOM      4  C   UNL     1      -2.367   2.389  -4.192  1.00  0.00     0.243 C 
ATOM      5  H   UNL     1      -1.343   3.794  -3.121  1.00  0.00     0.164 HD
BRANCH   4   6
ATOM      6  C   UNL     1      -3.668   2.973  -3.584  1.00  0.00     0.171 C 
BRANCH   6   7
ATOM      7  N   UNL     1      -4.802   2.068  -3.829  1.00  0.00    -0.344 N 
ATOM      8  C   UNL     1      -5.691   2.317  -4.853  1.00  0.00     0.226 C 
ATOM      9  O   UNL     1      -5.599   3.297  -5.583  1.00  0.00    -0.275 OA
ATOM     10  H   UNL     1      -4.949   1.285  -3.205  1.00  0.00     0.164 HD
BRANCH   8  11
ATOM     11  C   UNL     1      -6.773   1.264  -5.012  1.00  0.00     0.109 C 
ATOM     12  C   UNL     1      -7.450   0.998  -3.667  1.00  0.00     0.021 C 
BRANCH  11  13
ATOM     13  C   UNL     1      -7.730   1.668  -6.151  1.00  0.00     0.204 C 
BRANCH  13  14
ATOM     14  N   UNL     1      -7.313   1.116  -7.444  1.00  0.00    -0.340 N 
ATOM     15  C   UNL     1      -6.877   1.904  -8.487  1.00  0.00     0.243 C 
ATOM     16  O   UNL     1      -6.751   3.123  -8.387  1.00  0.00    -0.273 OA
ATOM     17  H   UNL     1      -7.536   0.138  -7.643  1.00  0.00     0.164 HD
BRANCH  15  18
ATOM     18  C   UNL     1      -6.691   1.126  -9.813  1.00  0.00     0.171 C 
BRANCH  18  19
ATOM     19  N   UNL     1      -7.777   1.541 -10.698  1.00  0.00    -0.343 N 
ATOM     20  C   UNL     1      -9.084   1.146 -10.484  1.00  0.00     0.242 CG0
ATOM     21  O   UNL     1      -9.373   0.322  -9.620  1.00  0.00    -0.273 OA
ATOM     22  H   UNL     1      -7.570   2.131 -11.497  1.00  0.00     0.164 HD
ATOM     23  G   UNL     1     -10.102   1.747 -11.475  1.00  0.00     0.000 G0
ENDBRANCH  18  19
BRANCH  18  24
ATOM     24  C   UNL     1      -5.319   1.426 -10.429  1.00  0.00     0.038 C 
BRANCH  24  25
ATOM     25  C   UNL     1      -4.468   0.178 -10.746  1.00  0.00    -0.015 C 
ATOM     26  C   UNL     1      -5.304  -1.101 -10.802  1.00  0.00     0.007 C 
ATOM     27  C   UNL     1      -3.364   0.027  -9.696  1.00  0.00     0.007 C 
ENDBRANCH  24  25
ENDBRANCH  18  24
ENDBRANCH  15  18
ENDBRANCH  13  14
BRANCH  13  28
ATOM     28  C   UNL     1      -9.176   1.220  -5.912  1.00  0.00     0.327 C 
ATOM     29  O   UNL     1     -10.068   1.891  -5.416  1.00  0.00    -0.250 OA
BRANCH  28  30
ATOM     30  O   UNL     1      -9.381  -0.081  -6.201  1.00  0.00    -0.480 OA
ATOM     31  H   UNL     1      -8.702  -0.288  -6.878  1.00  0.00     0.296 HD
ENDBRANCH  28  30
ENDBRANCH  13  28
ENDBRANCH  11  13
ENDBRANCH   8  11
ENDBRANCH   6   7
BRANCH   6  32
ATOM     32  C   UNL     1      -3.463   3.199  -2.081  1.00  0.00     0.037 C 
BRANCH  32  33
ATOM     33  C   UNL     1      -4.145   2.115  -1.235  1.00  0.00     0.026 C 
BRANCH  33  34
ATOM     34  C   UNL     1      -4.760   2.675   0.048  1.00  0.00     0.146 C 
BRANCH  34  35
ATOM     35  N   UNL     1      -4.104   2.057   1.192  1.00  0.00    -0.254 NA
ATOM     36  C   UNL     1      -3.477   2.807   2.020  1.00  0.00     0.185 C 
ATOM     37  N   UNL     1      -2.873   2.249   3.081  1.00  0.00    -0.370 N 
ATOM     38  N   UNL     1      -3.317   4.142   1.997  1.00  0.00    -0.370 N 
ATOM     39  H   UNL     1      -2.957   1.244   3.175  1.00  0.00     0.159 HD
ATOM     40  H   UNL     1      -2.515   2.776   3.858  1.00  0.00     0.159 HD
ATOM     41  H   UNL     1      -2.684   4.602   2.630  1.00  0.00     0.159 HD
ATOM     42  H   UNL     1      -3.705   4.692   1.246  1.00  0.00     0.159 HD
ENDBRANCH  34  35
ENDBRANCH  33  34
ENDBRANCH  32  33
ENDBRANCH   6  32
ENDBRANCH   4   6
ENDBRANCH   1   2
BRANCH   1  43
ATOM     43  C   UNL     1       1.147   3.336  -3.203  1.00  0.00     0.102 C 
ATOM     44  C   UNL     1       2.615   2.996  -3.511  1.00  0.00     0.020 C 
BRANCH  43  45
ATOM     45  C   UNL     1       0.763   3.154  -1.731  1.00  0.00     0.225 C 
ATOM     46  O   UNL     1      -0.203   3.710  -1.217  1.00  0.00    -0.275 OA
ATOM     47  N   UNL     1       1.631   2.393  -0.983  1.00  0.00    -0.342 N 
ATOM     48  H   UNL     1       2.326   1.825  -1.446  1.00  0.00     0.164 HD
BRANCH  47  49
ATOM     49  C   UNL     1       1.372   2.104   0.431  1.00  0.00     0.192 C 
BRANCH  49  50
ATOM     50  C   UNL     1       2.654   1.595   1.095  1.00  0.00     0.047 C 
BRANCH  50  51
ATOM     51  C   UNL     1       3.730   1.215   0.069  1.00  0.00     0.103 C 
BRANCH  51  52
ATOM     52  C   UNL     1       4.094  -0.266   0.141  1.00  0.00     0.226 C 
ATOM     53  O   UNL     1       3.311  -1.109  -0.303  1.00  0.00    -0.275 OA
BRANCH  52  54
ATOM     54  N   UNL     1       5.366  -0.575   0.657  1.00  0.00    -0.311 N 
ATOM     55  C   UNL     1       6.577  -0.385  -0.153  1.00  0.00     0.153 C 
BRANCH  54  56
ATOM     56  C   UNL     1       5.527  -1.069   1.962  1.00  0.00     0.102 C 
ATOM     57  C   UNL     1       6.700  -1.428   2.509  1.00  0.00     0.043 C 
BRANCH  56  58
ATOM     58  C   UNL     1       4.346  -1.191   2.896  1.00  0.00     0.268 C 
ATOM     59  O   UNL     1       3.733  -2.237   3.067  1.00  0.00    -0.268 OA
ATOM     60  N   UNL     1       4.073  -0.030   3.578  1.00  0.00    -0.339 N 
ATOM     61  H   UNL     1       4.621   0.797   3.371  1.00  0.00     0.164 HD
BRANCH  60  62
ATOM     62  C   UNL     1       3.010   0.055   4.579  1.00  0.00     0.168 CG0
ATOM     63  C   UNL     1       2.596   1.502   4.816  1.00  0.00     0.041 C 
ATOM     64  G   UNL     1       3.484  -0.600   5.893  1.00  0.00     0.000 G0
ENDBRANCH  60  62
ENDBRANCH  56  58
ENDBRANCH  54  56
ENDBRANCH  52  54
ENDBRANCH  51  52
ENDBRANCH  50  51
ENDBRANCH  49  50
BRANCH  49  65
ATOM     65  C   UNL     1       0.260   1.057   0.601  1.00  0.00     0.326 C 
ATOM     66  O   UNL     1       0.433  -0.132   0.832  1.00  0.00    -0.250 OA
BRANCH  65  67
ATOM     67  O   UNL     1      -0.992   1.529   0.417  1.00  0.00    -0.480 OA
ATOM     68  H   UNL     1      -1.541   0.716   0.367  1.00  0.00     0.296 HD
ENDBRANCH  65  67
ENDBRANCH  49  65
ENDBRANCH  47  49
ENDBRANCH  43  45
ENDBRANCH   1  43
BRANCH   1  69
ATOM     69  C   UNL     1       0.244   2.824  -5.638  1.00  0.00    -0.001 C 
ATOM     70  C   UNL     1       0.301   3.994  -6.298  1.00  0.00     0.001 C 
BRANCH  70  71
ATOM     71  C   UNL     1       0.428   4.182  -7.745  1.00  0.00    -0.055 C 
ATOM     72  C   UNL     1       1.577   4.717  -8.209  1.00  0.00    -0.018 C 
ATOM     73  C   UNL     1      -0.728   3.759  -8.613  1.00  0.00     0.044 C 
BRANCH  72  74
ATOM     74  C   UNL     1       1.987   5.022  -9.642  1.00  0.00     0.038 C 
ATOM     75  C   UNL     1       3.474   4.668  -9.773  1.00  0.00     0.015 C 
BRANCH  74  76
ATOM     76  C   UNL     1       1.640   6.507  -9.958  1.00  0.00     0.128 C 
BRANCH  76  77
ATOM     77  O   UNL     1       2.842   7.293 -10.007  1.00  0.00    -0.381 OA
ATOM     78  C   UNL     1       2.975   8.201  -8.922  1.00  0.00     0.195 C 
ENDBRANCH  76  77
BRANCH  76  79
ATOM     79  C   UNL     1       0.750   6.692 -11.213  1.00  0.00     0.068 C 
BRANCH  79  80
ATOM     80  C   UNL     1       1.161   5.983 -12.482  1.00  0.00    -0.045 A 
ATOM     81  C   UNL     1       2.296   6.385 -13.198  1.00  0.00     0.004 A 
ATOM     82  C   UNL     1       0.391   4.922 -12.980  1.00  0.00     0.004 A 
ATOM     83  C   UNL     1       2.662   5.734 -14.378  1.00  0.00     0.000 A 
ATOM     84  C   UNL     1       0.757   4.271 -14.160  1.00  0.00     0.000 A 
ATOM     85  C   UNL     1       1.892   4.676 -14.858  1.00  0.00     0.000 A 
ENDBRANCH  79  80
ENDBRANCH  76  79
ENDBRANCH  74  76
ENDBRANCH  72  74
ENDBRANCH  70  71
ENDBRANCH   1  69
TORSDOF 17
ENDMDL
MODEL 10
REMARK VINA RESULT:    -7.974      3.478      8.779
REMARK INTER + INTRA:         -31.045
REMARK INTER:                 -25.486
REMARK INTRA:                  -5.559
REMARK UNBOUND:                -7.222
REMARK SMILES C=C1C(=O)N[C@H](C)C(=O)N[C@@H](CC(C)C)C(=O)N[C@@H](C(=O)O)[C@H](C)C(=O)N[C@@H](CCCN=C(N)N)C(=O)N[C@@H](/C=C/C(C)=C/[C@H](C)[C@H](Cc2ccccc2)OC)[C@H](C)C(=O)N[C@@H](C(=O)O)CCC(=O)N1C
REMARK SMILES IDX 39 1 38 2 37 3 36 4 28 6 27 7 25 8 26 9 23 11 24 12 19 13
REMARK SMILES IDX 18 14 16 15 17 16 11 18 10 19 8 20 9 21 12 24 13 25 14 26
REMARK SMILES IDX 15 27 20 28 21 29 22 30 29 32 30 33 31 34 32 35 33 36 34 37
REMARK SMILES IDX 35 38 57 43 58 44 59 45 60 46 61 47 62 49 66 50 67 51 68 52
REMARK SMILES IDX 69 53 70 54 71 55 2 56 1 57 3 58 4 59 5 60 6 62 7 63 63 65
REMARK SMILES IDX 64 66 65 67 40 69 41 70 42 71 44 72 43 73 45 74 46 75 47 76
REMARK SMILES IDX 55 77 56 78 48 79 49 80 50 81 54 82 51 83 53 84 52 85
REMARK H PARENT 38 5 27 10 18 17 10 22 22 31 34 39 34 40 35 41 35 42 61 48
REMARK H PARENT 5 61 65 68
REMARK Flexibility Score:  369.900
ROOT
ATOM      1  C   UNL     1      -9.689   0.216  -4.042  1.00  0.00     0.117 C 
ENDROOT
BRANCH   1   2
ATOM      2  N   UNL     1      -8.728   1.071  -4.738  1.00  0.00    -0.347 N 
ATOM      3  O   UNL     1      -7.060   1.015  -3.162  1.00  0.00    -0.273 OA
ATOM      4  C   UNL     1      -7.450   1.329  -4.282  1.00  0.00     0.243 C 
ATOM      5  H   UNL     1      -8.975   1.467  -5.632  1.00  0.00     0.164 HD
BRANCH   4   6
ATOM      6  C   UNL     1      -6.605   2.195  -5.250  1.00  0.00     0.171 C 
BRANCH   6   7
ATOM      7  N   UNL     1      -5.186   1.811  -5.178  1.00  0.00    -0.344 N 
ATOM      8  C   UNL     1      -4.263   2.639  -4.576  1.00  0.00     0.226 C 
ATOM      9  O   UNL     1      -4.565   3.727  -4.099  1.00  0.00    -0.275 OA
ATOM     10  H   UNL     1      -4.887   0.951  -5.621  1.00  0.00     0.164 HD
BRANCH   8  11
ATOM     11  C   UNL     1      -2.853   2.078  -4.534  1.00  0.00     0.109 C 
ATOM     12  C   UNL     1      -2.460   1.539  -5.909  1.00  0.00     0.021 C 
BRANCH  11  13
ATOM     13  C   UNL     1      -1.890   3.132  -3.952  1.00  0.00     0.204 C 
BRANCH  13  14
ATOM     14  N   UNL     1      -1.752   3.010  -2.497  1.00  0.00    -0.340 N 
ATOM     15  C   UNL     1      -2.350   2.004  -1.771  1.00  0.00     0.243 C 
ATOM     16  O   UNL     1      -2.994   1.099  -2.301  1.00  0.00    -0.273 OA
ATOM     17  H   UNL     1      -1.363   3.805  -1.983  1.00  0.00     0.164 HD
BRANCH  15  18
ATOM     18  C   UNL     1      -2.239   2.196  -0.238  1.00  0.00     0.171 C 
BRANCH  18  19
ATOM     19  N   UNL     1      -0.835   2.484   0.047  1.00  0.00    -0.343 N 
ATOM     20  C   UNL     1       0.031   1.510   0.504  1.00  0.00     0.242 CG0
ATOM     21  O   UNL     1      -0.369   0.391   0.819  1.00  0.00    -0.273 OA
ATOM     22  H   UNL     1      -0.483   3.425  -0.088  1.00  0.00     0.164 HD
ATOM     23  G   UNL     1       1.489   1.982   0.673  1.00  0.00     0.000 G0
ENDBRANCH  18  19
BRANCH  18  24
ATOM     24  C   UNL     1      -3.153   3.335   0.232  1.00  0.00     0.038 C 
BRANCH  24  25
ATOM     25  C   UNL     1      -4.626   2.930   0.452  1.00  0.00    -0.015 C 
ATOM     26  C   UNL     1      -5.536   3.390  -0.687  1.00  0.00     0.007 C 
ATOM     27  C   UNL     1      -5.127   3.510   1.777  1.00  0.00     0.007 C 
ENDBRANCH  24  25
ENDBRANCH  18  24
ENDBRANCH  15  18
ENDBRANCH  13  14
BRANCH  13  28
ATOM     28  C   UNL     1      -0.481   3.058  -4.549  1.00  0.00     0.327 C 
ATOM     29  O   UNL     1       0.449   2.389  -4.125  1.00  0.00    -0.250 OA
BRANCH  28  30
ATOM     30  O   UNL     1      -0.293   3.918  -5.570  1.00  0.00    -0.480 OA
ATOM     31  H   UNL     1      -1.167   3.964  -6.010  1.00  0.00     0.296 HD
ENDBRANCH  28  30
ENDBRANCH  13  28
ENDBRANCH  11  13
ENDBRANCH   8  11
ENDBRANCH   6   7
BRANCH   6  32
ATOM     32  C   UNL     1      -7.145   2.030  -6.675  1.00  0.00     0.037 C 
BRANCH  32  33
ATOM     33  C   UNL     1      -6.165   1.273  -7.582  1.00  0.00     0.026 C 
BRANCH  33  34
ATOM     34  C   UNL     1      -6.805   0.838  -8.901  1.00  0.00     0.146 C 
BRANCH  34  35
ATOM     35  N   UNL     1      -8.130   1.435  -8.999  1.00  0.00    -0.254 NA
ATOM     36  C   UNL     1      -8.940   0.989  -9.886  1.00  0.00     0.185 C 
ATOM     37  N   UNL     1     -10.165   1.528  -9.982  1.00  0.00    -0.370 N 
ATOM     38  N   UNL     1      -8.750   0.010 -10.788  1.00  0.00    -0.370 N 
ATOM     39  H   UNL     1     -10.389   2.267  -9.327  1.00  0.00     0.159 HD
ATOM     40  H   UNL     1     -10.909   1.125 -10.524  1.00  0.00     0.159 HD
ATOM     41  H   UNL     1      -9.415  -0.155 -11.525  1.00  0.00     0.159 HD
ATOM     42  H   UNL     1      -7.868  -0.474 -10.841  1.00  0.00     0.159 HD
ENDBRANCH  34  35
ENDBRANCH  33  34
ENDBRANCH  32  33
ENDBRANCH   6  32
ENDBRANCH   4   6
ENDBRANCH   1   2
BRANCH   1  43
ATOM     43  C   UNL     1     -10.463  -0.623  -5.100  1.00  0.00     0.102 C 
ATOM     44  C   UNL     1     -10.325  -0.079  -6.532  1.00  0.00     0.020 C 
BRANCH  43  45
ATOM     45  C   UNL     1     -11.911  -0.860  -4.663  1.00  0.00     0.225 C 
ATOM     46  O   UNL     1     -12.238  -1.744  -3.876  1.00  0.00    -0.275 OA
ATOM     47  N   UNL     1     -12.854  -0.072  -5.283  1.00  0.00    -0.342 N 
ATOM     48  H   UNL     1     -12.561   0.741  -5.805  1.00  0.00     0.164 HD
BRANCH  47  49
ATOM     49  C   UNL     1     -14.276  -0.164  -4.938  1.00  0.00     0.192 C 
BRANCH  49  50
ATOM     50  C   UNL     1     -15.112  -0.240  -6.218  1.00  0.00     0.047 C 
BRANCH  50  51
ATOM     51  C   UNL     1     -14.465   0.521  -7.382  1.00  0.00     0.103 C 
BRANCH  51  52
ATOM     52  C   UNL     1     -15.205   1.819  -7.701  1.00  0.00     0.226 C 
ATOM     53  O   UNL     1     -14.924   2.849  -7.084  1.00  0.00    -0.275 OA
BRANCH  52  54
ATOM     54  N   UNL     1     -16.132   1.768  -8.758  1.00  0.00    -0.311 N 
ATOM     55  C   UNL     1     -15.781   2.264 -10.096  1.00  0.00     0.153 C 
BRANCH  54  56
ATOM     56  C   UNL     1     -17.421   1.240  -8.578  1.00  0.00     0.102 C 
ATOM     57  C   UNL     1     -17.885   0.128  -9.172  1.00  0.00     0.043 C 
BRANCH  56  58
ATOM     58  C   UNL     1     -18.399   1.889  -7.627  1.00  0.00     0.268 C 
ATOM     59  O   UNL     1     -18.873   3.001  -7.811  1.00  0.00    -0.268 OA
ATOM     60  N   UNL     1     -18.748   1.077  -6.574  1.00  0.00    -0.339 N 
ATOM     61  H   UNL     1     -18.301   0.172  -6.488  1.00  0.00     0.164 HD
BRANCH  60  62
ATOM     62  C   UNL     1     -19.729   1.484  -5.569  1.00  0.00     0.168 CG0
ATOM     63  C   UNL     1     -21.136   1.062  -5.976  1.00  0.00     0.041 C 
ATOM     64  G   UNL     1     -19.655   3.011  -5.363  1.00  0.00     0.000 G0
ENDBRANCH  60  62
ENDBRANCH  56  58
ENDBRANCH  54  56
ENDBRANCH  52  54
ENDBRANCH  51  52
ENDBRANCH  50  51
ENDBRANCH  49  50
BRANCH  49  65
ATOM     65  C   UNL     1     -14.735   1.041  -4.102  1.00  0.00     0.326 C 
ATOM     66  O   UNL     1     -14.134   1.515  -3.149  1.00  0.00    -0.250 OA
BRANCH  65  67
ATOM     67  O   UNL     1     -15.937   1.548  -4.455  1.00  0.00    -0.480 OA
ATOM     68  H   UNL     1     -15.805   2.518  -4.397  1.00  0.00     0.296 HD
ENDBRANCH  65  67
ENDBRANCH  49  65
ENDBRANCH  47  49
ENDBRANCH  43  45
ENDBRANCH   1  43
BRANCH   1  69
ATOM     69  C   UNL     1     -10.472   1.126  -3.113  1.00  0.00    -0.001 C 
ATOM     70  C   UNL     1     -10.623   1.000  -1.783  1.00  0.00     0.001 C 
BRANCH  70  71
ATOM     71  C   UNL     1     -11.363   1.898  -0.893  1.00  0.00    -0.055 C 
ATOM     72  C   UNL     1     -12.115   1.338   0.078  1.00  0.00    -0.018 C 
ATOM     73  C   UNL     1     -11.227   3.381  -1.120  1.00  0.00     0.044 C 
BRANCH  72  74
ATOM     74  C   UNL     1     -12.977   2.012   1.137  1.00  0.00     0.038 C 
ATOM     75  C   UNL     1     -12.082   2.265   2.356  1.00  0.00     0.015 C 
BRANCH  74  76
ATOM     76  C   UNL     1     -14.220   1.116   1.414  1.00  0.00     0.128 C 
BRANCH  76  77
ATOM     77  O   UNL     1     -14.618   1.241   2.790  1.00  0.00    -0.381 OA
ATOM     78  C   UNL     1     -16.015   1.439   2.964  1.00  0.00     0.195 C 
ENDBRANCH  76  77
BRANCH  76  79
ATOM     79  C   UNL     1     -15.393   1.344   0.427  1.00  0.00     0.068 C 
BRANCH  79  80
ATOM     80  C   UNL     1     -15.745   0.225  -0.523  1.00  0.00    -0.045 A 
ATOM     81  C   UNL     1     -14.899  -0.880  -0.682  1.00  0.00     0.004 A 
ATOM     82  C   UNL     1     -16.920   0.290  -1.287  1.00  0.00     0.004 A 
ATOM     83  C   UNL     1     -15.225  -1.904  -1.574  1.00  0.00     0.000 A 
ATOM     84  C   UNL     1     -17.244  -0.734  -2.180  1.00  0.00     0.000 A 
ATOM     85  C   UNL     1     -16.398  -1.831  -2.321  1.00  0.00     0.000 A 
ENDBRANCH  79  80
ENDBRANCH  76  79
ENDBRANCH  74  76
ENDBRANCH  72  74
ENDBRANCH  70  71
ENDBRANCH   1  69
TORSDOF 17
ENDMDL
MODEL 11
REMARK VINA RESULT:    -7.949      3.756     13.880
REMARK INTER + INTRA:         -30.969
REMARK INTER:                 -24.381
REMARK INTRA:                  -6.589
REMARK UNBOUND:                -7.222
REMARK SMILES C=C1C(=O)N[C@H](C)C(=O)N[C@@H](CC(C)C)C(=O)N[C@@H](C(=O)O)[C@H](C)C(=O)N[C@@H](CCCN=C(N)N)C(=O)N[C@@H](/C=C/C(C)=C/[C@H](C)[C@H](Cc2ccccc2)OC)[C@H](C)C(=O)N[C@@H](C(=O)O)CCC(=O)N1C
REMARK SMILES IDX 39 1 38 2 37 3 36 4 28 6 27 7 25 8 26 9 23 11 24 12 19 13
REMARK SMILES IDX 18 14 16 15 17 16 11 18 10 19 8 20 9 21 12 24 13 25 14 26
REMARK SMILES IDX 15 27 20 28 21 29 22 30 29 32 30 33 31 34 32 35 33 36 34 37
REMARK SMILES IDX 35 38 57 43 58 44 59 45 60 46 61 47 62 49 66 50 67 51 68 52
REMARK SMILES IDX 69 53 70 54 71 55 2 56 1 57 3 58 4 59 5 60 6 62 7 63 63 65
REMARK SMILES IDX 64 66 65 67 40 69 41 70 42 71 44 72 43 73 45 74 46 75 47 76
REMARK SMILES IDX 55 77 56 78 48 79 49 80 50 81 54 82 51 83 53 84 52 85
REMARK H PARENT 38 5 27 10 18 17 10 22 22 31 34 39 34 40 35 41 35 42 61 48
REMARK H PARENT 5 61 65 68
REMARK Flexibility Score:  369.900
ROOT
ATOM      1  C   UNL     1     -10.202   1.331  -0.882  1.00  0.00     0.117 C 
ENDROOT
BRANCH   1   2
ATOM      2  N   UNL     1     -10.242   1.376  -2.344  1.00  0.00    -0.347 N 
ATOM      3  O   UNL     1      -9.816  -0.845  -2.737  1.00  0.00    -0.273 OA
ATOM      4  C   UNL     1     -10.136   0.263  -3.155  1.00  0.00     0.243 C 
ATOM      5  H   UNL     1     -10.404   2.257  -2.807  1.00  0.00     0.164 HD
BRANCH   4   6
ATOM      6  C   UNL     1     -10.296   0.574  -4.665  1.00  0.00     0.171 C 
BRANCH   6   7
ATOM      7  N   UNL     1     -11.720   0.645  -5.027  1.00  0.00    -0.344 N 
ATOM      8  C   UNL     1     -12.442  -0.504  -5.267  1.00  0.00     0.226 C 
ATOM      9  O   UNL     1     -11.942  -1.622  -5.214  1.00  0.00    -0.275 OA
ATOM     10  H   UNL     1     -12.152   1.553  -5.146  1.00  0.00     0.164 HD
BRANCH   8  11
ATOM     11  C   UNL     1     -13.910  -0.268  -5.575  1.00  0.00     0.109 C 
ATOM     12  C   UNL     1     -14.370   1.055  -4.962  1.00  0.00     0.021 C 
BRANCH  11  13
ATOM     13  C   UNL     1     -14.152  -0.398  -7.092  1.00  0.00     0.204 C 
BRANCH  13  14
ATOM     14  N   UNL     1     -15.379   0.284  -7.516  1.00  0.00    -0.340 N 
ATOM     15  C   UNL     1     -16.454  -0.381  -8.065  1.00  0.00     0.243 C 
ATOM     16  O   UNL     1     -16.483  -1.605  -8.182  1.00  0.00    -0.273 OA
ATOM     17  H   UNL     1     -15.361   1.305  -7.586  1.00  0.00     0.164 HD
BRANCH  15  18
ATOM     18  C   UNL     1     -17.546   0.563  -8.625  1.00  0.00     0.171 C 
BRANCH  18  19
ATOM     19  N   UNL     1     -17.426   0.523 -10.081  1.00  0.00    -0.343 N 
ATOM     20  C   UNL     1     -16.878   1.571 -10.796  1.00  0.00     0.242 CG0
ATOM     21  O   UNL     1     -16.590   2.637 -10.257  1.00  0.00    -0.273 OA
ATOM     22  H   UNL     1     -17.758  -0.291 -10.586  1.00  0.00     0.164 HD
ATOM     23  G   UNL     1     -16.763   1.315 -12.313  1.00  0.00     0.000 G0
ENDBRANCH  18  19
BRANCH  18  24
ATOM     24  C   UNL     1     -18.938   0.115  -8.163  1.00  0.00     0.038 C 
BRANCH  24  25
ATOM     25  C   UNL     1     -20.014   1.221  -8.195  1.00  0.00    -0.015 C 
ATOM     26  C   UNL     1     -19.867   2.215  -7.042  1.00  0.00     0.007 C 
ATOM     27  C   UNL     1     -21.406   0.586  -8.154  1.00  0.00     0.007 C 
ENDBRANCH  24  25
ENDBRANCH  18  24
ENDBRANCH  15  18
ENDBRANCH  13  14
BRANCH  13  28
ATOM     28  C   UNL     1     -13.005   0.165  -7.937  1.00  0.00     0.327 C 
ATOM     29  O   UNL     1     -12.966   1.269  -8.458  1.00  0.00    -0.250 OA
BRANCH  28  30
ATOM     30  O   UNL     1     -12.030  -0.736  -8.173  1.00  0.00    -0.480 OA
ATOM     31  H   UNL     1     -11.978  -0.784  -9.150  1.00  0.00     0.296 HD
ENDBRANCH  28  30
ENDBRANCH  13  28
ENDBRANCH  11  13
ENDBRANCH   8  11
ENDBRANCH   6   7
BRANCH   6  32
ATOM     32  C   UNL     1      -9.583   1.893  -4.985  1.00  0.00     0.037 C 
BRANCH  32  33
ATOM     33  C   UNL     1      -8.671   1.775  -6.214  1.00  0.00     0.026 C 
BRANCH  33  34
ATOM     34  C   UNL     1      -7.216   2.122  -5.898  1.00  0.00     0.146 C 
BRANCH  34  35
ATOM     35  N   UNL     1      -6.860   1.531  -4.616  1.00  0.00    -0.254 NA
ATOM     36  C   UNL     1      -5.654   1.139  -4.434  1.00  0.00     0.185 C 
ATOM     37  N   UNL     1      -5.313   0.598  -3.254  1.00  0.00    -0.370 N 
ATOM     38  N   UNL     1      -4.613   1.186  -5.284  1.00  0.00    -0.370 N 
ATOM     39  H   UNL     1      -6.042   0.537  -2.555  1.00  0.00     0.159 HD
ATOM     40  H   UNL     1      -4.363   0.428  -2.974  1.00  0.00     0.159 HD
ATOM     41  H   UNL     1      -3.747   0.718  -5.074  1.00  0.00     0.159 HD
ATOM     42  H   UNL     1      -4.728   1.555  -6.216  1.00  0.00     0.159 HD
ENDBRANCH  34  35
ENDBRANCH  33  34
ENDBRANCH  32  33
ENDBRANCH   6  32
ENDBRANCH   4   6
ENDBRANCH   1   2
BRANCH   1  43
ATOM     43  C   UNL     1      -8.865   0.668  -0.443  1.00  0.00     0.102 C 
ATOM     44  C   UNL     1      -8.966  -0.085   0.895  1.00  0.00     0.020 C 
BRANCH  43  45
ATOM     45  C   UNL     1      -7.707   1.668  -0.507  1.00  0.00     0.225 C 
ATOM     46  O   UNL     1      -7.457   2.342  -1.503  1.00  0.00    -0.275 OA
ATOM     47  N   UNL     1      -6.892   1.703   0.601  1.00  0.00    -0.342 N 
ATOM     48  H   UNL     1      -7.194   1.263   1.459  1.00  0.00     0.164 HD
BRANCH  47  49
ATOM     49  C   UNL     1      -5.766   2.637   0.695  1.00  0.00     0.192 C 
BRANCH  49  50
ATOM     50  C   UNL     1      -4.540   2.036   0.004  1.00  0.00     0.047 C 
BRANCH  50  51
ATOM     51  C   UNL     1      -3.912   3.000  -1.012  1.00  0.00     0.103 C 
BRANCH  51  52
ATOM     52  C   UNL     1      -2.476   3.368  -0.642  1.00  0.00     0.226 C 
ATOM     53  O   UNL     1      -2.243   3.901   0.444  1.00  0.00    -0.275 OA
BRANCH  52  54
ATOM     54  N   UNL     1      -1.478   2.994  -1.561  1.00  0.00    -0.311 N 
ATOM     55  C   UNL     1      -1.828   2.412  -2.863  1.00  0.00     0.153 C 
BRANCH  54  56
ATOM     56  C   UNL     1      -0.114   3.169  -1.271  1.00  0.00     0.102 C 
ATOM     57  C   UNL     1       0.662   4.138  -1.782  1.00  0.00     0.043 C 
BRANCH  56  58
ATOM     58  C   UNL     1       0.591   2.264  -0.288  1.00  0.00     0.268 C 
ATOM     59  O   UNL     1       0.001   1.483   0.445  1.00  0.00    -0.268 OA
ATOM     60  N   UNL     1       1.960   2.364  -0.349  1.00  0.00    -0.339 N 
ATOM     61  H   UNL     1       2.372   3.044  -0.977  1.00  0.00     0.164 HD
BRANCH  60  62
ATOM     62  C   UNL     1       2.839   1.532   0.472  1.00  0.00     0.168 CG0
ATOM     63  C   UNL     1       3.961   0.929  -0.364  1.00  0.00     0.041 C 
ATOM     64  G   UNL     1       2.012   0.424   1.156  1.00  0.00     0.000 G0
ENDBRANCH  60  62
ENDBRANCH  56  58
ENDBRANCH  54  56
ENDBRANCH  52  54
ENDBRANCH  51  52
ENDBRANCH  50  51
ENDBRANCH  49  50
BRANCH  49  65
ATOM     65  C   UNL     1      -5.419   2.961   2.156  1.00  0.00     0.326 C 
ATOM     66  O   UNL     1      -5.843   2.366   3.136  1.00  0.00    -0.250 OA
BRANCH  65  67
ATOM     67  O   UNL     1      -4.618   4.038   2.320  1.00  0.00    -0.480 OA
ATOM     68  H   UNL     1      -4.903   4.409   3.183  1.00  0.00     0.296 HD
ENDBRANCH  65  67
ENDBRANCH  49  65
ENDBRANCH  47  49
ENDBRANCH  43  45
ENDBRANCH   1  43
BRANCH   1  69
ATOM     69  C   UNL     1     -11.512   0.703  -0.442  1.00  0.00    -0.001 C 
ATOM     70  C   UNL     1     -12.719   0.844  -1.016  1.00  0.00     0.001 C 
BRANCH  70  71
ATOM     71  C   UNL     1     -13.973   0.215  -0.595  1.00  0.00    -0.055 C 
ATOM     72  C   UNL     1     -14.800  -0.242  -1.558  1.00  0.00    -0.018 C 
ATOM     73  C   UNL     1     -14.246   0.116   0.883  1.00  0.00     0.044 C 
BRANCH  72  74
ATOM     74  C   UNL     1     -16.150  -0.933  -1.420  1.00  0.00     0.038 C 
ATOM     75  C   UNL     1     -16.079  -2.231  -2.234  1.00  0.00     0.015 C 
BRANCH  74  76
ATOM     76  C   UNL     1     -17.267   0.056  -1.864  1.00  0.00     0.128 C 
BRANCH  76  77
ATOM     77  O   UNL     1     -17.060   1.339  -1.248  1.00  0.00    -0.381 OA
ATOM     78  C   UNL     1     -16.890   2.399  -2.180  1.00  0.00     0.195 C 
ENDBRANCH  76  77
BRANCH  76  79
ATOM     79  C   UNL     1     -17.450   0.151  -3.400  1.00  0.00     0.068 C 
BRANCH  79  80
ATOM     80  C   UNL     1     -18.771  -0.287  -3.983  1.00  0.00    -0.045 A 
ATOM     81  C   UNL     1     -19.948   0.427  -3.722  1.00  0.00     0.004 A 
ATOM     82  C   UNL     1     -18.846  -1.442  -4.777  1.00  0.00     0.004 A 
ATOM     83  C   UNL     1     -21.169   0.007  -4.254  1.00  0.00     0.000 A 
ATOM     84  C   UNL     1     -20.067  -1.862  -5.308  1.00  0.00     0.000 A 
ATOM     85  C   UNL     1     -21.228  -1.137  -5.047  1.00  0.00     0.000 A 
ENDBRANCH  79  80
ENDBRANCH  76  79
ENDBRANCH  74  76
ENDBRANCH  72  74
ENDBRANCH  70  71
ENDBRANCH   1  69
TORSDOF 17
ENDMDL
MODEL 12
REMARK VINA RESULT:    -7.937      3.478     12.077
REMARK INTER + INTRA:         -30.936
REMARK INTER:                 -23.400
REMARK INTRA:                  -7.536
REMARK UNBOUND:                -7.222
REMARK SMILES C=C1C(=O)N[C@H](C)C(=O)N[C@@H](CC(C)C)C(=O)N[C@@H](C(=O)O)[C@H](C)C(=O)N[C@@H](CCCN=C(N)N)C(=O)N[C@@H](/C=C/C(C)=C/[C@H](C)[C@H](Cc2ccccc2)OC)[C@H](C)C(=O)N[C@@H](C(=O)O)CCC(=O)N1C
REMARK SMILES IDX 39 1 38 2 37 3 36 4 28 6 27 7 25 8 26 9 23 11 24 12 19 13
REMARK SMILES IDX 18 14 16 15 17 16 11 18 10 19 8 20 9 21 12 24 13 25 14 26
REMARK SMILES IDX 15 27 20 28 21 29 22 30 29 32 30 33 31 34 32 35 33 36 34 37
REMARK SMILES IDX 35 38 57 43 58 44 59 45 60 46 61 47 62 49 66 50 67 51 68 52
REMARK SMILES IDX 69 53 70 54 71 55 2 56 1 57 3 58 4 59 5 60 6 62 7 63 63 65
REMARK SMILES IDX 64 66 65 67 40 69 41 70 42 71 44 72 43 73 45 74 46 75 47 76
REMARK SMILES IDX 55 77 56 78 48 79 49 80 50 81 54 82 51 83 53 84 52 85
REMARK H PARENT 38 5 27 10 18 17 10 22 22 31 34 39 34 40 35 41 35 42 61 48
REMARK H PARENT 5 61 65 68
REMARK Flexibility Score:  369.900
ROOT
ATOM      1  C   UNL     1      -8.929   1.095  -3.006  1.00  0.00     0.117 C 
ENDROOT
BRANCH   1   2
ATOM      2  N   UNL     1      -9.983   0.097  -3.194  1.00  0.00    -0.347 N 
ATOM      3  O   UNL     1     -11.786   1.488  -2.908  1.00  0.00    -0.273 OA
ATOM      4  C   UNL     1     -11.332   0.392  -3.220  1.00  0.00     0.243 C 
ATOM      5  H   UNL     1      -9.728  -0.864  -3.365  1.00  0.00     0.164 HD
BRANCH   4   6
ATOM      6  C   UNL     1     -12.232  -0.833  -3.521  1.00  0.00     0.171 C 
BRANCH   6   7
ATOM      7  N   UNL     1     -13.644  -0.425  -3.605  1.00  0.00    -0.344 N 
ATOM      8  C   UNL     1     -14.596  -1.021  -2.806  1.00  0.00     0.226 C 
ATOM      9  O   UNL     1     -14.327  -1.918  -2.016  1.00  0.00    -0.275 OA
ATOM     10  H   UNL     1     -13.915   0.266  -4.293  1.00  0.00     0.164 HD
BRANCH   8  11
ATOM     11  C   UNL     1     -15.995  -0.454  -2.971  1.00  0.00     0.109 C 
ATOM     12  C   UNL     1     -17.037  -1.550  -2.747  1.00  0.00     0.021 C 
BRANCH  11  13
ATOM     13  C   UNL     1     -16.161   0.791  -2.077  1.00  0.00     0.204 C 
BRANCH  13  14
ATOM     14  N   UNL     1     -15.209   0.802  -0.962  1.00  0.00    -0.340 N 
ATOM     15  C   UNL     1     -15.513   1.320   0.278  1.00  0.00     0.243 C 
ATOM     16  O   UNL     1     -16.629   1.756   0.555  1.00  0.00    -0.273 OA
ATOM     17  H   UNL     1     -14.227   0.597  -1.168  1.00  0.00     0.164 HD
BRANCH  15  18
ATOM     18  C   UNL     1     -14.293   1.412   1.226  1.00  0.00     0.171 C 
BRANCH  18  19
ATOM     19  N   UNL     1     -14.618   0.613   2.406  1.00  0.00    -0.343 N 
ATOM     20  C   UNL     1     -15.322   1.139   3.472  1.00  0.00     0.242 CG0
ATOM     21  O   UNL     1     -15.591   2.337   3.537  1.00  0.00    -0.273 OA
ATOM     22  H   UNL     1     -14.316  -0.354   2.450  1.00  0.00     0.164 HD
ATOM     23  G   UNL     1     -15.639   0.124   4.589  1.00  0.00     0.000 G0
ENDBRANCH  18  19
BRANCH  18  24
ATOM     24  C   UNL     1     -13.026   0.898   0.531  1.00  0.00     0.038 C 
BRANCH  24  25
ATOM     25  C   UNL     1     -11.729   1.634   0.929  1.00  0.00    -0.015 C 
ATOM     26  C   UNL     1     -11.639   1.889   2.433  1.00  0.00     0.007 C 
ATOM     27  C   UNL     1     -11.639   2.963   0.174  1.00  0.00     0.007 C 
ENDBRANCH  24  25
ENDBRANCH  18  24
ENDBRANCH  15  18
ENDBRANCH  13  14
BRANCH  13  28
ATOM     28  C   UNL     1     -15.984   2.109  -2.838  1.00  0.00     0.327 C 
ATOM     29  O   UNL     1     -15.368   2.264  -3.881  1.00  0.00    -0.250 OA
BRANCH  28  30
ATOM     30  O   UNL     1     -16.490   3.172  -2.180  1.00  0.00    -0.480 OA
ATOM     31  H   UNL     1     -15.989   3.936  -2.534  1.00  0.00     0.296 HD
ENDBRANCH  28  30
ENDBRANCH  13  28
ENDBRANCH  11  13
ENDBRANCH   8  11
ENDBRANCH   6   7
BRANCH   6  32
ATOM     32  C   UNL     1     -11.773  -1.486  -4.829  1.00  0.00     0.037 C 
BRANCH  32  33
ATOM     33  C   UNL     1     -12.674  -1.108  -6.013  1.00  0.00     0.026 C 
BRANCH  33  34
ATOM     34  C   UNL     1     -12.133   0.085  -6.803  1.00  0.00     0.146 C 
BRANCH  34  35
ATOM     35  N   UNL     1     -12.985   0.305  -7.963  1.00  0.00    -0.254 NA
ATOM     36  C   UNL     1     -13.961   1.129  -7.861  1.00  0.00     0.185 C 
ATOM     37  N   UNL     1     -14.749   1.343  -8.926  1.00  0.00    -0.370 N 
ATOM     38  N   UNL     1     -14.345   1.856  -6.797  1.00  0.00    -0.370 N 
ATOM     39  H   UNL     1     -14.517   0.839  -9.772  1.00  0.00     0.159 HD
ATOM     40  H   UNL     1     -15.418   2.092  -8.980  1.00  0.00     0.159 HD
ATOM     41  H   UNL     1     -15.215   2.363  -6.799  1.00  0.00     0.159 HD
ATOM     42  H   UNL     1     -13.852   1.782  -5.921  1.00  0.00     0.159 HD
ENDBRANCH  34  35
ENDBRANCH  33  34
ENDBRANCH  32  33
ENDBRANCH   6  32
ENDBRANCH   4   6
ENDBRANCH   1   2
BRANCH   1  43
ATOM     43  C   UNL     1      -7.786   0.805  -4.021  1.00  0.00     0.102 C 
ATOM     44  C   UNL     1      -6.388   0.793  -3.381  1.00  0.00     0.020 C 
BRANCH  43  45
ATOM     45  C   UNL     1      -7.899   1.713  -5.250  1.00  0.00     0.225 C 
ATOM     46  O   UNL     1      -8.882   2.411  -5.481  1.00  0.00    -0.275 OA
ATOM     47  N   UNL     1      -6.857   1.629  -6.146  1.00  0.00    -0.342 N 
ATOM     48  H   UNL     1      -5.998   1.174  -5.872  1.00  0.00     0.164 HD
BRANCH  47  49
ATOM     49  C   UNL     1      -6.813   2.465  -7.349  1.00  0.00     0.192 C 
BRANCH  49  50
ATOM     50  C   UNL     1      -7.261   1.645  -8.562  1.00  0.00     0.047 C 
BRANCH  50  51
ATOM     51  C   UNL     1      -6.822   0.178  -8.466  1.00  0.00     0.103 C 
BRANCH  51  52
ATOM     52  C   UNL     1      -5.798  -0.186  -9.540  1.00  0.00     0.226 C 
ATOM     53  O   UNL     1      -4.610   0.095  -9.369  1.00  0.00    -0.275 OA
BRANCH  52  54
ATOM     54  N   UNL     1      -6.281  -0.904 -10.649  1.00  0.00    -0.311 N 
ATOM     55  C   UNL     1      -5.993  -2.336 -10.807  1.00  0.00     0.153 C 
BRANCH  54  56
ATOM     56  C   UNL     1      -7.058  -0.284 -11.641  1.00  0.00     0.102 C 
ATOM     57  C   UNL     1      -8.243  -0.736 -12.084  1.00  0.00     0.043 C 
BRANCH  56  58
ATOM     58  C   UNL     1      -6.616   1.015 -12.273  1.00  0.00     0.268 C 
ATOM     59  O   UNL     1      -7.153   2.090 -12.040  1.00  0.00    -0.268 OA
ATOM     60  N   UNL     1      -5.512   0.876 -13.080  1.00  0.00    -0.339 N 
ATOM     61  H   UNL     1      -5.132  -0.052 -13.229  1.00  0.00     0.164 HD
BRANCH  60  62
ATOM     62  C   UNL     1      -4.881   2.017 -13.741  1.00  0.00     0.168 CG0
ATOM     63  C   UNL     1      -5.390   2.173 -15.168  1.00  0.00     0.041 C 
ATOM     64  G   UNL     1      -3.348   1.841 -13.724  1.00  0.00     0.000 G0
ENDBRANCH  60  62
ENDBRANCH  56  58
ENDBRANCH  54  56
ENDBRANCH  52  54
ENDBRANCH  51  52
ENDBRANCH  50  51
ENDBRANCH  49  50
BRANCH  49  65
ATOM     65  C   UNL     1      -5.402   3.019  -7.603  1.00  0.00     0.326 C 
ATOM     66  O   UNL     1      -5.071   3.711  -8.555  1.00  0.00    -0.250 OA
BRANCH  65  67
ATOM     67  O   UNL     1      -4.475   2.636  -6.698  1.00  0.00    -0.480 OA
ATOM     68  H   UNL     1      -3.876   3.411  -6.638  1.00  0.00     0.296 HD
ENDBRANCH  65  67
ENDBRANCH  49  65
ENDBRANCH  47  49
ENDBRANCH  43  45
ENDBRANCH   1  43
BRANCH   1  69
ATOM     69  C   UNL     1      -8.609   1.099  -1.522  1.00  0.00    -0.001 C 
ATOM     70  C   UNL     1      -8.608   0.048  -0.684  1.00  0.00     0.001 C 
BRANCH  70  71
ATOM     71  C   UNL     1      -8.276   0.061   0.743  1.00  0.00    -0.055 C 
ATOM     72  C   UNL     1      -7.599   1.127   1.220  1.00  0.00    -0.018 C 
ATOM     73  C   UNL     1      -8.720  -1.111   1.578  1.00  0.00     0.044 C 
BRANCH  72  74
ATOM     74  C   UNL     1      -7.127   1.412   2.638  1.00  0.00     0.038 C 
ATOM     75  C   UNL     1      -8.348   1.890   3.434  1.00  0.00     0.015 C 
BRANCH  74  76
ATOM     76  C   UNL     1      -5.947   2.427   2.579  1.00  0.00     0.128 C 
BRANCH  76  77
ATOM     77  O   UNL     1      -5.613   2.868   3.906  1.00  0.00    -0.381 OA
ATOM     78  C   UNL     1      -4.683   2.023   4.571  1.00  0.00     0.195 C 
ENDBRANCH  76  77
BRANCH  76  79
ATOM     79  C   UNL     1      -4.716   1.916   1.789  1.00  0.00     0.068 C 
BRANCH  79  80
ATOM     80  C   UNL     1      -4.515   2.431   0.384  1.00  0.00    -0.045 A 
ATOM     81  C   UNL     1      -5.439   3.303  -0.204  1.00  0.00     0.004 A 
ATOM     82  C   UNL     1      -3.404   2.018  -0.367  1.00  0.00     0.004 A 
ATOM     83  C   UNL     1      -5.253   3.764  -1.509  1.00  0.00     0.000 A 
ATOM     84  C   UNL     1      -3.219   2.479  -1.673  1.00  0.00     0.000 A 
ATOM     85  C   UNL     1      -4.142   3.352  -2.243  1.00  0.00     0.000 A 
ENDBRANCH  79  80
ENDBRANCH  76  79
ENDBRANCH  74  76
ENDBRANCH  72  74
ENDBRANCH  70  71
ENDBRANCH   1  69
TORSDOF 17
ENDMDL
MODEL 13
REMARK VINA RESULT:    -7.911      5.764     12.320
REMARK INTER + INTRA:         -30.858
REMARK INTER:                 -24.983
REMARK INTRA:                  -5.874
REMARK UNBOUND:                -7.222
REMARK SMILES C=C1C(=O)N[C@H](C)C(=O)N[C@@H](CC(C)C)C(=O)N[C@@H](C(=O)O)[C@H](C)C(=O)N[C@@H](CCCN=C(N)N)C(=O)N[C@@H](/C=C/C(C)=C/[C@H](C)[C@H](Cc2ccccc2)OC)[C@H](C)C(=O)N[C@@H](C(=O)O)CCC(=O)N1C
REMARK SMILES IDX 39 1 38 2 37 3 36 4 28 6 27 7 25 8 26 9 23 11 24 12 19 13
REMARK SMILES IDX 18 14 16 15 17 16 11 18 10 19 8 20 9 21 12 24 13 25 14 26
REMARK SMILES IDX 15 27 20 28 21 29 22 30 29 32 30 33 31 34 32 35 33 36 34 37
REMARK SMILES IDX 35 38 57 43 58 44 59 45 60 46 61 47 62 49 66 50 67 51 68 52
REMARK SMILES IDX 69 53 70 54 71 55 2 56 1 57 3 58 4 59 5 60 6 62 7 63 63 65
REMARK SMILES IDX 64 66 65 67 40 69 41 70 42 71 44 72 43 73 45 74 46 75 47 76
REMARK SMILES IDX 55 77 56 78 48 79 49 80 50 81 54 82 51 83 53 84 52 85
REMARK H PARENT 38 5 27 10 18 17 10 22 22 31 34 39 34 40 35 41 35 42 61 48
REMARK H PARENT 5 61 65 68
REMARK Flexibility Score:  369.900
ROOT
ATOM      1  C   UNL     1      -0.550   3.239  -3.843  1.00  0.00     0.117 C 
ENDROOT
BRANCH   1   2
ATOM      2  N   UNL     1      -1.976   3.545  -3.726  1.00  0.00    -0.347 N 
ATOM      3  O   UNL     1      -2.791   1.529  -4.463  1.00  0.00    -0.273 OA
ATOM      4  C   UNL     1      -2.985   2.631  -3.960  1.00  0.00     0.243 C 
ATOM      5  H   UNL     1      -2.262   4.460  -3.410  1.00  0.00     0.164 HD
BRANCH   4   6
ATOM      6  C   UNL     1      -4.406   3.185  -3.682  1.00  0.00     0.171 C 
BRANCH   6   7
ATOM      7  N   UNL     1      -5.425   2.174  -4.006  1.00  0.00    -0.344 N 
ATOM      8  C   UNL     1      -6.187   2.286  -5.149  1.00  0.00     0.226 C 
ATOM      9  O   UNL     1      -6.074   3.225  -5.928  1.00  0.00    -0.275 OA
ATOM     10  H   UNL     1      -5.593   1.420  -3.352  1.00  0.00     0.164 HD
BRANCH   8  11
ATOM     11  C   UNL     1      -7.155   1.137  -5.370  1.00  0.00     0.109 C 
ATOM     12  C   UNL     1      -8.084   0.993  -4.165  1.00  0.00     0.021 C 
BRANCH  11  13
ATOM     13  C   UNL     1      -7.870   1.312  -6.724  1.00  0.00     0.204 C 
BRANCH  13  14
ATOM     14  N   UNL     1      -7.226   0.541  -7.792  1.00  0.00    -0.340 N 
ATOM     15  C   UNL     1      -6.925   1.078  -9.025  1.00  0.00     0.243 C 
ATOM     16  O   UNL     1      -7.121   2.262  -9.296  1.00  0.00    -0.273 OA
ATOM     17  H   UNL     1      -7.176  -0.476  -7.688  1.00  0.00     0.164 HD
BRANCH  15  18
ATOM     18  C   UNL     1      -6.443   0.028 -10.056  1.00  0.00     0.171 C 
BRANCH  18  19
ATOM     19  N   UNL     1      -6.585   0.641 -11.376  1.00  0.00    -0.343 N 
ATOM     20  C   UNL     1      -7.487   0.164 -12.307  1.00  0.00     0.242 CG0
ATOM     21  O   UNL     1      -8.114  -0.877 -12.122  1.00  0.00    -0.273 OA
ATOM     22  H   UNL     1      -6.005   1.435 -11.621  1.00  0.00     0.164 HD
ATOM     23  G   UNL     1      -7.551   0.986 -13.611  1.00  0.00     0.000 G0
ENDBRANCH  18  19
BRANCH  18  24
ATOM     24  C   UNL     1      -4.990  -0.376  -9.778  1.00  0.00     0.038 C 
BRANCH  24  25
ATOM     25  C   UNL     1      -3.933   0.465 -10.525  1.00  0.00    -0.015 C 
ATOM     26  C   UNL     1      -2.662  -0.328 -10.829  1.00  0.00     0.007 C 
ATOM     27  C   UNL     1      -3.582   1.704  -9.697  1.00  0.00     0.007 C 
ENDBRANCH  24  25
ENDBRANCH  18  24
ENDBRANCH  15  18
ENDBRANCH  13  14
BRANCH  13  28
ATOM     28  C   UNL     1      -9.343   0.892  -6.687  1.00  0.00     0.327 C 
ATOM     29  O   UNL     1      -9.771  -0.251  -6.748  1.00  0.00    -0.250 OA
BRANCH  28  30
ATOM     30  O   UNL     1     -10.192   1.940  -6.695  1.00  0.00    -0.480 OA
ATOM     31  H   UNL     1      -9.980   2.428  -5.873  1.00  0.00     0.296 HD
ENDBRANCH  28  30
ENDBRANCH  13  28
ENDBRANCH  11  13
ENDBRANCH   8  11
ENDBRANCH   6   7
BRANCH   6  32
ATOM     32  C   UNL     1      -4.502   3.607  -2.211  1.00  0.00     0.037 C 
BRANCH  32  33
ATOM     33  C   UNL     1      -5.774   3.074  -1.538  1.00  0.00     0.026 C 
BRANCH  33  34
ATOM     34  C   UNL     1      -5.820   3.389  -0.042  1.00  0.00     0.146 C 
BRANCH  34  35
ATOM     35  N   UNL     1      -4.493   3.803   0.392  1.00  0.00    -0.254 NA
ATOM     36  C   UNL     1      -4.215   3.764   1.642  1.00  0.00     0.185 C 
ATOM     37  N   UNL     1      -2.993   4.139   2.052  1.00  0.00    -0.370 N 
ATOM     38  N   UNL     1      -4.995   3.385   2.669  1.00  0.00    -0.370 N 
ATOM     39  H   UNL     1      -2.342   4.429   1.334  1.00  0.00     0.159 HD
ATOM     40  H   UNL     1      -2.644   3.974   2.980  1.00  0.00     0.159 HD
ATOM     41  H   UNL     1      -4.708   3.531   3.623  1.00  0.00     0.159 HD
ATOM     42  H   UNL     1      -5.947   3.093   2.510  1.00  0.00     0.159 HD
ENDBRANCH  34  35
ENDBRANCH  33  34
ENDBRANCH  32  33
ENDBRANCH   6  32
ENDBRANCH   4   6
ENDBRANCH   1   2
BRANCH   1  43
ATOM     43  C   UNL     1       0.169   3.733  -2.555  1.00  0.00     0.102 C 
ATOM     44  C   UNL     1       1.655   3.340  -2.495  1.00  0.00     0.020 C 
BRANCH  43  45
ATOM     45  C   UNL     1      -0.625   3.352  -1.301  1.00  0.00     0.225 C 
ATOM     46  O   UNL     1      -1.336   4.145  -0.691  1.00  0.00    -0.275 OA
ATOM     47  N   UNL     1      -0.420   2.073  -0.836  1.00  0.00    -0.342 N 
ATOM     48  H   UNL     1       0.041   1.394  -1.426  1.00  0.00     0.164 HD
BRANCH  47  49
ATOM     49  C   UNL     1      -1.139   1.558   0.333  1.00  0.00     0.192 C 
BRANCH  49  50
ATOM     50  C   UNL     1      -0.388   0.356   0.911  1.00  0.00     0.047 C 
BRANCH  50  51
ATOM     51  C   UNL     1       0.972   0.749   1.502  1.00  0.00     0.103 C 
BRANCH  51  52
ATOM     52  C   UNL     1       1.877  -0.463   1.714  1.00  0.00     0.226 C 
ATOM     53  O   UNL     1       1.913  -1.354   0.863  1.00  0.00    -0.275 OA
BRANCH  52  54
ATOM     54  N   UNL     1       2.689  -0.446   2.864  1.00  0.00    -0.311 N 
ATOM     55  C   UNL     1       3.732  -1.460   3.068  1.00  0.00     0.153 C 
BRANCH  54  56
ATOM     56  C   UNL     1       2.537   0.539   3.853  1.00  0.00     0.102 C 
ATOM     57  C   UNL     1       1.687   0.463   4.890  1.00  0.00     0.043 C 
BRANCH  56  58
ATOM     58  C   UNL     1       3.388   1.787   3.841  1.00  0.00     0.268 C 
ATOM     59  O   UNL     1       3.749   2.342   2.812  1.00  0.00    -0.268 OA
ATOM     60  N   UNL     1       3.658   2.269   5.100  1.00  0.00    -0.339 N 
ATOM     61  H   UNL     1       3.332   1.744   5.902  1.00  0.00     0.164 HD
BRANCH  60  62
ATOM     62  C   UNL     1       4.414   3.501   5.316  1.00  0.00     0.168 CG0
ATOM     63  C   UNL     1       4.887   3.606   6.761  1.00  0.00     0.041 C 
ATOM     64  G   UNL     1       3.542   4.716   4.937  1.00  0.00     0.000 G0
ENDBRANCH  60  62
ENDBRANCH  56  58
ENDBRANCH  54  56
ENDBRANCH  52  54
ENDBRANCH  51  52
ENDBRANCH  50  51
ENDBRANCH  49  50
BRANCH  49  65
ATOM     65  C   UNL     1      -2.574   1.139  -0.024  1.00  0.00     0.326 C 
ATOM     66  O   UNL     1      -2.962   0.806  -1.135  1.00  0.00    -0.250 OA
BRANCH  65  67
ATOM     67  O   UNL     1      -3.454   1.213   0.999  1.00  0.00    -0.480 OA
ATOM     68  H   UNL     1      -2.975   0.797   1.747  1.00  0.00     0.296 HD
ENDBRANCH  65  67
ENDBRANCH  49  65
ENDBRANCH  47  49
ENDBRANCH  43  45
ENDBRANCH   1  43
BRANCH   1  69
ATOM     69  C   UNL     1      -0.107   3.789  -5.187  1.00  0.00    -0.001 C 
ATOM     70  C   UNL     1      -0.208   3.192  -6.387  1.00  0.00     0.001 C 
BRANCH  70  71
ATOM     71  C   UNL     1       0.204   3.742  -7.680  1.00  0.00    -0.055 C 
ATOM     72  C   UNL     1       1.477   4.173  -7.802  1.00  0.00    -0.018 C 
ATOM     73  C   UNL     1      -0.819   3.779  -8.785  1.00  0.00     0.044 C 
BRANCH  72  74
ATOM     74  C   UNL     1       2.177   4.780  -9.010  1.00  0.00     0.038 C 
ATOM     75  C   UNL     1       3.651   4.365  -8.934  1.00  0.00     0.015 C 
BRANCH  74  76
ATOM     76  C   UNL     1       1.930   6.317  -9.011  1.00  0.00     0.128 C 
BRANCH  76  77
ATOM     77  O   UNL     1       3.185   7.015  -8.931  1.00  0.00    -0.381 OA
ATOM     78  C   UNL     1       3.051   8.430  -8.932  1.00  0.00     0.195 C 
ENDBRANCH  76  77
BRANCH  76  79
ATOM     79  C   UNL     1       1.043   6.811 -10.182  1.00  0.00     0.068 C 
BRANCH  79  80
ATOM     80  C   UNL     1       1.196   6.131 -11.521  1.00  0.00    -0.045 A 
ATOM     81  C   UNL     1       2.315   6.374 -12.330  1.00  0.00     0.004 A 
ATOM     82  C   UNL     1       0.200   5.262 -11.991  1.00  0.00     0.004 A 
ATOM     83  C   UNL     1       2.442   5.751 -13.574  1.00  0.00     0.000 A 
ATOM     84  C   UNL     1       0.328   4.641 -13.235  1.00  0.00     0.000 A 
ATOM     85  C   UNL     1       1.449   4.885 -14.025  1.00  0.00     0.000 A 
ENDBRANCH  79  80
ENDBRANCH  76  79
ENDBRANCH  74  76
ENDBRANCH  72  74
ENDBRANCH  70  71
ENDBRANCH   1  69
TORSDOF 17
ENDMDL
MODEL 14
REMARK VINA RESULT:    -7.911      3.883     13.328
REMARK INTER + INTRA:         -30.856
REMARK INTER:                 -23.983
REMARK INTRA:                  -6.873
REMARK UNBOUND:                -7.222
REMARK SMILES C=C1C(=O)N[C@H](C)C(=O)N[C@@H](CC(C)C)C(=O)N[C@@H](C(=O)O)[C@H](C)C(=O)N[C@@H](CCCN=C(N)N)C(=O)N[C@@H](/C=C/C(C)=C/[C@H](C)[C@H](Cc2ccccc2)OC)[C@H](C)C(=O)N[C@@H](C(=O)O)CCC(=O)N1C
REMARK SMILES IDX 39 1 38 2 37 3 36 4 28 6 27 7 25 8 26 9 23 11 24 12 19 13
REMARK SMILES IDX 18 14 16 15 17 16 11 18 10 19 8 20 9 21 12 24 13 25 14 26
REMARK SMILES IDX 15 27 20 28 21 29 22 30 29 32 30 33 31 34 32 35 33 36 34 37
REMARK SMILES IDX 35 38 57 43 58 44 59 45 60 46 61 47 62 49 66 50 67 51 68 52
REMARK SMILES IDX 69 53 70 54 71 55 2 56 1 57 3 58 4 59 5 60 6 62 7 63 63 65
REMARK SMILES IDX 64 66 65 67 40 69 41 70 42 71 44 72 43 73 45 74 46 75 47 76
REMARK SMILES IDX 55 77 56 78 48 79 49 80 50 81 54 82 51 83 53 84 52 85
REMARK H PARENT 38 5 27 10 18 17 10 22 22 31 34 39 34 40 35 41 35 42 61 48
REMARK H PARENT 5 61 65 68
REMARK Flexibility Score:  369.900
ROOT
ATOM      1  C   UNL     1      -9.420   1.285  -5.318  1.00  0.00     0.117 C 
ENDROOT
BRANCH   1   2
ATOM      2  N   UNL     1     -10.472   0.276  -5.452  1.00  0.00    -0.347 N 
ATOM      3  O   UNL     1     -11.824   1.006  -3.746  1.00  0.00    -0.273 OA
ATOM      4  C   UNL     1     -11.638   0.273  -4.711  1.00  0.00     0.243 C 
ATOM      5  H   UNL     1     -10.383  -0.441  -6.155  1.00  0.00     0.164 HD
BRANCH   4   6
ATOM      6  C   UNL     1     -12.625  -0.855  -5.108  1.00  0.00     0.171 C 
BRANCH   6   7
ATOM      7  N   UNL     1     -13.898  -0.702  -4.385  1.00  0.00    -0.344 N 
ATOM      8  C   UNL     1     -14.056  -1.232  -3.123  1.00  0.00     0.226 C 
ATOM      9  O   UNL     1     -13.172  -1.863  -2.556  1.00  0.00    -0.275 OA
ATOM     10  H   UNL     1     -14.673  -0.245  -4.848  1.00  0.00     0.164 HD
BRANCH   8  11
ATOM     11  C   UNL     1     -15.405  -0.944  -2.489  1.00  0.00     0.109 C 
ATOM     12  C   UNL     1     -15.327  -1.139  -0.975  1.00  0.00     0.021 C 
BRANCH  11  13
ATOM     13  C   UNL     1     -15.908   0.443  -2.939  1.00  0.00     0.204 C 
BRANCH  13  14
ATOM     14  N   UNL     1     -17.371   0.504  -3.007  1.00  0.00    -0.340 N 
ATOM     15  C   UNL     1     -18.057   0.719  -4.182  1.00  0.00     0.243 C 
ATOM     16  O   UNL     1     -17.491   0.814  -5.270  1.00  0.00    -0.273 OA
ATOM     17  H   UNL     1     -17.890   0.585  -2.128  1.00  0.00     0.164 HD
BRANCH  15  18
ATOM     18  C   UNL     1     -19.574   0.952  -3.979  1.00  0.00     0.171 C 
BRANCH  18  19
ATOM     19  N   UNL     1     -20.126  -0.302  -3.470  1.00  0.00    -0.343 N 
ATOM     20  C   UNL     1     -20.453  -1.349  -4.311  1.00  0.00     0.242 CG0
ATOM     21  O   UNL     1     -20.419  -1.227  -5.533  1.00  0.00    -0.273 OA
ATOM     22  H   UNL     1     -20.282  -0.409  -2.474  1.00  0.00     0.164 HD
ATOM     23  G   UNL     1     -20.947  -2.617  -3.586  1.00  0.00     0.000 G0
ENDBRANCH  18  19
BRANCH  18  24
ATOM     24  C   UNL     1     -19.818   2.110  -3.004  1.00  0.00     0.038 C 
BRANCH  24  25
ATOM     25  C   UNL     1     -20.639   1.736  -1.752  1.00  0.00    -0.015 C 
ATOM     26  C   UNL     1     -22.069   2.275  -1.807  1.00  0.00     0.007 C 
ATOM     27  C   UNL     1     -19.937   2.266  -0.499  1.00  0.00     0.007 C 
ENDBRANCH  24  25
ENDBRANCH  18  24
ENDBRANCH  15  18
ENDBRANCH  13  14
BRANCH  13  28
ATOM     28  C   UNL     1     -15.448   1.579  -2.019  1.00  0.00     0.327 C 
ATOM     29  O   UNL     1     -16.157   2.237  -1.273  1.00  0.00    -0.250 OA
BRANCH  28  30
ATOM     30  O   UNL     1     -14.148   1.897  -2.182  1.00  0.00    -0.480 OA
ATOM     31  H   UNL     1     -14.096   2.840  -1.922  1.00  0.00     0.296 HD
ENDBRANCH  28  30
ENDBRANCH  13  28
ENDBRANCH  11  13
ENDBRANCH   8  11
ENDBRANCH   6   7
BRANCH   6  32
ATOM     32  C   UNL     1     -12.849  -0.817  -6.624  1.00  0.00     0.037 C 
BRANCH  32  33
ATOM     33  C   UNL     1     -13.974   0.150  -7.020  1.00  0.00     0.026 C 
BRANCH  33  34
ATOM     34  C   UNL     1     -13.444   1.513  -7.466  1.00  0.00     0.146 C 
BRANCH  34  35
ATOM     35  N   UNL     1     -12.241   1.312  -8.262  1.00  0.00    -0.254 NA
ATOM     36  C   UNL     1     -11.977   2.144  -9.199  1.00  0.00     0.185 C 
ATOM     37  N   UNL     1     -10.868   1.971  -9.935  1.00  0.00    -0.370 N 
ATOM     38  N   UNL     1     -12.674   3.227  -9.587  1.00  0.00    -0.370 N 
ATOM     39  H   UNL     1     -10.284   1.180  -9.696  1.00  0.00     0.159 HD
ATOM     40  H   UNL     1     -10.504   2.666 -10.564  1.00  0.00     0.159 HD
ATOM     41  H   UNL     1     -12.437   3.724 -10.431  1.00  0.00     0.159 HD
ATOM     42  H   UNL     1     -13.539   3.470  -9.132  1.00  0.00     0.159 HD
ENDBRANCH  34  35
ENDBRANCH  33  34
ENDBRANCH  32  33
ENDBRANCH   6  32
ENDBRANCH   4   6
ENDBRANCH   1   2
BRANCH   1  43
ATOM     43  C   UNL     1      -8.852   1.598  -6.732  1.00  0.00     0.102 C 
ATOM     44  C   UNL     1      -8.811   0.373  -7.661  1.00  0.00     0.020 C 
BRANCH  43  45
ATOM     45  C   UNL     1      -7.520   2.349  -6.636  1.00  0.00     0.225 C 
ATOM     46  O   UNL     1      -7.410   3.454  -6.113  1.00  0.00    -0.275 OA
ATOM     47  N   UNL     1      -6.454   1.747  -7.264  1.00  0.00    -0.342 N 
ATOM     48  H   UNL     1      -6.524   0.781  -7.553  1.00  0.00     0.164 HD
BRANCH  47  49
ATOM     49  C   UNL     1      -5.111   2.333  -7.224  1.00  0.00     0.192 C 
BRANCH  49  50
ATOM     50  C   UNL     1      -4.542   2.413  -8.643  1.00  0.00     0.047 C 
BRANCH  50  51
ATOM     51  C   UNL     1      -5.394   1.636  -9.656  1.00  0.00     0.103 C 
BRANCH  51  52
ATOM     52  C   UNL     1      -4.767   0.293 -10.023  1.00  0.00     0.226 C 
ATOM     53  O   UNL     1      -3.719  -0.060  -9.479  1.00  0.00    -0.275 OA
BRANCH  52  54
ATOM     54  N   UNL     1      -5.489  -0.509 -10.926  1.00  0.00    -0.311 N 
ATOM     55  C   UNL     1      -5.992  -1.831 -10.529  1.00  0.00     0.153 C 
BRANCH  54  56
ATOM     56  C   UNL     1      -5.758  -0.077 -12.235  1.00  0.00     0.102 C 
ATOM     57  C   UNL     1      -6.983   0.011 -12.779  1.00  0.00     0.043 C 
BRANCH  56  58
ATOM     58  C   UNL     1      -4.643   0.382 -13.145  1.00  0.00     0.268 C 
ATOM     59  O   UNL     1      -4.288   1.550 -13.233  1.00  0.00    -0.268 OA
ATOM     60  N   UNL     1      -4.028  -0.652 -13.810  1.00  0.00    -0.339 N 
ATOM     61  H   UNL     1      -4.389  -1.591 -13.691  1.00  0.00     0.164 HD
BRANCH  60  62
ATOM     62  C   UNL     1      -2.883  -0.439 -14.694  1.00  0.00     0.168 CG0
ATOM     63  C   UNL     1      -1.586  -0.355 -13.899  1.00  0.00     0.041 C 
ATOM     64  G   UNL     1      -3.101   0.845 -15.521  1.00  0.00     0.000 G0
ENDBRANCH  60  62
ENDBRANCH  56  58
ENDBRANCH  54  56
ENDBRANCH  52  54
ENDBRANCH  51  52
ENDBRANCH  50  51
ENDBRANCH  49  50
BRANCH  49  65
ATOM     65  C   UNL     1      -4.160   1.512  -6.339  1.00  0.00     0.326 C 
ATOM     66  O   UNL     1      -4.393   1.142  -5.197  1.00  0.00    -0.250 OA
BRANCH  65  67
ATOM     67  O   UNL     1      -2.957   1.249  -6.896  1.00  0.00    -0.480 OA
ATOM     68  H   UNL     1      -3.159   0.563  -7.569  1.00  0.00     0.296 HD
ENDBRANCH  65  67
ENDBRANCH  49  65
ENDBRANCH  47  49
ENDBRANCH  43  45
ENDBRANCH   1  43
BRANCH   1  69
ATOM     69  C   UNL     1      -8.476   0.774  -4.245  1.00  0.00    -0.001 C 
ATOM     70  C   UNL     1      -8.413   1.162  -2.960  1.00  0.00     0.001 C 
BRANCH  70  71
ATOM     71  C   UNL     1      -7.511   0.646  -1.928  1.00  0.00    -0.055 C 
ATOM     72  C   UNL     1      -7.899   0.763  -0.640  1.00  0.00    -0.018 C 
ATOM     73  C   UNL     1      -6.220   0.014  -2.376  1.00  0.00     0.044 C 
BRANCH  72  74
ATOM     74  C   UNL     1      -7.180   0.320   0.626  1.00  0.00     0.038 C 
ATOM     75  C   UNL     1      -7.920  -0.912   1.160  1.00  0.00     0.015 C 
BRANCH  74  76
ATOM     76  C   UNL     1      -7.117   1.523   1.613  1.00  0.00     0.128 C 
BRANCH  76  77
ATOM     77  O   UNL     1      -7.549   1.109   2.920  1.00  0.00    -0.381 OA
ATOM     78  C   UNL     1      -8.614   1.890   3.445  1.00  0.00     0.195 C 
ENDBRANCH  76  77
BRANCH  76  79
ATOM     79  C   UNL     1      -5.748   2.248   1.636  1.00  0.00     0.068 C 
BRANCH  79  80
ATOM     80  C   UNL     1      -5.007   2.400   0.330  1.00  0.00    -0.045 A 
ATOM     81  C   UNL     1      -5.455   3.291  -0.655  1.00  0.00     0.004 A 
ATOM     82  C   UNL     1      -3.866   1.626   0.069  1.00  0.00     0.004 A 
ATOM     83  C   UNL     1      -4.771   3.415  -1.867  1.00  0.00     0.000 A 
ATOM     84  C   UNL     1      -3.184   1.751  -1.143  1.00  0.00     0.000 A 
ATOM     85  C   UNL     1      -3.636   2.646  -2.109  1.00  0.00     0.000 A 
ENDBRANCH  79  80
ENDBRANCH  76  79
ENDBRANCH  74  76
ENDBRANCH  72  74
ENDBRANCH  70  71
ENDBRANCH   1  69
TORSDOF 17
ENDMDL
MODEL 15
REMARK VINA RESULT:    -7.898      3.628     11.840
REMARK INTER + INTRA:         -30.818
REMARK INTER:                 -23.715
REMARK INTRA:                  -7.102
REMARK UNBOUND:                -7.222
REMARK SMILES C=C1C(=O)N[C@H](C)C(=O)N[C@@H](CC(C)C)C(=O)N[C@@H](C(=O)O)[C@H](C)C(=O)N[C@@H](CCCN=C(N)N)C(=O)N[C@@H](/C=C/C(C)=C/[C@H](C)[C@H](Cc2ccccc2)OC)[C@H](C)C(=O)N[C@@H](C(=O)O)CCC(=O)N1C
REMARK SMILES IDX 39 1 38 2 37 3 36 4 28 6 27 7 25 8 26 9 23 11 24 12 19 13
REMARK SMILES IDX 18 14 16 15 17 16 11 18 10 19 8 20 9 21 12 24 13 25 14 26
REMARK SMILES IDX 15 27 20 28 21 29 22 30 29 32 30 33 31 34 32 35 33 36 34 37
REMARK SMILES IDX 35 38 57 43 58 44 59 45 60 46 61 47 62 49 66 50 67 51 68 52
REMARK SMILES IDX 69 53 70 54 71 55 2 56 1 57 3 58 4 59 5 60 6 62 7 63 63 65
REMARK SMILES IDX 64 66 65 67 40 69 41 70 42 71 44 72 43 73 45 74 46 75 47 76
REMARK SMILES IDX 55 77 56 78 48 79 49 80 50 81 54 82 51 83 53 84 52 85
REMARK H PARENT 38 5 27 10 18 17 10 22 22 31 34 39 34 40 35 41 35 42 61 48
REMARK H PARENT 5 61 65 68
REMARK Flexibility Score:  369.900
ROOT
ATOM      1  C   UNL     1      -5.393   2.162  -5.826  1.00  0.00     0.117 C 
ENDROOT
BRANCH   1   2
ATOM      2  N   UNL     1      -6.677   1.488  -6.020  1.00  0.00    -0.347 N 
ATOM      3  O   UNL     1      -7.985   3.362  -6.237  1.00  0.00    -0.273 OA
ATOM      4  C   UNL     1      -7.860   2.144  -6.302  1.00  0.00     0.243 C 
ATOM      5  H   UNL     1      -6.714   0.480  -6.000  1.00  0.00     0.164 HD
BRANCH   4   6
ATOM      6  C   UNL     1      -9.057   1.191  -6.548  1.00  0.00     0.171 C 
BRANCH   6   7
ATOM      7  N   UNL     1     -10.047   1.319  -5.467  1.00  0.00    -0.344 N 
ATOM      8  C   UNL     1     -10.315   0.257  -4.631  1.00  0.00     0.226 C 
ATOM      9  O   UNL     1      -9.772  -0.834  -4.754  1.00  0.00    -0.275 OA
ATOM     10  H   UNL     1     -10.565   2.184  -5.376  1.00  0.00     0.164 HD
BRANCH   8  11
ATOM     11  C   UNL     1     -11.318   0.564  -3.533  1.00  0.00     0.109 C 
ATOM     12  C   UNL     1     -11.888  -0.736  -2.963  1.00  0.00     0.021 C 
BRANCH  11  13
ATOM     13  C   UNL     1     -10.680   1.503  -2.490  1.00  0.00     0.204 C 
BRANCH  13  14
ATOM     14  N   UNL     1     -11.087   1.168  -1.122  1.00  0.00    -0.340 N 
ATOM     15  C   UNL     1     -11.500   2.116  -0.211  1.00  0.00     0.243 C 
ATOM     16  O   UNL     1     -11.614   3.305  -0.501  1.00  0.00    -0.273 OA
ATOM     17  H   UNL     1     -10.873   0.230  -0.774  1.00  0.00     0.164 HD
BRANCH  15  18
ATOM     18  C   UNL     1     -11.679   1.558   1.223  1.00  0.00     0.171 C 
BRANCH  18  19
ATOM     19  N   UNL     1     -13.073   1.134   1.336  1.00  0.00    -0.343 N 
ATOM     20  C   UNL     1     -14.084   2.027   1.633  1.00  0.00     0.242 CG0
ATOM     21  O   UNL     1     -13.844   3.191   1.945  1.00  0.00    -0.273 OA
ATOM     22  H   UNL     1     -13.308   0.158   1.201  1.00  0.00     0.164 HD
ATOM     23  G   UNL     1     -15.498   1.410   1.633  1.00  0.00     0.000 G0
ENDBRANCH  18  19
BRANCH  18  24
ATOM     24  C   UNL     1     -10.714   0.393   1.475  1.00  0.00     0.038 C 
BRANCH  24  25
ATOM     25  C   UNL     1      -9.479   0.751   2.329  1.00  0.00    -0.015 C 
ATOM     26  C   UNL     1      -9.758   1.887   3.313  1.00  0.00     0.007 C 
ATOM     27  C   UNL     1      -8.315   1.138   1.413  1.00  0.00     0.007 C 
ENDBRANCH  24  25
ENDBRANCH  18  24
ENDBRANCH  15  18
ENDBRANCH  13  14
BRANCH  13  28
ATOM     28  C   UNL     1      -9.149   1.491  -2.524  1.00  0.00     0.327 C 
ATOM     29  O   UNL     1      -8.429   2.359  -2.992  1.00  0.00    -0.250 OA
BRANCH  28  30
ATOM     30  O   UNL     1      -8.620   0.335  -2.075  1.00  0.00    -0.480 OA
ATOM     31  H   UNL     1      -8.511  -0.210  -2.882  1.00  0.00     0.296 HD
ENDBRANCH  28  30
ENDBRANCH  13  28
ENDBRANCH  11  13
ENDBRANCH   8  11
ENDBRANCH   6   7
BRANCH   6  32
ATOM     32  C   UNL     1      -9.687   1.515  -7.908  1.00  0.00     0.037 C 
BRANCH  32  33
ATOM     33  C   UNL     1     -10.813   0.538  -8.273  1.00  0.00     0.026 C 
BRANCH  33  34
ATOM     34  C   UNL     1     -12.178   1.221  -8.353  1.00  0.00     0.146 C 
BRANCH  34  35
ATOM     35  N   UNL     1     -12.815   1.153  -7.045  1.00  0.00    -0.254 NA
ATOM     36  C   UNL     1     -13.675   0.228  -6.828  1.00  0.00     0.185 C 
ATOM     37  N   UNL     1     -14.264   0.152  -5.624  1.00  0.00    -0.370 N 
ATOM     38  N   UNL     1     -14.106  -0.737  -7.660  1.00  0.00    -0.370 N 
ATOM     39  H   UNL     1     -13.983   0.840  -4.937  1.00  0.00     0.159 HD
ATOM     40  H   UNL     1     -14.810  -0.636  -5.321  1.00  0.00     0.159 HD
ATOM     41  H   UNL     1     -14.889  -1.322  -7.418  1.00  0.00     0.159 HD
ATOM     42  H   UNL     1     -13.759  -0.792  -8.605  1.00  0.00     0.159 HD
ENDBRANCH  34  35
ENDBRANCH  33  34
ENDBRANCH  32  33
ENDBRANCH   6  32
ENDBRANCH   4   6
ENDBRANCH   1   2
BRANCH   1  43
ATOM     43  C   UNL     1      -4.344   1.514  -6.775  1.00  0.00     0.102 C 
ATOM     44  C   UNL     1      -2.918   1.507  -6.199  1.00  0.00     0.020 C 
BRANCH  43  45
ATOM     45  C   UNL     1      -4.442   2.103  -8.186  1.00  0.00     0.225 C 
ATOM     46  O   UNL     1      -3.860   3.129  -8.526  1.00  0.00    -0.275 OA
ATOM     47  N   UNL     1      -5.308   1.457  -9.039  1.00  0.00    -0.342 N 
ATOM     48  H   UNL     1      -5.657   0.541  -8.798  1.00  0.00     0.164 HD
BRANCH  47  49
ATOM     49  C   UNL     1      -5.476   1.888 -10.430  1.00  0.00     0.192 C 
BRANCH  49  50
ATOM     50  C   UNL     1      -6.909   1.602 -10.887  1.00  0.00     0.047 C 
BRANCH  50  51
ATOM     51  C   UNL     1      -7.247   0.106 -10.841  1.00  0.00     0.103 C 
BRANCH  51  52
ATOM     52  C   UNL     1      -7.335  -0.506 -12.237  1.00  0.00     0.226 C 
ATOM     53  O   UNL     1      -8.088  -0.006 -13.076  1.00  0.00    -0.275 OA
BRANCH  52  54
ATOM     54  N   UNL     1      -6.472  -1.584 -12.505  1.00  0.00    -0.311 N 
ATOM     55  C   UNL     1      -5.993  -2.456 -11.424  1.00  0.00     0.153 C 
BRANCH  54  56
ATOM     56  C   UNL     1      -6.041  -1.870 -13.811  1.00  0.00     0.102 C 
ATOM     57  C   UNL     1      -6.471  -2.904 -14.553  1.00  0.00     0.043 C 
BRANCH  56  58
ATOM     58  C   UNL     1      -5.055  -0.970 -14.517  1.00  0.00     0.268 C 
ATOM     59  O   UNL     1      -5.351   0.132 -14.958  1.00  0.00    -0.268 OA
ATOM     60  N   UNL     1      -3.781  -1.486 -14.553  1.00  0.00    -0.339 N 
ATOM     61  H   UNL     1      -3.620  -2.412 -14.175  1.00  0.00     0.164 HD
BRANCH  60  62
ATOM     62  C   UNL     1      -2.659  -0.751 -15.134  1.00  0.00     0.168 CG0
ATOM     63  C   UNL     1      -1.798  -0.120 -14.047  1.00  0.00     0.041 C 
ATOM     64  G   UNL     1      -3.191   0.325 -16.103  1.00  0.00     0.000 G0
ENDBRANCH  60  62
ENDBRANCH  56  58
ENDBRANCH  54  56
ENDBRANCH  52  54
ENDBRANCH  51  52
ENDBRANCH  50  51
ENDBRANCH  49  50
BRANCH  49  65
ATOM     65  C   UNL     1      -4.490   1.173 -11.367  1.00  0.00     0.326 C 
ATOM     66  O   UNL     1      -3.734   0.268 -11.047  1.00  0.00    -0.250 OA
BRANCH  65  67
ATOM     67  O   UNL     1      -4.456   1.660 -12.627  1.00  0.00    -0.480 OA
ATOM     68  H   UNL     1      -3.886   2.456 -12.552  1.00  0.00     0.296 HD
ENDBRANCH  65  67
ENDBRANCH  49  65
ENDBRANCH  47  49
ENDBRANCH  43  45
ENDBRANCH   1  43
BRANCH   1  69
ATOM     69  C   UNL     1      -5.132   2.154  -4.330  1.00  0.00    -0.001 C 
ATOM     70  C   UNL     1      -5.449   1.187  -3.451  1.00  0.00     0.001 C 
BRANCH  70  71
ATOM     71  C   UNL     1      -5.172   1.181  -2.013  1.00  0.00    -0.055 C 
ATOM     72  C   UNL     1      -4.993   2.372  -1.403  1.00  0.00    -0.018 C 
ATOM     73  C   UNL     1      -5.116  -0.152  -1.314  1.00  0.00     0.044 C 
BRANCH  72  74
ATOM     74  C   UNL     1      -4.699   2.670   0.060  1.00  0.00     0.038 C 
ATOM     75  C   UNL     1      -5.723   3.713   0.524  1.00  0.00     0.015 C 
BRANCH  74  76
ATOM     76  C   UNL     1      -3.211   3.111   0.192  1.00  0.00     0.128 C 
BRANCH  76  77
ATOM     77  O   UNL     1      -2.882   3.317   1.576  1.00  0.00    -0.381 OA
ATOM     78  C   UNL     1      -3.310   2.262   2.428  1.00  0.00     0.195 C 
ENDBRANCH  76  77
BRANCH  76  79
ATOM     79  C   UNL     1      -2.211   2.174  -0.530  1.00  0.00     0.068 C 
BRANCH  79  80
ATOM     80  C   UNL     1      -1.295   2.781  -1.566  1.00  0.00    -0.045 A 
ATOM     81  C   UNL     1      -0.161   3.511  -1.188  1.00  0.00     0.004 A 
ATOM     82  C   UNL     1      -1.585   2.644  -2.932  1.00  0.00     0.004 A 
ATOM     83  C   UNL     1       0.673   4.081  -2.152  1.00  0.00     0.000 A 
ATOM     84  C   UNL     1      -0.751   3.216  -3.896  1.00  0.00     0.000 A 
ATOM     85  C   UNL     1       0.378   3.932  -3.506  1.00  0.00     0.000 A 
ENDBRANCH  79  80
ENDBRANCH  76  79
ENDBRANCH  74  76
ENDBRANCH  72  74
ENDBRANCH  70  71
ENDBRANCH   1  69
TORSDOF 17
ENDMDL
MODEL 16
REMARK VINA RESULT:    -7.875      4.398     13.244
REMARK INTER + INTRA:         -30.748
REMARK INTER:                 -24.768
REMARK INTRA:                  -5.980
REMARK UNBOUND:                -7.222
REMARK SMILES C=C1C(=O)N[C@H](C)C(=O)N[C@@H](CC(C)C)C(=O)N[C@@H](C(=O)O)[C@H](C)C(=O)N[C@@H](CCCN=C(N)N)C(=O)N[C@@H](/C=C/C(C)=C/[C@H](C)[C@H](Cc2ccccc2)OC)[C@H](C)C(=O)N[C@@H](C(=O)O)CCC(=O)N1C
REMARK SMILES IDX 39 1 38 2 37 3 36 4 28 6 27 7 25 8 26 9 23 11 24 12 19 13
REMARK SMILES IDX 18 14 16 15 17 16 11 18 10 19 8 20 9 21 12 24 13 25 14 26
REMARK SMILES IDX 15 27 20 28 21 29 22 30 29 32 30 33 31 34 32 35 33 36 34 37
REMARK SMILES IDX 35 38 57 43 58 44 59 45 60 46 61 47 62 49 66 50 67 51 68 52
REMARK SMILES IDX 69 53 70 54 71 55 2 56 1 57 3 58 4 59 5 60 6 62 7 63 63 65
REMARK SMILES IDX 64 66 65 67 40 69 41 70 42 71 44 72 43 73 45 74 46 75 47 76
REMARK SMILES IDX 55 77 56 78 48 79 49 80 50 81 54 82 51 83 53 84 52 85
REMARK H PARENT 38 5 27 10 18 17 10 22 22 31 34 39 34 40 35 41 35 42 61 48
REMARK H PARENT 5 61 65 68
REMARK Flexibility Score:  369.900
ROOT
ATOM      1  C   UNL     1      -5.815   1.961  -2.554  1.00  0.00     0.117 C 
ENDROOT
BRANCH   1   2
ATOM      2  N   UNL     1      -6.129   1.688  -3.957  1.00  0.00    -0.347 N 
ATOM      3  O   UNL     1      -4.901   3.389  -4.890  1.00  0.00    -0.273 OA
ATOM      4  C   UNL     1      -5.572   2.370  -5.021  1.00  0.00     0.243 C 
ATOM      5  H   UNL     1      -6.751   0.927  -4.185  1.00  0.00     0.164 HD
BRANCH   4   6
ATOM      6  C   UNL     1      -6.007   1.827  -6.406  1.00  0.00     0.171 C 
BRANCH   6   7
ATOM      7  N   UNL     1      -7.473   1.851  -6.530  1.00  0.00    -0.344 N 
ATOM      8  C   UNL     1      -8.153   0.763  -7.035  1.00  0.00     0.226 C 
ATOM      9  O   UNL     1      -7.584  -0.251  -7.420  1.00  0.00    -0.275 OA
ATOM     10  H   UNL     1      -7.973   2.696  -6.286  1.00  0.00     0.164 HD
BRANCH   8  11
ATOM     11  C   UNL     1      -9.663   0.921  -7.048  1.00  0.00     0.109 C 
ATOM     12  C   UNL     1     -10.121   1.702  -5.816  1.00  0.00     0.021 C 
BRANCH  11  13
ATOM     13  C   UNL     1     -10.113   1.516  -8.397  1.00  0.00     0.204 C 
BRANCH  13  14
ATOM     14  N   UNL     1      -9.601   0.750  -9.537  1.00  0.00    -0.340 N 
ATOM     15  C   UNL     1      -8.445   1.088 -10.207  1.00  0.00     0.243 C 
ATOM     16  O   UNL     1      -7.728   2.024  -9.857  1.00  0.00    -0.273 OA
ATOM     17  H   UNL     1     -10.220   0.059  -9.970  1.00  0.00     0.164 HD
BRANCH  15  18
ATOM     18  C   UNL     1      -8.214   0.264 -11.498  1.00  0.00     0.171 C 
BRANCH  18  19
ATOM     19  N   UNL     1      -9.267   0.651 -12.435  1.00  0.00    -0.343 N 
ATOM     20  C   UNL     1      -9.298   1.903 -13.018  1.00  0.00     0.242 CG0
ATOM     21  O   UNL     1      -8.522   2.792 -12.676  1.00  0.00    -0.273 OA
ATOM     22  H   UNL     1      -9.999  -0.012 -12.662  1.00  0.00     0.164 HD
ATOM     23  G   UNL     1     -10.437   2.101 -14.040  1.00  0.00     0.000 G0
ENDBRANCH  18  19
BRANCH  18  24
ATOM     24  C   UNL     1      -6.820   0.538 -12.073  1.00  0.00     0.038 C 
BRANCH  24  25
ATOM     25  C   UNL     1      -5.851  -0.662 -12.014  1.00  0.00    -0.015 C 
ATOM     26  C   UNL     1      -6.345  -1.854 -12.835  1.00  0.00     0.007 C 
ATOM     27  C   UNL     1      -5.647  -1.088 -10.558  1.00  0.00     0.007 C 
ENDBRANCH  24  25
ENDBRANCH  18  24
ENDBRANCH  15  18
ENDBRANCH  13  14
BRANCH  13  28
ATOM     28  C   UNL     1     -11.636   1.588  -8.547  1.00  0.00     0.327 C 
ATOM     29  O   UNL     1     -12.314   2.604  -8.557  1.00  0.00    -0.250 OA
BRANCH  28  30
ATOM     30  O   UNL     1     -12.225   0.375  -8.556  1.00  0.00    -0.480 OA
ATOM     31  H   UNL     1     -11.517  -0.238  -8.269  1.00  0.00     0.296 HD
ENDBRANCH  28  30
ENDBRANCH  13  28
ENDBRANCH  11  13
ENDBRANCH   8  11
ENDBRANCH   6   7
BRANCH   6  32
ATOM     32  C   UNL     1      -5.351   2.670  -7.506  1.00  0.00     0.037 C 
BRANCH  32  33
ATOM     33  C   UNL     1      -4.468   1.824  -8.435  1.00  0.00     0.026 C 
BRANCH  33  34
ATOM     34  C   UNL     1      -3.383   1.059  -7.675  1.00  0.00     0.146 C 
BRANCH  34  35
ATOM     35  N   UNL     1      -2.537   2.016  -6.975  1.00  0.00    -0.254 NA
ATOM     36  C   UNL     1      -2.243   1.794  -5.748  1.00  0.00     0.185 C 
ATOM     37  N   UNL     1      -1.461   2.666  -5.095  1.00  0.00    -0.370 N 
ATOM     38  N   UNL     1      -2.614   0.766  -4.964  1.00  0.00    -0.370 N 
ATOM     39  H   UNL     1      -1.131   3.464  -5.623  1.00  0.00     0.159 HD
ATOM     40  H   UNL     1      -1.046   2.478  -4.198  1.00  0.00     0.159 HD
ATOM     41  H   UNL     1      -2.432   0.775  -3.973  1.00  0.00     0.159 HD
ATOM     42  H   UNL     1      -3.218   0.041  -5.319  1.00  0.00     0.159 HD
ENDBRANCH  34  35
ENDBRANCH  33  34
ENDBRANCH  32  33
ENDBRANCH   6  32
ENDBRANCH   4   6
ENDBRANCH   1   2
BRANCH   1  43
ATOM     43  C   UNL     1      -4.903   0.820  -2.020  1.00  0.00     0.102 C 
ATOM     44  C   UNL     1      -5.622  -0.137  -1.054  1.00  0.00     0.020 C 
BRANCH  43  45
ATOM     45  C   UNL     1      -3.585   1.378  -1.474  1.00  0.00     0.225 C 
ATOM     46  O   UNL     1      -2.664   1.749  -2.195  1.00  0.00    -0.275 OA
ATOM     47  N   UNL     1      -3.454   1.354  -0.104  1.00  0.00    -0.342 N 
ATOM     48  H   UNL     1      -4.267   1.193   0.474  1.00  0.00     0.164 HD
BRANCH  47  49
ATOM     49  C   UNL     1      -2.262   1.890   0.561  1.00  0.00     0.192 C 
BRANCH  49  50
ATOM     50  C   UNL     1      -1.287   0.749   0.865  1.00  0.00     0.047 C 
BRANCH  50  51
ATOM     51  C   UNL     1       0.173   1.222   0.885  1.00  0.00     0.103 C 
BRANCH  51  52
ATOM     52  C   UNL     1       1.105   0.178   1.498  1.00  0.00     0.226 C 
ATOM     53  O   UNL     1       1.480  -0.779   0.818  1.00  0.00    -0.275 OA
BRANCH  52  54
ATOM     54  N   UNL     1       1.545   0.426   2.811  1.00  0.00    -0.311 N 
ATOM     55  C   UNL     1       0.608   0.397   3.942  1.00  0.00     0.153 C 
BRANCH  54  56
ATOM     56  C   UNL     1       2.894   0.702   3.091  1.00  0.00     0.102 C 
ATOM     57  C   UNL     1       3.364   1.889   3.508  1.00  0.00     0.043 C 
BRANCH  56  58
ATOM     58  C   UNL     1       3.946  -0.376   2.981  1.00  0.00     0.268 C 
ATOM     59  O   UNL     1       4.093  -1.256   3.818  1.00  0.00    -0.268 OA
ATOM     60  N   UNL     1       4.672  -0.305   1.816  1.00  0.00    -0.339 N 
ATOM     61  H   UNL     1       4.496   0.462   1.179  1.00  0.00     0.164 HD
BRANCH  60  62
ATOM     62  C   UNL     1       5.700  -1.289   1.478  1.00  0.00     0.168 CG0
ATOM     63  C   UNL     1       6.558  -0.806   0.316  1.00  0.00     0.041 C 
ATOM     64  G   UNL     1       5.032  -2.638   1.139  1.00  0.00     0.000 G0
ENDBRANCH  60  62
ENDBRANCH  56  58
ENDBRANCH  54  56
ENDBRANCH  52  54
ENDBRANCH  51  52
ENDBRANCH  50  51
ENDBRANCH  49  50
BRANCH  49  65
ATOM     65  C   UNL     1      -2.620   2.616   1.867  1.00  0.00     0.326 C 
ATOM     66  O   UNL     1      -2.637   2.110   2.980  1.00  0.00    -0.250 OA
BRANCH  65  67
ATOM     67  O   UNL     1      -2.993   3.905   1.712  1.00  0.00    -0.480 OA
ATOM     68  H   UNL     1      -3.187   3.976   0.752  1.00  0.00     0.296 HD
ENDBRANCH  65  67
ENDBRANCH  49  65
ENDBRANCH  47  49
ENDBRANCH  43  45
ENDBRANCH   1  43
BRANCH   1  69
ATOM     69  C   UNL     1      -7.142   2.223  -1.866  1.00  0.00    -0.001 C 
ATOM     70  C   UNL     1      -8.373   1.955  -2.336  1.00  0.00     0.001 C 
BRANCH  70  71
ATOM     71  C   UNL     1      -9.647   2.193  -1.653  1.00  0.00    -0.055 C 
ATOM     72  C   UNL     1     -10.000   1.339  -0.670  1.00  0.00    -0.018 C 
ATOM     73  C   UNL     1     -10.468   3.377  -2.091  1.00  0.00     0.044 C 
BRANCH  72  74
ATOM     74  C   UNL     1     -11.246   1.339   0.204  1.00  0.00     0.038 C 
ATOM     75  C   UNL     1     -10.805   0.952   1.621  1.00  0.00     0.015 C 
BRANCH  74  76
ATOM     76  C   UNL     1     -12.304   0.390  -0.433  1.00  0.00     0.128 C 
BRANCH  76  77
ATOM     77  O   UNL     1     -13.278   0.008   0.554  1.00  0.00    -0.381 OA
ATOM     78  C   UNL     1     -14.244  -0.917   0.074  1.00  0.00     0.195 C 
ENDBRANCH  76  77
BRANCH  76  79
ATOM     79  C   UNL     1     -12.949   0.945  -1.728  1.00  0.00     0.068 C 
BRANCH  79  80
ATOM     80  C   UNL     1     -12.689   0.207  -3.019  1.00  0.00    -0.045 A 
ATOM     81  C   UNL     1     -13.497   0.416  -4.145  1.00  0.00     0.004 A 
ATOM     82  C   UNL     1     -11.644  -0.725  -3.103  1.00  0.00     0.004 A 
ATOM     83  C   UNL     1     -13.258  -0.281  -5.331  1.00  0.00     0.000 A 
ATOM     84  C   UNL     1     -11.407  -1.422  -4.290  1.00  0.00     0.000 A 
ATOM     85  C   UNL     1     -12.213  -1.199  -5.404  1.00  0.00     0.000 A 
ENDBRANCH  79  80
ENDBRANCH  76  79
ENDBRANCH  74  76
ENDBRANCH  72  74
ENDBRANCH  70  71
ENDBRANCH   1  69
TORSDOF 17
ENDMDL
MODEL 17
REMARK VINA RESULT:    -7.832      5.437     14.855
REMARK INTER + INTRA:         -30.620
REMARK INTER:                 -24.325
REMARK INTRA:                  -6.295
REMARK UNBOUND:                -7.222
REMARK SMILES C=C1C(=O)N[C@H](C)C(=O)N[C@@H](CC(C)C)C(=O)N[C@@H](C(=O)O)[C@H](C)C(=O)N[C@@H](CCCN=C(N)N)C(=O)N[C@@H](/C=C/C(C)=C/[C@H](C)[C@H](Cc2ccccc2)OC)[C@H](C)C(=O)N[C@@H](C(=O)O)CCC(=O)N1C
REMARK SMILES IDX 39 1 38 2 37 3 36 4 28 6 27 7 25 8 26 9 23 11 24 12 19 13
REMARK SMILES IDX 18 14 16 15 17 16 11 18 10 19 8 20 9 21 12 24 13 25 14 26
REMARK SMILES IDX 15 27 20 28 21 29 22 30 29 32 30 33 31 34 32 35 33 36 34 37
REMARK SMILES IDX 35 38 57 43 58 44 59 45 60 46 61 47 62 49 66 50 67 51 68 52
REMARK SMILES IDX 69 53 70 54 71 55 2 56 1 57 3 58 4 59 5 60 6 62 7 63 63 65
REMARK SMILES IDX 64 66 65 67 40 69 41 70 42 71 44 72 43 73 45 74 46 75 47 76
REMARK SMILES IDX 55 77 56 78 48 79 49 80 50 81 54 82 51 83 53 84 52 85
REMARK H PARENT 38 5 27 10 18 17 10 22 22 31 34 39 34 40 35 41 35 42 61 48
REMARK H PARENT 5 61 65 68
REMARK Flexibility Score:  369.900
ROOT
ATOM      1  C   UNL     1      -0.029   3.848  -6.535  1.00  0.00     0.117 C 
ENDROOT
BRANCH   1   2
ATOM      2  N   UNL     1      -1.101   2.876  -6.758  1.00  0.00    -0.347 N 
ATOM      3  O   UNL     1      -1.841   3.683  -8.775  1.00  0.00    -0.273 OA
ATOM      4  C   UNL     1      -1.864   2.816  -7.908  1.00  0.00     0.243 C 
ATOM      5  H   UNL     1      -1.277   2.167  -6.062  1.00  0.00     0.164 HD
BRANCH   4   6
ATOM      6  C   UNL     1      -2.872   1.639  -7.926  1.00  0.00     0.171 C 
BRANCH   6   7
ATOM      7  N   UNL     1      -4.006   1.920  -7.031  1.00  0.00    -0.344 N 
ATOM      8  C   UNL     1      -4.012   1.452  -5.735  1.00  0.00     0.226 C 
ATOM      9  O   UNL     1      -3.102   0.772  -5.275  1.00  0.00    -0.275 OA
ATOM     10  H   UNL     1      -4.807   2.422  -7.396  1.00  0.00     0.164 HD
BRANCH   8  11
ATOM     11  C   UNL     1      -5.225   1.872  -4.923  1.00  0.00     0.109 C 
ATOM     12  C   UNL     1      -5.056   3.308  -4.429  1.00  0.00     0.021 C 
BRANCH  11  13
ATOM     13  C   UNL     1      -6.510   1.612  -5.734  1.00  0.00     0.204 C 
BRANCH  13  14
ATOM     14  N   UNL     1      -7.629   1.205  -4.879  1.00  0.00    -0.340 N 
ATOM     15  C   UNL     1      -8.782   0.636  -5.376  1.00  0.00     0.243 C 
ATOM     16  O   UNL     1      -8.928   0.373  -6.568  1.00  0.00    -0.273 OA
ATOM     17  H   UNL     1      -7.636   1.530  -3.909  1.00  0.00     0.164 HD
BRANCH  15  18
ATOM     18  C   UNL     1      -9.902   0.482  -4.318  1.00  0.00     0.171 C 
BRANCH  18  19
ATOM     19  N   UNL     1      -9.615  -0.746  -3.580  1.00  0.00    -0.343 N 
ATOM     20  C   UNL     1     -10.425  -1.861  -3.679  1.00  0.00     0.242 CG0
ATOM     21  O   UNL     1     -11.493  -1.829  -4.285  1.00  0.00    -0.273 OA
ATOM     22  H   UNL     1      -8.804  -0.785  -2.973  1.00  0.00     0.164 HD
ATOM     23  G   UNL     1      -9.920  -3.087  -2.890  1.00  0.00     0.000 G0
ENDBRANCH  18  19
BRANCH  18  24
ATOM     24  C   UNL     1      -9.938   1.701  -3.387  1.00  0.00     0.038 C 
BRANCH  24  25
ATOM     25  C   UNL     1     -10.868   1.551  -2.165  1.00  0.00    -0.015 C 
ATOM     26  C   UNL     1     -12.289   1.143  -2.557  1.00  0.00     0.007 C 
ATOM     27  C   UNL     1     -10.908   2.867  -1.384  1.00  0.00     0.007 C 
ENDBRANCH  24  25
ENDBRANCH  18  24
ENDBRANCH  15  18
ENDBRANCH  13  14
BRANCH  13  28
ATOM     28  C   UNL     1      -6.973   2.831  -6.538  1.00  0.00     0.327 C 
ATOM     29  O   UNL     1      -6.376   3.354  -7.466  1.00  0.00    -0.250 OA
BRANCH  28  30
ATOM     30  O   UNL     1      -8.099   3.390  -6.049  1.00  0.00    -0.480 OA
ATOM     31  H   UNL     1      -7.898   3.550  -5.104  1.00  0.00     0.296 HD
ENDBRANCH  28  30
ENDBRANCH  13  28
ENDBRANCH  11  13
ENDBRANCH   8  11
ENDBRANCH   6   7
BRANCH   6  32
ATOM     32  C   UNL     1      -3.353   1.410  -9.363  1.00  0.00     0.037 C 
BRANCH  32  33
ATOM     33  C   UNL     1      -4.758   0.794  -9.413  1.00  0.00     0.026 C 
BRANCH  33  34
ATOM     34  C   UNL     1      -5.705   1.572 -10.327  1.00  0.00     0.146 C 
BRANCH  34  35
ATOM     35  N   UNL     1      -6.720   0.660 -10.837  1.00  0.00    -0.254 NA
ATOM     36  C   UNL     1      -7.899   0.712 -10.340  1.00  0.00     0.185 C 
ATOM     37  N   UNL     1      -8.843  -0.120 -10.806  1.00  0.00    -0.370 N 
ATOM     38  N   UNL     1      -8.372   1.514  -9.370  1.00  0.00    -0.370 N 
ATOM     39  H   UNL     1      -8.566  -0.751 -11.548  1.00  0.00     0.159 HD
ATOM     40  H   UNL     1      -9.822  -0.025 -10.596  1.00  0.00     0.159 HD
ATOM     41  H   UNL     1      -9.283   1.365  -8.968  1.00  0.00     0.159 HD
ATOM     42  H   UNL     1      -7.767   2.181  -8.916  1.00  0.00     0.159 HD
ENDBRANCH  34  35
ENDBRANCH  33  34
ENDBRANCH  32  33
ENDBRANCH   6  32
ENDBRANCH   4   6
ENDBRANCH   1   2
BRANCH   1  43
ATOM     43  C   UNL     1       1.183   3.462  -7.432  1.00  0.00     0.102 C 
ATOM     44  C   UNL     1       2.254   2.643  -6.692  1.00  0.00     0.020 C 
BRANCH  43  45
ATOM     45  C   UNL     1       1.735   4.686  -8.168  1.00  0.00     0.225 C 
ATOM     46  O   UNL     1       2.931   4.958  -8.214  1.00  0.00    -0.275 OA
ATOM     47  N   UNL     1       0.790   5.531  -8.704  1.00  0.00    -0.342 N 
ATOM     48  H   UNL     1      -0.168   5.220  -8.790  1.00  0.00     0.164 HD
BRANCH  47  49
ATOM     49  C   UNL     1       1.173   6.723  -9.467  1.00  0.00     0.192 C 
BRANCH  49  50
ATOM     50  C   UNL     1       2.214   6.345 -10.523  1.00  0.00     0.047 C 
BRANCH  50  51
ATOM     51  C   UNL     1       1.588   6.136 -11.909  1.00  0.00     0.103 C 
BRANCH  51  52
ATOM     52  C   UNL     1       2.027   4.818 -12.544  1.00  0.00     0.226 C 
ATOM     53  O   UNL     1       2.887   4.131 -11.990  1.00  0.00    -0.275 OA
BRANCH  52  54
ATOM     54  N   UNL     1       1.347   4.428 -13.713  1.00  0.00    -0.311 N 
ATOM     55  C   UNL     1       0.014   3.814 -13.643  1.00  0.00     0.153 C 
BRANCH  54  56
ATOM     56  C   UNL     1       1.912   4.616 -14.985  1.00  0.00     0.102 C 
ATOM     57  C   UNL     1       1.243   4.514 -16.145  1.00  0.00     0.043 C 
BRANCH  56  58
ATOM     58  C   UNL     1       3.363   5.007 -15.139  1.00  0.00     0.268 C 
ATOM     59  O   UNL     1       3.726   6.150 -15.383  1.00  0.00    -0.268 OA
ATOM     60  N   UNL     1       4.230   3.965 -14.913  1.00  0.00    -0.339 N 
ATOM     61  H   UNL     1       3.848   3.045 -14.727  1.00  0.00     0.164 HD
BRANCH  60  62
ATOM     62  C   UNL     1       5.681   4.137 -14.949  1.00  0.00     0.168 CG0
ATOM     63  C   UNL     1       6.234   4.409 -13.556  1.00  0.00     0.041 C 
ATOM     64  G   UNL     1       6.041   5.286 -15.913  1.00  0.00     0.000 G0
ENDBRANCH  60  62
ENDBRANCH  56  58
ENDBRANCH  54  56
ENDBRANCH  52  54
ENDBRANCH  51  52
ENDBRANCH  50  51
ENDBRANCH  49  50
BRANCH  49  65
ATOM     65  C   UNL     1       1.746   7.819  -8.555  1.00  0.00     0.326 C 
ATOM     66  O   UNL     1       1.096   8.530  -7.803  1.00  0.00    -0.250 OA
BRANCH  65  67
ATOM     67  O   UNL     1       3.079   8.009  -8.672  1.00  0.00    -0.480 OA
ATOM     68  H   UNL     1       3.156   8.952  -8.931  1.00  0.00     0.296 HD
ENDBRANCH  65  67
ENDBRANCH  49  65
ENDBRANCH  47  49
ENDBRANCH  43  45
ENDBRANCH   1  43
BRANCH   1  69
ATOM     69  C   UNL     1       0.166   3.927  -5.032  1.00  0.00    -0.001 C 
ATOM     70  C   UNL     1      -0.607   3.379  -4.078  1.00  0.00     0.001 C 
BRANCH  70  71
ATOM     71  C   UNL     1      -0.396   3.445  -2.630  1.00  0.00    -0.055 C 
ATOM     72  C   UNL     1      -1.325   2.873  -1.835  1.00  0.00    -0.018 C 
ATOM     73  C   UNL     1       0.845   4.137  -2.132  1.00  0.00     0.044 C 
BRANCH  72  74
ATOM     74  C   UNL     1      -1.368   2.785  -0.316  1.00  0.00     0.038 C 
ATOM     75  C   UNL     1      -0.607   1.516   0.086  1.00  0.00     0.015 C 
BRANCH  74  76
ATOM     76  C   UNL     1      -2.855   2.828   0.146  1.00  0.00     0.128 C 
BRANCH  76  77
ATOM     77  O   UNL     1      -3.004   3.755   1.234  1.00  0.00    -0.381 OA
ATOM     78  C   UNL     1      -4.030   3.399   2.151  1.00  0.00     0.195 C 
ENDBRANCH  76  77
BRANCH  76  79
ATOM     79  C   UNL     1      -3.863   3.083  -1.003  1.00  0.00     0.068 C 
BRANCH  79  80
ATOM     80  C   UNL     1      -5.060   2.169  -1.109  1.00  0.00    -0.045 A 
ATOM     81  C   UNL     1      -6.327   2.586  -0.680  1.00  0.00     0.004 A 
ATOM     82  C   UNL     1      -4.914   0.870  -1.618  1.00  0.00     0.004 A 
ATOM     83  C   UNL     1      -7.426   1.729  -0.769  1.00  0.00     0.000 A 
ATOM     84  C   UNL     1      -6.014   0.013  -1.705  1.00  0.00     0.000 A 
ATOM     85  C   UNL     1      -7.270   0.444  -1.282  1.00  0.00     0.000 A 
ENDBRANCH  79  80
ENDBRANCH  76  79
ENDBRANCH  74  76
ENDBRANCH  72  74
ENDBRANCH  70  71
ENDBRANCH   1  69
TORSDOF 17
ENDMDL
MODEL 18
REMARK VINA RESULT:    -7.830      4.333     12.655
REMARK INTER + INTRA:         -30.614
REMARK INTER:                 -25.161
REMARK INTRA:                  -5.454
REMARK UNBOUND:                -7.222
REMARK SMILES C=C1C(=O)N[C@H](C)C(=O)N[C@@H](CC(C)C)C(=O)N[C@@H](C(=O)O)[C@H](C)C(=O)N[C@@H](CCCN=C(N)N)C(=O)N[C@@H](/C=C/C(C)=C/[C@H](C)[C@H](Cc2ccccc2)OC)[C@H](C)C(=O)N[C@@H](C(=O)O)CCC(=O)N1C
REMARK SMILES IDX 39 1 38 2 37 3 36 4 28 6 27 7 25 8 26 9 23 11 24 12 19 13
REMARK SMILES IDX 18 14 16 15 17 16 11 18 10 19 8 20 9 21 12 24 13 25 14 26
REMARK SMILES IDX 15 27 20 28 21 29 22 30 29 32 30 33 31 34 32 35 33 36 34 37
REMARK SMILES IDX 35 38 57 43 58 44 59 45 60 46 61 47 62 49 66 50 67 51 68 52
REMARK SMILES IDX 69 53 70 54 71 55 2 56 1 57 3 58 4 59 5 60 6 62 7 63 63 65
REMARK SMILES IDX 64 66 65 67 40 69 41 70 42 71 44 72 43 73 45 74 46 75 47 76
REMARK SMILES IDX 55 77 56 78 48 79 49 80 50 81 54 82 51 83 53 84 52 85
REMARK H PARENT 38 5 27 10 18 17 10 22 22 31 34 39 34 40 35 41 35 42 61 48
REMARK H PARENT 5 61 65 68
REMARK Flexibility Score:  369.900
ROOT
ATOM      1  C   UNL     1      -4.811   1.514  -6.795  1.00  0.00     0.117 C 
ENDROOT
BRANCH   1   2
ATOM      2  N   UNL     1      -4.229   2.220  -5.653  1.00  0.00    -0.347 N 
ATOM      3  O   UNL     1      -2.619   0.675  -5.117  1.00  0.00    -0.273 OA
ATOM      4  C   UNL     1      -3.116   1.784  -4.960  1.00  0.00     0.243 C 
ATOM      5  H   UNL     1      -4.619   3.106  -5.369  1.00  0.00     0.164 HD
BRANCH   4   6
ATOM      6  C   UNL     1      -2.653   2.760  -3.849  1.00  0.00     0.171 C 
BRANCH   6   7
ATOM      7  N   UNL     1      -2.884   2.173  -2.520  1.00  0.00    -0.344 N 
ATOM      8  C   UNL     1      -3.834   2.703  -1.673  1.00  0.00     0.226 C 
ATOM      9  O   UNL     1      -4.506   3.684  -1.966  1.00  0.00    -0.275 OA
ATOM     10  H   UNL     1      -2.301   1.403  -2.215  1.00  0.00     0.164 HD
BRANCH   8  11
ATOM     11  C   UNL     1      -3.990   1.953  -0.361  1.00  0.00     0.109 C 
ATOM     12  C   UNL     1      -2.650   1.889   0.372  1.00  0.00     0.021 C 
BRANCH  11  13
ATOM     13  C   UNL     1      -5.147   2.565   0.454  1.00  0.00     0.204 C 
BRANCH  13  14
ATOM     14  N   UNL     1      -6.288   1.650   0.565  1.00  0.00    -0.340 N 
ATOM     15  C   UNL     1      -7.314   1.619  -0.353  1.00  0.00     0.243 C 
ATOM     16  O   UNL     1      -7.315   2.316  -1.366  1.00  0.00    -0.273 OA
ATOM     17  H   UNL     1      -6.424   1.158   1.452  1.00  0.00     0.164 HD
BRANCH  15  18
ATOM     18  C   UNL     1      -8.504   0.727   0.079  1.00  0.00     0.171 C 
BRANCH  18  19
ATOM     19  N   UNL     1      -8.179   0.210   1.407  1.00  0.00    -0.343 N 
ATOM     20  C   UNL     1      -8.396  -1.111   1.748  1.00  0.00     0.242 CG0
ATOM     21  O   UNL     1      -8.993  -1.879   0.998  1.00  0.00    -0.273 OA
ATOM     22  H   UNL     1      -7.790   0.836   2.103  1.00  0.00     0.164 HD
ATOM     23  G   UNL     1      -7.918  -1.489   3.165  1.00  0.00     0.000 G0
ENDBRANCH  18  19
BRANCH  18  24
ATOM     24  C   UNL     1      -9.808   1.534   0.094  1.00  0.00     0.038 C 
BRANCH  24  25
ATOM     25  C   UNL     1     -10.422   1.792  -1.299  1.00  0.00    -0.015 C 
ATOM     26  C   UNL     1     -11.008   3.198  -1.429  1.00  0.00     0.007 C 
ATOM     27  C   UNL     1     -11.510   0.752  -1.582  1.00  0.00     0.007 C 
ENDBRANCH  24  25
ENDBRANCH  18  24
ENDBRANCH  15  18
ENDBRANCH  13  14
BRANCH  13  28
ATOM     28  C   UNL     1      -4.740   2.958   1.877  1.00  0.00     0.327 C 
ATOM     29  O   UNL     1      -4.978   2.329   2.897  1.00  0.00    -0.250 OA
BRANCH  28  30
ATOM     30  O   UNL     1      -4.164   4.175   1.945  1.00  0.00    -0.480 OA
ATOM     31  H   UNL     1      -4.750   4.749   1.409  1.00  0.00     0.296 HD
ENDBRANCH  28  30
ENDBRANCH  13  28
ENDBRANCH  11  13
ENDBRANCH   8  11
ENDBRANCH   6   7
BRANCH   6  32
ATOM     32  C   UNL     1      -1.170   3.087  -4.053  1.00  0.00     0.037 C 
BRANCH  32  33
ATOM     33  C   UNL     1      -0.460   3.408  -2.730  1.00  0.00     0.026 C 
BRANCH  33  34
ATOM     34  C   UNL     1       1.029   3.700  -2.920  1.00  0.00     0.146 C 
BRANCH  34  35
ATOM     35  N   UNL     1       1.517   2.932  -4.057  1.00  0.00    -0.254 NA
ATOM     36  C   UNL     1       2.506   2.137  -3.883  1.00  0.00     0.185 C 
ATOM     37  N   UNL     1       2.960   1.421  -4.923  1.00  0.00    -0.370 N 
ATOM     38  N   UNL     1       3.202   1.889  -2.760  1.00  0.00    -0.370 N 
ATOM     39  H   UNL     1       2.479   1.545  -5.804  1.00  0.00     0.159 HD
ATOM     40  H   UNL     1       3.608   0.657  -4.831  1.00  0.00     0.159 HD
ATOM     41  H   UNL     1       4.050   1.346  -2.782  1.00  0.00     0.159 HD
ATOM     42  H   UNL     1       2.980   2.370  -1.902  1.00  0.00     0.159 HD
ENDBRANCH  34  35
ENDBRANCH  33  34
ENDBRANCH  32  33
ENDBRANCH   6  32
ENDBRANCH   4   6
ENDBRANCH   1   2
BRANCH   1  43
ATOM     43  C   UNL     1      -4.416   2.268  -8.098  1.00  0.00     0.102 C 
ATOM     44  C   UNL     1      -5.445   3.326  -8.529  1.00  0.00     0.020 C 
BRANCH  43  45
ATOM     45  C   UNL     1      -4.033   1.285  -9.208  1.00  0.00     0.225 C 
ATOM     46  O   UNL     1      -3.942   0.073  -9.029  1.00  0.00    -0.275 OA
ATOM     47  N   UNL     1      -3.701   1.855 -10.416  1.00  0.00    -0.342 N 
ATOM     48  H   UNL     1      -3.926   2.825 -10.589  1.00  0.00     0.164 HD
BRANCH  47  49
ATOM     49  C   UNL     1      -3.349   1.035 -11.579  1.00  0.00     0.192 C 
BRANCH  49  50
ATOM     50  C   UNL     1      -2.068   1.575 -12.220  1.00  0.00     0.047 C 
BRANCH  50  51
ATOM     51  C   UNL     1      -2.126   3.092 -12.448  1.00  0.00     0.103 C 
BRANCH  51  52
ATOM     52  C   UNL     1      -1.084   3.837 -11.617  1.00  0.00     0.226 C 
ATOM     53  O   UNL     1      -1.119   3.764 -10.387  1.00  0.00    -0.275 OA
BRANCH  52  54
ATOM     54  N   UNL     1      -0.080   4.516 -12.332  1.00  0.00    -0.311 N 
ATOM     55  C   UNL     1       0.311   4.084 -13.680  1.00  0.00     0.153 C 
BRANCH  54  56
ATOM     56  C   UNL     1       0.579   5.631 -11.789  1.00  0.00     0.102 C 
ATOM     57  C   UNL     1       0.007   6.823 -11.555  1.00  0.00     0.043 C 
BRANCH  56  58
ATOM     58  C   UNL     1       2.029   5.547 -11.371  1.00  0.00     0.268 C 
ATOM     59  O   UNL     1       2.553   4.514 -10.977  1.00  0.00    -0.268 OA
ATOM     60  N   UNL     1       2.709   6.729 -11.541  1.00  0.00    -0.339 N 
ATOM     61  H   UNL     1       2.199   7.543 -11.862  1.00  0.00     0.164 HD
BRANCH  60  62
ATOM     62  C   UNL     1       4.138   6.852 -11.257  1.00  0.00     0.168 CG0
ATOM     63  C   UNL     1       4.372   7.499  -9.898  1.00  0.00     0.041 C 
ATOM     64  G   UNL     1       4.818   7.670 -12.375  1.00  0.00     0.000 G0
ENDBRANCH  60  62
ENDBRANCH  56  58
ENDBRANCH  54  56
ENDBRANCH  52  54
ENDBRANCH  51  52
ENDBRANCH  50  51
ENDBRANCH  49  50
BRANCH  49  65
ATOM     65  C   UNL     1      -4.475   1.022 -12.625  1.00  0.00     0.326 C 
ATOM     66  O   UNL     1      -5.619   1.412 -12.442  1.00  0.00    -0.250 OA
BRANCH  65  67
ATOM     67  O   UNL     1      -4.136   0.473 -13.812  1.00  0.00    -0.480 OA
ATOM     68  H   UNL     1      -3.186   0.698 -13.907  1.00  0.00     0.296 HD
ENDBRANCH  65  67
ENDBRANCH  49  65
ENDBRANCH  47  49
ENDBRANCH  43  45
ENDBRANCH   1  43
BRANCH   1  69
ATOM     69  C   UNL     1      -6.283   1.327  -6.474  1.00  0.00    -0.001 C 
ATOM     70  C   UNL     1      -6.927   1.697  -5.353  1.00  0.00     0.001 C 
BRANCH  70  71
ATOM     71  C   UNL     1      -8.353   1.531  -5.062  1.00  0.00    -0.055 C 
ATOM     72  C   UNL     1      -8.888   0.303  -5.227  1.00  0.00    -0.018 C 
ATOM     73  C   UNL     1      -9.119   2.740  -4.593  1.00  0.00     0.044 C 
BRANCH  72  74
ATOM     74  C   UNL     1     -10.320  -0.162  -5.002  1.00  0.00     0.038 C 
ATOM     75  C   UNL     1     -10.250  -1.582  -4.429  1.00  0.00     0.015 C 
BRANCH  74  76
ATOM     76  C   UNL     1     -11.104  -0.036  -6.342  1.00  0.00     0.128 C 
BRANCH  76  77
ATOM     77  O   UNL     1     -10.184   0.015  -7.446  1.00  0.00    -0.381 OA
ATOM     78  C   UNL     1     -10.497   1.016  -8.405  1.00  0.00     0.195 C 
ENDBRANCH  76  77
BRANCH  76  79
ATOM     79  C   UNL     1     -12.206  -1.108  -6.530  1.00  0.00     0.068 C 
BRANCH  79  80
ATOM     80  C   UNL     1     -13.635  -0.709  -6.252  1.00  0.00    -0.045 A 
ATOM     81  C   UNL     1     -14.580  -0.642  -7.285  1.00  0.00     0.004 A 
ATOM     82  C   UNL     1     -14.035  -0.370  -4.951  1.00  0.00     0.004 A 
ATOM     83  C   UNL     1     -15.896  -0.258  -7.023  1.00  0.00     0.000 A 
ATOM     84  C   UNL     1     -15.352   0.015  -4.689  1.00  0.00     0.000 A 
ATOM     85  C   UNL     1     -16.282   0.069  -5.724  1.00  0.00     0.000 A 
ENDBRANCH  79  80
ENDBRANCH  76  79
ENDBRANCH  74  76
ENDBRANCH  72  74
ENDBRANCH  70  71
ENDBRANCH   1  69
TORSDOF 17
ENDMDL
MODEL 19
REMARK VINA RESULT:    -7.826      3.781     14.130
REMARK INTER + INTRA:         -30.602
REMARK INTER:                 -23.665
REMARK INTRA:                  -6.937
REMARK UNBOUND:                -7.222
REMARK SMILES C=C1C(=O)N[C@H](C)C(=O)N[C@@H](CC(C)C)C(=O)N[C@@H](C(=O)O)[C@H](C)C(=O)N[C@@H](CCCN=C(N)N)C(=O)N[C@@H](/C=C/C(C)=C/[C@H](C)[C@H](Cc2ccccc2)OC)[C@H](C)C(=O)N[C@@H](C(=O)O)CCC(=O)N1C
REMARK SMILES IDX 39 1 38 2 37 3 36 4 28 6 27 7 25 8 26 9 23 11 24 12 19 13
REMARK SMILES IDX 18 14 16 15 17 16 11 18 10 19 8 20 9 21 12 24 13 25 14 26
REMARK SMILES IDX 15 27 20 28 21 29 22 30 29 32 30 33 31 34 32 35 33 36 34 37
REMARK SMILES IDX 35 38 57 43 58 44 59 45 60 46 61 47 62 49 66 50 67 51 68 52
REMARK SMILES IDX 69 53 70 54 71 55 2 56 1 57 3 58 4 59 5 60 6 62 7 63 63 65
REMARK SMILES IDX 64 66 65 67 40 69 41 70 42 71 44 72 43 73 45 74 46 75 47 76
REMARK SMILES IDX 55 77 56 78 48 79 49 80 50 81 54 82 51 83 53 84 52 85
REMARK H PARENT 38 5 27 10 18 17 10 22 22 31 34 39 34 40 35 41 35 42 61 48
REMARK H PARENT 5 61 65 68
REMARK Flexibility Score:  369.900
ROOT
ATOM      1  C   UNL     1     -11.516   1.167   0.419  1.00  0.00     0.117 C 
ENDROOT
BRANCH   1   2
ATOM      2  N   UNL     1     -11.823   0.215  -0.649  1.00  0.00    -0.347 N 
ATOM      3  O   UNL     1     -11.339   1.579  -2.432  1.00  0.00    -0.273 OA
ATOM      4  C   UNL     1     -11.622   0.469  -1.992  1.00  0.00     0.243 C 
ATOM      5  H   UNL     1     -12.157  -0.706  -0.410  1.00  0.00     0.164 HD
BRANCH   4   6
ATOM      6  C   UNL     1     -11.947  -0.737  -2.910  1.00  0.00     0.171 C 
BRANCH   6   7
ATOM      7  N   UNL     1     -13.331  -0.650  -3.403  1.00  0.00    -0.344 N 
ATOM      8  C   UNL     1     -14.383  -1.082  -2.624  1.00  0.00     0.226 C 
ATOM      9  O   UNL     1     -14.224  -1.573  -1.513  1.00  0.00    -0.275 OA
ATOM     10  H   UNL     1     -13.497  -0.313  -4.343  1.00  0.00     0.164 HD
BRANCH   8  11
ATOM     11  C   UNL     1     -15.751  -0.875  -3.251  1.00  0.00     0.109 C 
ATOM     12  C   UNL     1     -16.841  -1.004  -2.187  1.00  0.00     0.021 C 
BRANCH  11  13
ATOM     13  C   UNL     1     -15.768   0.449  -4.040  1.00  0.00     0.204 C 
BRANCH  13  14
ATOM     14  N   UNL     1     -16.908   0.529  -4.959  1.00  0.00    -0.340 N 
ATOM     15  C   UNL     1     -16.875   1.254  -6.130  1.00  0.00     0.243 C 
ATOM     16  O   UNL     1     -15.865   1.837  -6.518  1.00  0.00    -0.273 OA
ATOM     17  H   UNL     1     -17.817   0.197  -4.626  1.00  0.00     0.164 HD
BRANCH  15  18
ATOM     18  C   UNL     1     -18.253   1.362  -6.829  1.00  0.00     0.171 C 
BRANCH  18  19
ATOM     19  N   UNL     1     -18.100   0.760  -8.152  1.00  0.00    -0.343 N 
ATOM     20  C   UNL     1     -18.299   1.486  -9.310  1.00  0.00     0.242 CG0
ATOM     21  O   UNL     1     -18.742   2.631  -9.284  1.00  0.00    -0.273 OA
ATOM     22  H   UNL     1     -17.847  -0.219  -8.226  1.00  0.00     0.164 HD
ATOM     23  G   UNL     1     -18.015   0.703 -10.609  1.00  0.00     0.000 G0
ENDBRANCH  18  19
BRANCH  18  24
ATOM     24  C   UNL     1     -19.334   0.649  -6.008  1.00  0.00     0.038 C 
BRANCH  24  25
ATOM     25  C   UNL     1     -20.581   0.226  -6.814  1.00  0.00    -0.015 C 
ATOM     26  C   UNL     1     -21.491   1.409  -7.147  1.00  0.00     0.007 C 
ATOM     27  C   UNL     1     -21.369  -0.826  -6.028  1.00  0.00     0.007 C 
ENDBRANCH  24  25
ENDBRANCH  18  24
ENDBRANCH  15  18
ENDBRANCH  13  14
BRANCH  13  28
ATOM     28  C   UNL     1     -15.823   1.687  -3.140  1.00  0.00     0.327 C 
ATOM     29  O   UNL     1     -14.874   2.223  -2.588  1.00  0.00    -0.250 OA
BRANCH  28  30
ATOM     30  O   UNL     1     -17.081   2.106  -2.892  1.00  0.00    -0.480 OA
ATOM     31  H   UNL     1     -17.309   1.690  -2.035  1.00  0.00     0.296 HD
ENDBRANCH  28  30
ENDBRANCH  13  28
ENDBRANCH  11  13
ENDBRANCH   8  11
ENDBRANCH   6   7
BRANCH   6  32
ATOM     32  C   UNL     1     -10.952  -0.765  -4.075  1.00  0.00     0.037 C 
BRANCH  32  33
ATOM     33  C   UNL     1     -11.348   0.202  -5.199  1.00  0.00     0.026 C 
BRANCH  33  34
ATOM     34  C   UNL     1     -11.508  -0.501  -6.547  1.00  0.00     0.146 C 
BRANCH  34  35
ATOM     35  N   UNL     1     -12.835  -1.098  -6.611  1.00  0.00    -0.254 NA
ATOM     36  C   UNL     1     -13.711  -0.568  -7.382  1.00  0.00     0.185 C 
ATOM     37  N   UNL     1     -14.936  -1.112  -7.452  1.00  0.00    -0.370 N 
ATOM     38  N   UNL     1     -13.593   0.509  -8.179  1.00  0.00    -0.370 N 
ATOM     39  H   UNL     1     -15.100  -1.935  -6.887  1.00  0.00     0.159 HD
ATOM     40  H   UNL     1     -15.614  -0.866  -8.152  1.00  0.00     0.159 HD
ATOM     41  H   UNL     1     -14.397   0.912  -8.632  1.00  0.00     0.159 HD
ATOM     42  H   UNL     1     -12.730   1.029  -8.215  1.00  0.00     0.159 HD
ENDBRANCH  34  35
ENDBRANCH  33  34
ENDBRANCH  32  33
ENDBRANCH   6  32
ENDBRANCH   4   6
ENDBRANCH   1   2
BRANCH   1  43
ATOM     43  C   UNL     1     -10.399   0.560   1.317  1.00  0.00     0.102 C 
ATOM     44  C   UNL     1      -9.919   1.513   2.424  1.00  0.00     0.020 C 
BRANCH  43  45
ATOM     45  C   UNL     1      -9.268  -0.026   0.467  1.00  0.00     0.225 C 
ATOM     46  O   UNL     1      -8.993  -1.222   0.448  1.00  0.00    -0.275 OA
ATOM     47  N   UNL     1      -8.503   0.893  -0.215  1.00  0.00    -0.342 N 
ATOM     48  H   UNL     1      -8.830   1.844  -0.310  1.00  0.00     0.164 HD
BRANCH  47  49
ATOM     49  C   UNL     1      -7.408   0.475  -1.096  1.00  0.00     0.192 C 
BRANCH  49  50
ATOM     50  C   UNL     1      -6.118   1.193  -0.689  1.00  0.00     0.047 C 
BRANCH  50  51
ATOM     51  C   UNL     1      -4.864   0.388  -1.056  1.00  0.00     0.103 C 
BRANCH  51  52
ATOM     52  C   UNL     1      -4.106   1.009  -2.227  1.00  0.00     0.226 C 
ATOM     53  O   UNL     1      -3.888   0.337  -3.238  1.00  0.00    -0.275 OA
BRANCH  52  54
ATOM     54  N   UNL     1      -3.762   2.368  -2.102  1.00  0.00    -0.311 N 
ATOM     55  C   UNL     1      -4.400   3.389  -2.944  1.00  0.00     0.153 C 
BRANCH  54  56
ATOM     56  C   UNL     1      -2.806   2.798  -1.168  1.00  0.00     0.102 C 
ATOM     57  C   UNL     1      -3.088   3.390   0.004  1.00  0.00     0.043 C 
BRANCH  56  58
ATOM     58  C   UNL     1      -1.331   2.575  -1.410  1.00  0.00     0.268 C 
ATOM     59  O   UNL     1      -0.630   1.887  -0.681  1.00  0.00    -0.268 OA
ATOM     60  N   UNL     1      -0.877   3.167  -2.565  1.00  0.00    -0.339 N 
ATOM     61  H   UNL     1      -1.520   3.730  -3.109  1.00  0.00     0.164 HD
BRANCH  60  62
ATOM     62  C   UNL     1       0.504   3.025  -3.022  1.00  0.00     0.168 CG0
ATOM     63  C   UNL     1       0.556   2.639  -4.495  1.00  0.00     0.041 C 
ATOM     64  G   UNL     1       1.229   1.974  -2.157  1.00  0.00     0.000 G0
ENDBRANCH  60  62
ENDBRANCH  56  58
ENDBRANCH  54  56
ENDBRANCH  52  54
ENDBRANCH  51  52
ENDBRANCH  50  51
ENDBRANCH  49  50
BRANCH  49  65
ATOM     65  C   UNL     1      -7.718   0.781  -2.569  1.00  0.00     0.326 C 
ATOM     66  O   UNL     1      -7.305   0.146  -3.529  1.00  0.00    -0.250 OA
BRANCH  65  67
ATOM     67  O   UNL     1      -8.469   1.886  -2.770  1.00  0.00    -0.480 OA
ATOM     68  H   UNL     1      -8.739   1.815  -3.711  1.00  0.00     0.296 HD
ENDBRANCH  65  67
ENDBRANCH  49  65
ENDBRANCH  47  49
ENDBRANCH  43  45
ENDBRANCH   1  43
BRANCH   1  69
ATOM     69  C   UNL     1     -12.845   1.538   1.051  1.00  0.00    -0.001 C 
ATOM     70  C   UNL     1     -14.073   1.166   0.649  1.00  0.00     0.001 C 
BRANCH  70  71
ATOM     71  C   UNL     1     -15.348   1.514   1.281  1.00  0.00    -0.055 C 
ATOM     72  C   UNL     1     -16.364   1.891   0.477  1.00  0.00    -0.018 C 
ATOM     73  C   UNL     1     -15.437   1.417   2.781  1.00  0.00     0.044 C 
BRANCH  72  74
ATOM     74  C   UNL     1     -17.783   2.299   0.845  1.00  0.00     0.038 C 
ATOM     75  C   UNL     1     -18.730   1.280   0.200  1.00  0.00     0.015 C 
BRANCH  74  76
ATOM     76  C   UNL     1     -18.011   3.775   0.402  1.00  0.00     0.128 C 
BRANCH  76  77
ATOM     77  O   UNL     1     -18.262   3.829  -1.013  1.00  0.00    -0.381 OA
ATOM     78  C   UNL     1     -19.509   4.423  -1.349  1.00  0.00     0.195 C 
ENDBRANCH  76  77
BRANCH  76  79
ATOM     79  C   UNL     1     -19.085   4.522   1.231  1.00  0.00     0.068 C 
BRANCH  79  80
ATOM     80  C   UNL     1     -18.698   5.833   1.871  1.00  0.00    -0.045 A 
ATOM     81  C   UNL     1     -17.952   5.865   3.056  1.00  0.00     0.004 A 
ATOM     82  C   UNL     1     -19.108   7.048   1.300  1.00  0.00     0.004 A 
ATOM     83  C   UNL     1     -17.610   7.082   3.650  1.00  0.00     0.000 A 
ATOM     84  C   UNL     1     -18.766   8.264   1.895  1.00  0.00     0.000 A 
ATOM     85  C   UNL     1     -18.016   8.281   3.069  1.00  0.00     0.000 A 
ENDBRANCH  79  80
ENDBRANCH  76  79
ENDBRANCH  74  76
ENDBRANCH  72  74
ENDBRANCH  70  71
ENDBRANCH   1  69
TORSDOF 17
ENDMDL
MODEL 20
REMARK VINA RESULT:    -7.777      3.856     14.022
REMARK INTER + INTRA:         -30.457
REMARK INTER:                 -25.702
REMARK INTRA:                  -4.755
REMARK UNBOUND:                -7.222
REMARK SMILES C=C1C(=O)N[C@H](C)C(=O)N[C@@H](CC(C)C)C(=O)N[C@@H](C(=O)O)[C@H](C)C(=O)N[C@@H](CCCN=C(N)N)C(=O)N[C@@H](/C=C/C(C)=C/[C@H](C)[C@H](Cc2ccccc2)OC)[C@H](C)C(=O)N[C@@H](C(=O)O)CCC(=O)N1C
REMARK SMILES IDX 39 1 38 2 37 3 36 4 28 6 27 7 25 8 26 9 23 11 24 12 19 13
REMARK SMILES IDX 18 14 16 15 17 16 11 18 10 19 8 20 9 21 12 24 13 25 14 26
REMARK SMILES IDX 15 27 20 28 21 29 22 30 29 32 30 33 31 34 32 35 33 36 34 37
REMARK SMILES IDX 35 38 57 43 58 44 59 45 60 46 61 47 62 49 66 50 67 51 68 52
REMARK SMILES IDX 69 53 70 54 71 55 2 56 1 57 3 58 4 59 5 60 6 62 7 63 63 65
REMARK SMILES IDX 64 66 65 67 40 69 41 70 42 71 44 72 43 73 45 74 46 75 47 76
REMARK SMILES IDX 55 77 56 78 48 79 49 80 50 81 54 82 51 83 53 84 52 85
REMARK H PARENT 38 5 27 10 18 17 10 22 22 31 34 39 34 40 35 41 35 42 61 48
REMARK H PARENT 5 61 65 68
REMARK Flexibility Score:  369.900
ROOT
ATOM      1  C   UNL     1      -4.182   2.977  -3.538  1.00  0.00     0.117 C 
ENDROOT
BRANCH   1   2
ATOM      2  N   UNL     1      -5.057   2.584  -4.643  1.00  0.00    -0.347 N 
ATOM      3  O   UNL     1      -6.117   0.836  -3.597  1.00  0.00    -0.273 OA
ATOM      4  C   UNL     1      -6.023   1.600  -4.553  1.00  0.00     0.243 C 
ATOM      5  H   UNL     1      -5.002   3.082  -5.518  1.00  0.00     0.164 HD
BRANCH   4   6
ATOM      6  C   UNL     1      -6.871   1.439  -5.840  1.00  0.00     0.171 C 
BRANCH   6   7
ATOM      7  N   UNL     1      -8.294   1.681  -5.552  1.00  0.00    -0.344 N 
ATOM      8  C   UNL     1      -9.253   0.767  -5.931  1.00  0.00     0.226 C 
ATOM      9  O   UNL     1      -8.981  -0.263  -6.535  1.00  0.00    -0.275 OA
ATOM     10  H   UNL     1      -8.564   2.553  -5.114  1.00  0.00     0.164 HD
BRANCH   8  11
ATOM     11  C   UNL     1     -10.666   1.135  -5.514  1.00  0.00     0.109 C 
ATOM     12  C   UNL     1     -11.597   1.106  -6.726  1.00  0.00     0.021 C 
BRANCH  11  13
ATOM     13  C   UNL     1     -11.110   0.245  -4.335  1.00  0.00     0.204 C 
BRANCH  13  14
ATOM     14  N   UNL     1     -12.221   0.838  -3.584  1.00  0.00    -0.340 N 
ATOM     15  C   UNL     1     -12.677   0.321  -2.391  1.00  0.00     0.243 C 
ATOM     16  O   UNL     1     -12.144  -0.640  -1.840  1.00  0.00    -0.273 OA
ATOM     17  H   UNL     1     -12.800   1.537  -4.056  1.00  0.00     0.164 HD
BRANCH  15  18
ATOM     18  C   UNL     1     -13.985   0.983  -1.890  1.00  0.00     0.171 C 
BRANCH  18  19
ATOM     19  N   UNL     1     -14.964   0.840  -2.965  1.00  0.00    -0.343 N 
ATOM     20  C   UNL     1     -15.743   1.901  -3.388  1.00  0.00     0.242 CG0
ATOM     21  O   UNL     1     -15.743   2.976  -2.793  1.00  0.00    -0.273 OA
ATOM     22  H   UNL     1     -15.084  -0.062  -3.413  1.00  0.00     0.164 HD
ATOM     23  G   UNL     1     -16.661   1.579  -4.585  1.00  0.00     0.000 G0
ENDBRANCH  18  19
BRANCH  18  24
ATOM     24  C   UNL     1     -14.468   0.316  -0.597  1.00  0.00     0.038 C 
BRANCH  24  25
ATOM     25  C   UNL     1     -14.984   1.295   0.480  1.00  0.00    -0.015 C 
ATOM     26  C   UNL     1     -14.702   0.804   1.900  1.00  0.00     0.007 C 
ATOM     27  C   UNL     1     -16.488   1.513   0.299  1.00  0.00     0.007 C 
ENDBRANCH  24  25
ENDBRANCH  18  24
ENDBRANCH  15  18
ENDBRANCH  13  14
BRANCH  13  28
ATOM     28  C   UNL     1     -11.552  -1.156  -4.769  1.00  0.00     0.327 C 
ATOM     29  O   UNL     1     -12.602  -1.444  -5.322  1.00  0.00    -0.250 OA
BRANCH  28  30
ATOM     30  O   UNL     1     -10.700  -2.125  -4.376  1.00  0.00    -0.480 OA
ATOM     31  H   UNL     1     -10.133  -1.690  -3.705  1.00  0.00     0.296 HD
ENDBRANCH  28  30
ENDBRANCH  13  28
ENDBRANCH  11  13
ENDBRANCH   8  11
ENDBRANCH   6   7
BRANCH   6  32
ATOM     32  C   UNL     1      -6.356   2.412  -6.907  1.00  0.00     0.037 C 
BRANCH  32  33
ATOM     33  C   UNL     1      -7.223   2.395  -8.173  1.00  0.00     0.026 C 
BRANCH  33  34
ATOM     34  C   UNL     1      -6.911   1.204  -9.081  1.00  0.00     0.146 C 
BRANCH  34  35
ATOM     35  N   UNL     1      -7.556   1.414 -10.370  1.00  0.00    -0.254 NA
ATOM     36  C   UNL     1      -8.762   1.012 -10.526  1.00  0.00     0.185 C 
ATOM     37  N   UNL     1      -9.368   1.205 -11.708  1.00  0.00    -0.370 N 
ATOM     38  N   UNL     1      -9.567   0.392  -9.645  1.00  0.00    -0.370 N 
ATOM     39  H   UNL     1      -8.829   1.676 -12.423  1.00  0.00     0.159 HD
ATOM     40  H   UNL     1     -10.354   1.079 -11.854  1.00  0.00     0.159 HD
ATOM     41  H   UNL     1     -10.449  -0.000  -9.931  1.00  0.00     0.159 HD
ATOM     42  H   UNL     1      -9.237   0.168  -8.719  1.00  0.00     0.159 HD
ENDBRANCH  34  35
ENDBRANCH  33  34
ENDBRANCH  32  33
ENDBRANCH   6  32
ENDBRANCH   4   6
ENDBRANCH   1   2
BRANCH   1  43
ATOM     43  C   UNL     1      -2.818   2.246  -3.702  1.00  0.00     0.102 C 
ATOM     44  C   UNL     1      -1.627   3.039  -3.137  1.00  0.00     0.020 C 
BRANCH  43  45
ATOM     45  C   UNL     1      -2.620   1.770  -5.144  1.00  0.00     0.225 C 
ATOM     46  O   UNL     1      -2.960   0.657  -5.536  1.00  0.00    -0.275 OA
ATOM     47  N   UNL     1      -1.942   2.640  -5.967  1.00  0.00    -0.342 N 
ATOM     48  H   UNL     1      -1.806   3.599  -5.679  1.00  0.00     0.164 HD
BRANCH  47  49
ATOM     49  C   UNL     1      -1.710   2.333  -7.382  1.00  0.00     0.192 C 
BRANCH  49  50
ATOM     50  C   UNL     1      -0.845   3.428  -8.011  1.00  0.00     0.047 C 
BRANCH  50  51
ATOM     51  C   UNL     1       0.306   3.860  -7.093  1.00  0.00     0.103 C 
BRANCH  51  52
ATOM     52  C   UNL     1       1.510   4.368  -7.883  1.00  0.00     0.226 C 
ATOM     53  O   UNL     1       2.587   3.773  -7.805  1.00  0.00    -0.275 OA
BRANCH  52  54
ATOM     54  N   UNL     1       1.285   5.469  -8.730  1.00  0.00    -0.311 N 
ATOM     55  C   UNL     1       1.063   6.813  -8.180  1.00  0.00     0.153 C 
BRANCH  54  56
ATOM     56  C   UNL     1       1.269   5.327 -10.127  1.00  0.00     0.102 C 
ATOM     57  C   UNL     1       0.159   5.237 -10.878  1.00  0.00     0.043 C 
BRANCH  56  58
ATOM     58  C   UNL     1       2.555   5.311 -10.919  1.00  0.00     0.268 C 
ATOM     59  O   UNL     1       3.155   4.283 -11.202  1.00  0.00    -0.268 OA
ATOM     60  N   UNL     1       2.944   6.560 -11.343  1.00  0.00    -0.339 N 
ATOM     61  H   UNL     1       2.398   7.363 -11.057  1.00  0.00     0.164 HD
BRANCH  60  62
ATOM     62  C   UNL     1       4.128   6.766 -12.177  1.00  0.00     0.168 CG0
ATOM     63  C   UNL     1       3.756   6.804 -13.654  1.00  0.00     0.041 C 
ATOM     64  G   UNL     1       5.155   5.648 -11.902  1.00  0.00     0.000 G0
ENDBRANCH  60  62
ENDBRANCH  56  58
ENDBRANCH  54  56
ENDBRANCH  52  54
ENDBRANCH  51  52
ENDBRANCH  50  51
ENDBRANCH  49  50
BRANCH  49  65
ATOM     65  C   UNL     1      -3.030   2.217  -8.160  1.00  0.00     0.326 C 
ATOM     66  O   UNL     1      -3.708   3.155  -8.554  1.00  0.00    -0.250 OA
BRANCH  65  67
ATOM     67  O   UNL     1      -3.462   0.951  -8.352  1.00  0.00    -0.480 OA
ATOM     68  H   UNL     1      -4.001   0.767  -7.552  1.00  0.00     0.296 HD
ENDBRANCH  65  67
ENDBRANCH  49  65
ENDBRANCH  47  49
ENDBRANCH  43  45
ENDBRANCH   1  43
BRANCH   1  69
ATOM     69  C   UNL     1      -4.982   2.759  -2.266  1.00  0.00    -0.001 C 
ATOM     70  C   UNL     1      -4.666   3.164  -1.023  1.00  0.00     0.001 C 
BRANCH  70  71
ATOM     71  C   UNL     1      -5.457   2.967   0.193  1.00  0.00    -0.055 C 
ATOM     72  C   UNL     1      -6.357   1.961   0.201  1.00  0.00    -0.018 C 
ATOM     73  C   UNL     1      -5.204   3.894   1.353  1.00  0.00     0.044 C 
BRANCH  72  74
ATOM     74  C   UNL     1      -7.303   1.524   1.310  1.00  0.00     0.038 C 
ATOM     75  C   UNL     1      -6.582   1.763   2.641  1.00  0.00     0.015 C 
BRANCH  74  76
ATOM     76  C   UNL     1      -7.728   0.048   1.053  1.00  0.00     0.128 C 
BRANCH  76  77
ATOM     77  O   UNL     1      -7.868  -0.647   2.304  1.00  0.00    -0.381 OA
ATOM     78  C   UNL     1      -9.214  -0.759   2.747  1.00  0.00     0.195 C 
ENDBRANCH  76  77
BRANCH  76  79
ATOM     79  C   UNL     1      -8.972  -0.100   0.142  1.00  0.00     0.068 C 
BRANCH  79  80
ATOM     80  C   UNL     1      -9.725   1.152  -0.236  1.00  0.00    -0.045 A 
ATOM     81  C   UNL     1     -10.792   1.616   0.545  1.00  0.00     0.004 A 
ATOM     82  C   UNL     1      -9.383   1.860  -1.398  1.00  0.00     0.004 A 
ATOM     83  C   UNL     1     -11.492   2.768   0.181  1.00  0.00     0.000 A 
ATOM     84  C   UNL     1     -10.084   3.011  -1.761  1.00  0.00     0.000 A 
ATOM     85  C   UNL     1     -11.137   3.466  -0.971  1.00  0.00     0.000 A 
ENDBRANCH  79  80
ENDBRANCH  76  79
ENDBRANCH  74  76
ENDBRANCH  72  74
ENDBRANCH  70  71
ENDBRANCH   1  69
TORSDOF 17
ENDMDL
MODEL 21
REMARK VINA RESULT:    -7.769      3.695     12.648
REMARK INTER + INTRA:         -30.434
REMARK INTER:                 -24.412
REMARK INTRA:                  -6.022
REMARK UNBOUND:                -7.222
REMARK SMILES C=C1C(=O)N[C@H](C)C(=O)N[C@@H](CC(C)C)C(=O)N[C@@H](C(=O)O)[C@H](C)C(=O)N[C@@H](CCCN=C(N)N)C(=O)N[C@@H](/C=C/C(C)=C/[C@H](C)[C@H](Cc2ccccc2)OC)[C@H](C)C(=O)N[C@@H](C(=O)O)CCC(=O)N1C
REMARK SMILES IDX 39 1 38 2 37 3 36 4 28 6 27 7 25 8 26 9 23 11 24 12 19 13
REMARK SMILES IDX 18 14 16 15 17 16 11 18 10 19 8 20 9 21 12 24 13 25 14 26
REMARK SMILES IDX 15 27 20 28 21 29 22 30 29 32 30 33 31 34 32 35 33 36 34 37
REMARK SMILES IDX 35 38 57 43 58 44 59 45 60 46 61 47 62 49 66 50 67 51 68 52
REMARK SMILES IDX 69 53 70 54 71 55 2 56 1 57 3 58 4 59 5 60 6 62 7 63 63 65
REMARK SMILES IDX 64 66 65 67 40 69 41 70 42 71 44 72 43 73 45 74 46 75 47 76
REMARK SMILES IDX 55 77 56 78 48 79 49 80 50 81 54 82 51 83 53 84 52 85
REMARK H PARENT 38 5 27 10 18 17 10 22 22 31 34 39 34 40 35 41 35 42 61 48
REMARK H PARENT 5 61 65 68
REMARK Flexibility Score:  369.900
ROOT
ATOM      1  C   UNL     1      -9.404   1.295  -5.350  1.00  0.00     0.117 C 
ENDROOT
BRANCH   1   2
ATOM      2  N   UNL     1     -10.465   0.295  -5.475  1.00  0.00    -0.347 N 
ATOM      3  O   UNL     1     -11.732   0.956  -3.679  1.00  0.00    -0.273 OA
ATOM      4  C   UNL     1     -11.595   0.263  -4.681  1.00  0.00     0.243 C 
ATOM      5  H   UNL     1     -10.411  -0.394  -6.211  1.00  0.00     0.164 HD
BRANCH   4   6
ATOM      6  C   UNL     1     -12.603  -0.846  -5.077  1.00  0.00     0.171 C 
BRANCH   6   7
ATOM      7  N   UNL     1     -13.929  -0.565  -4.503  1.00  0.00    -0.344 N 
ATOM      8  C   UNL     1     -14.301  -1.110  -3.293  1.00  0.00     0.226 C 
ATOM      9  O   UNL     1     -13.573  -1.861  -2.655  1.00  0.00    -0.275 OA
ATOM     10  H   UNL     1     -14.584  -0.003  -5.032  1.00  0.00     0.164 HD
BRANCH   8  11
ATOM     11  C   UNL     1     -15.676  -0.681  -2.810  1.00  0.00     0.109 C 
ATOM     12  C   UNL     1     -16.220  -1.696  -1.805  1.00  0.00     0.021 C 
BRANCH  11  13
ATOM     13  C   UNL     1     -15.619   0.772  -2.299  1.00  0.00     0.204 C 
BRANCH  13  14
ATOM     14  N   UNL     1     -16.820   1.138  -1.542  1.00  0.00    -0.340 N 
ATOM     15  C   UNL     1     -17.234   2.442  -1.380  1.00  0.00     0.243 C 
ATOM     16  O   UNL     1     -16.657   3.389  -1.912  1.00  0.00    -0.273 OA
ATOM     17  H   UNL     1     -17.255   0.421  -0.954  1.00  0.00     0.164 HD
BRANCH  15  18
ATOM     18  C   UNL     1     -18.402   2.601  -0.375  1.00  0.00     0.171 C 
BRANCH  18  19
ATOM     19  N   UNL     1     -19.492   1.758  -0.864  1.00  0.00    -0.343 N 
ATOM     20  C   UNL     1     -20.757   2.264  -1.095  1.00  0.00     0.242 CG0
ATOM     21  O   UNL     1     -21.059   3.411  -0.774  1.00  0.00    -0.273 OA
ATOM     22  H   UNL     1     -19.321   0.774  -1.034  1.00  0.00     0.164 HD
ATOM     23  G   UNL     1     -21.753   1.244  -1.683  1.00  0.00     0.000 G0
ENDBRANCH  18  19
BRANCH  18  24
ATOM     24  C   UNL     1     -17.962   2.189   1.035  1.00  0.00     0.038 C 
BRANCH  24  25
ATOM     25  C   UNL     1     -16.997   3.177   1.724  1.00  0.00    -0.015 C 
ATOM     26  C   UNL     1     -15.641   2.546   2.040  1.00  0.00     0.007 C 
ATOM     27  C   UNL     1     -17.634   3.704   3.012  1.00  0.00     0.007 C 
ENDBRANCH  24  25
ENDBRANCH  18  24
ENDBRANCH  15  18
ENDBRANCH  13  14
BRANCH  13  28
ATOM     28  C   UNL     1     -14.413   1.047  -1.396  1.00  0.00     0.327 C 
ATOM     29  O   UNL     1     -14.150   0.479  -0.347  1.00  0.00    -0.250 OA
BRANCH  28  30
ATOM     30  O   UNL     1     -13.675   2.100  -1.805  1.00  0.00    -0.480 OA
ATOM     31  H   UNL     1     -12.778   1.729  -1.937  1.00  0.00     0.296 HD
ENDBRANCH  28  30
ENDBRANCH  13  28
ENDBRANCH  11  13
ENDBRANCH   8  11
ENDBRANCH   6   7
BRANCH   6  32
ATOM     32  C   UNL     1     -12.677  -0.938  -6.605  1.00  0.00     0.037 C 
BRANCH  32  33
ATOM     33  C   UNL     1     -13.792  -0.057  -7.185  1.00  0.00     0.026 C 
BRANCH  33  34
ATOM     34  C   UNL     1     -13.311   1.357  -7.511  1.00  0.00     0.146 C 
BRANCH  34  35
ATOM     35  N   UNL     1     -12.128   1.268  -8.356  1.00  0.00    -0.254 NA
ATOM     36  C   UNL     1     -11.959   2.146  -9.272  1.00  0.00     0.185 C 
ATOM     37  N   UNL     1     -10.870   2.076 -10.053  1.00  0.00    -0.370 N 
ATOM     38  N   UNL     1     -12.744   3.189  -9.598  1.00  0.00    -0.370 N 
ATOM     39  H   UNL     1     -10.223   1.322  -9.863  1.00  0.00     0.159 HD
ATOM     40  H   UNL     1     -10.579   2.815 -10.669  1.00  0.00     0.159 HD
ATOM     41  H   UNL     1     -12.574   3.729 -10.431  1.00  0.00     0.159 HD
ATOM     42  H   UNL     1     -13.607   3.355  -9.104  1.00  0.00     0.159 HD
ENDBRANCH  34  35
ENDBRANCH  33  34
ENDBRANCH  32  33
ENDBRANCH   6  32
ENDBRANCH   4   6
ENDBRANCH   1   2
BRANCH   1  43
ATOM     43  C   UNL     1      -8.861   1.621  -6.771  1.00  0.00     0.102 C 
ATOM     44  C   UNL     1      -8.764   0.388  -7.687  1.00  0.00     0.020 C 
BRANCH  43  45
ATOM     45  C   UNL     1      -7.569   2.440  -6.692  1.00  0.00     0.225 C 
ATOM     46  O   UNL     1      -7.493   3.518  -6.111  1.00  0.00    -0.275 OA
ATOM     47  N   UNL     1      -6.504   1.934  -7.402  1.00  0.00    -0.342 N 
ATOM     48  H   UNL     1      -6.535   0.984  -7.743  1.00  0.00     0.164 HD
BRANCH  47  49
ATOM     49  C   UNL     1      -5.194   2.593  -7.389  1.00  0.00     0.192 C 
BRANCH  49  50
ATOM     50  C   UNL     1      -4.609   2.602  -8.803  1.00  0.00     0.047 C 
BRANCH  50  51
ATOM     51  C   UNL     1      -5.667   2.301  -9.873  1.00  0.00     0.103 C 
BRANCH  51  52
ATOM     52  C   UNL     1      -5.217   1.200 -10.831  1.00  0.00     0.226 C 
ATOM     53  O   UNL     1      -4.266   1.402 -11.589  1.00  0.00    -0.275 OA
BRANCH  52  54
ATOM     54  N   UNL     1      -5.890  -0.032 -10.731  1.00  0.00    -0.311 N 
ATOM     55  C   UNL     1      -5.622  -0.951  -9.616  1.00  0.00     0.153 C 
BRANCH  54  56
ATOM     56  C   UNL     1      -6.842  -0.426 -11.685  1.00  0.00     0.102 C 
ATOM     57  C   UNL     1      -8.159  -0.175 -11.605  1.00  0.00     0.043 C 
BRANCH  56  58
ATOM     58  C   UNL     1      -6.425  -1.153 -12.942  1.00  0.00     0.268 C 
ATOM     59  O   UNL     1      -5.994  -2.298 -12.942  1.00  0.00    -0.268 OA
ATOM     60  N   UNL     1      -6.642  -0.421 -14.086  1.00  0.00    -0.339 N 
ATOM     61  H   UNL     1      -6.993   0.525 -13.999  1.00  0.00     0.164 HD
BRANCH  60  62
ATOM     62  C   UNL     1      -6.368  -0.958 -15.418  1.00  0.00     0.168 CG0
ATOM     63  C   UNL     1      -5.090  -0.361 -15.995  1.00  0.00     0.041 C 
ATOM     64  G   UNL     1      -7.568  -0.680 -16.345  1.00  0.00     0.000 G0
ENDBRANCH  60  62
ENDBRANCH  56  58
ENDBRANCH  54  56
ENDBRANCH  52  54
ENDBRANCH  51  52
ENDBRANCH  50  51
ENDBRANCH  49  50
BRANCH  49  65
ATOM     65  C   UNL     1      -4.214   1.887  -6.437  1.00  0.00     0.326 C 
ATOM     66  O   UNL     1      -4.527   1.139  -5.523  1.00  0.00    -0.250 OA
BRANCH  65  67
ATOM     67  O   UNL     1      -2.914   2.196  -6.636  1.00  0.00    -0.480 OA
ATOM     68  H   UNL     1      -2.829   2.222  -7.613  1.00  0.00     0.296 HD
ENDBRANCH  65  67
ENDBRANCH  49  65
ENDBRANCH  47  49
ENDBRANCH  43  45
ENDBRANCH   1  43
BRANCH   1  69
ATOM     69  C   UNL     1      -8.443   0.766  -4.301  1.00  0.00    -0.001 C 
ATOM     70  C   UNL     1      -7.873   1.453  -3.295  1.00  0.00     0.001 C 
BRANCH  70  71
ATOM     71  C   UNL     1      -6.964   0.926  -2.276  1.00  0.00    -0.055 C 
ATOM     72  C   UNL     1      -7.015   1.476  -1.044  1.00  0.00    -0.018 C 
ATOM     73  C   UNL     1      -6.041  -0.198  -2.671  1.00  0.00     0.044 C 
BRANCH  72  74
ATOM     74  C   UNL     1      -6.203   1.136   0.197  1.00  0.00     0.038 C 
ATOM     75  C   UNL     1      -7.081   1.454   1.413  1.00  0.00     0.015 C 
BRANCH  74  76
ATOM     76  C   UNL     1      -4.855   1.913   0.143  1.00  0.00     0.128 C 
BRANCH  76  77
ATOM     77  O   UNL     1      -4.497   2.367   1.459  1.00  0.00    -0.381 OA
ATOM     78  C   UNL     1      -4.245   3.764   1.533  1.00  0.00     0.195 C 
ENDBRANCH  76  77
BRANCH  76  79
ATOM     79  C   UNL     1      -3.709   1.139  -0.556  1.00  0.00     0.068 C 
BRANCH  79  80
ATOM     80  C   UNL     1      -2.671   1.938  -1.306  1.00  0.00    -0.045 A 
ATOM     81  C   UNL     1      -2.815   2.208  -2.673  1.00  0.00     0.004 A 
ATOM     82  C   UNL     1      -1.523   2.402  -0.645  1.00  0.00     0.004 A 
ATOM     83  C   UNL     1      -1.843   2.936  -3.362  1.00  0.00     0.000 A 
ATOM     84  C   UNL     1      -0.551   3.129  -1.336  1.00  0.00     0.000 A 
ATOM     85  C   UNL     1      -0.712   3.397  -2.693  1.00  0.00     0.000 A 
ENDBRANCH  79  80
ENDBRANCH  76  79
ENDBRANCH  74  76
ENDBRANCH  72  74
ENDBRANCH  70  71
ENDBRANCH   1  69
TORSDOF 17
ENDMDL
MODEL 22
REMARK VINA RESULT:    -7.711      4.388     10.068
REMARK INTER + INTRA:         -30.259
REMARK INTER:                 -24.164
REMARK INTRA:                  -6.095
REMARK UNBOUND:                -7.222
REMARK SMILES C=C1C(=O)N[C@H](C)C(=O)N[C@@H](CC(C)C)C(=O)N[C@@H](C(=O)O)[C@H](C)C(=O)N[C@@H](CCCN=C(N)N)C(=O)N[C@@H](/C=C/C(C)=C/[C@H](C)[C@H](Cc2ccccc2)OC)[C@H](C)C(=O)N[C@@H](C(=O)O)CCC(=O)N1C
REMARK SMILES IDX 39 1 38 2 37 3 36 4 28 6 27 7 25 8 26 9 23 11 24 12 19 13
REMARK SMILES IDX 18 14 16 15 17 16 11 18 10 19 8 20 9 21 12 24 13 25 14 26
REMARK SMILES IDX 15 27 20 28 21 29 22 30 29 32 30 33 31 34 32 35 33 36 34 37
REMARK SMILES IDX 35 38 57 43 58 44 59 45 60 46 61 47 62 49 66 50 67 51 68 52
REMARK SMILES IDX 69 53 70 54 71 55 2 56 1 57 3 58 4 59 5 60 6 62 7 63 63 65
REMARK SMILES IDX 64 66 65 67 40 69 41 70 42 71 44 72 43 73 45 74 46 75 47 76
REMARK SMILES IDX 55 77 56 78 48 79 49 80 50 81 54 82 51 83 53 84 52 85
REMARK H PARENT 38 5 27 10 18 17 10 22 22 31 34 39 34 40 35 41 35 42 61 48
REMARK H PARENT 5 61 65 68
REMARK Flexibility Score:  369.900
ROOT
ATOM      1  C   UNL     1      -6.755   1.901  -4.909  1.00  0.00     0.117 C 
ENDROOT
BRANCH   1   2
ATOM      2  N   UNL     1      -5.483   1.526  -5.528  1.00  0.00    -0.347 N 
ATOM      3  O   UNL     1      -4.239   3.308  -4.790  1.00  0.00    -0.273 OA
ATOM      4  C   UNL     1      -4.300   2.215  -5.343  1.00  0.00     0.243 C 
ATOM      5  H   UNL     1      -5.434   0.690  -6.090  1.00  0.00     0.164 HD
BRANCH   4   6
ATOM      6  C   UNL     1      -3.082   1.560  -6.041  1.00  0.00     0.171 C 
BRANCH   6   7
ATOM      7  N   UNL     1      -2.863   2.161  -7.366  1.00  0.00    -0.344 N 
ATOM      8  C   UNL     1      -3.490   1.649  -8.481  1.00  0.00     0.226 C 
ATOM      9  O   UNL     1      -4.229   0.673  -8.434  1.00  0.00    -0.275 OA
ATOM     10  H   UNL     1      -2.207   2.926  -7.456  1.00  0.00     0.164 HD
BRANCH   8  11
ATOM     11  C   UNL     1      -3.206   2.412  -9.764  1.00  0.00     0.109 C 
ATOM     12  C   UNL     1      -1.940   3.254  -9.605  1.00  0.00     0.021 C 
BRANCH  11  13
ATOM     13  C   UNL     1      -3.191   1.437 -10.958  1.00  0.00     0.204 C 
BRANCH  13  14
ATOM     14  N   UNL     1      -4.527   1.248 -11.533  1.00  0.00    -0.340 N 
ATOM     15  C   UNL     1      -5.136   0.015 -11.621  1.00  0.00     0.243 C 
ATOM     16  O   UNL     1      -4.626  -1.007 -11.167  1.00  0.00    -0.273 OA
ATOM     17  H   UNL     1      -4.936   2.024 -12.061  1.00  0.00     0.164 HD
BRANCH  15  18
ATOM     18  C   UNL     1      -6.445   0.030 -12.448  1.00  0.00     0.171 C 
BRANCH  18  19
ATOM     19  N   UNL     1      -6.156   0.771 -13.675  1.00  0.00    -0.343 N 
ATOM     20  C   UNL     1      -7.087   1.612 -14.254  1.00  0.00     0.242 CG0
ATOM     21  O   UNL     1      -8.243   1.673 -13.842  1.00  0.00    -0.273 OA
ATOM     22  H   UNL     1      -5.252   0.664 -14.119  1.00  0.00     0.164 HD
ATOM     23  G   UNL     1      -6.576   2.368 -15.498  1.00  0.00     0.000 G0
ENDBRANCH  18  19
BRANCH  18  24
ATOM     24  C   UNL     1      -6.909  -1.400 -12.752  1.00  0.00     0.038 C 
BRANCH  24  25
ATOM     25  C   UNL     1      -6.378  -1.982 -14.079  1.00  0.00    -0.015 C 
ATOM     26  C   UNL     1      -7.494  -2.241 -15.092  1.00  0.00     0.007 C 
ATOM     27  C   UNL     1      -5.620  -3.283 -13.804  1.00  0.00     0.007 C 
ENDBRANCH  24  25
ENDBRANCH  18  24
ENDBRANCH  15  18
ENDBRANCH  13  14
BRANCH  13  28
ATOM     28  C   UNL     1      -2.268   1.888 -12.094  1.00  0.00     0.327 C 
ATOM     29  O   UNL     1      -2.466   2.818 -12.861  1.00  0.00    -0.250 OA
BRANCH  28  30
ATOM     30  O   UNL     1      -1.210   1.071 -12.272  1.00  0.00    -0.480 OA
ATOM     31  H   UNL     1      -0.554   1.624 -12.744  1.00  0.00     0.296 HD
ENDBRANCH  28  30
ENDBRANCH  13  28
ENDBRANCH  11  13
ENDBRANCH   8  11
ENDBRANCH   6   7
BRANCH   6  32
ATOM     32  C   UNL     1      -1.843   1.727  -5.153  1.00  0.00     0.037 C 
BRANCH  32  33
ATOM     33  C   UNL     1      -0.790   2.642  -5.794  1.00  0.00     0.026 C 
BRANCH  33  34
ATOM     34  C   UNL     1      -0.071   3.516  -4.766  1.00  0.00     0.146 C 
BRANCH  34  35
ATOM     35  N   UNL     1      -0.678   3.301  -3.460  1.00  0.00    -0.254 NA
ATOM     36  C   UNL     1       0.014   3.556  -2.412  1.00  0.00     0.185 C 
ATOM     37  N   UNL     1      -0.537   3.366  -1.203  1.00  0.00    -0.370 N 
ATOM     38  N   UNL     1       1.276   4.010  -2.323  1.00  0.00    -0.370 N 
ATOM     39  H   UNL     1      -1.493   3.034  -1.187  1.00  0.00     0.159 HD
ATOM     40  H   UNL     1      -0.130   3.702  -0.347  1.00  0.00     0.159 HD
ATOM     41  H   UNL     1       1.758   4.038  -1.439  1.00  0.00     0.159 HD
ATOM     42  H   UNL     1       1.819   4.182  -3.155  1.00  0.00     0.159 HD
ENDBRANCH  34  35
ENDBRANCH  33  34
ENDBRANCH  32  33
ENDBRANCH   6  32
ENDBRANCH   4   6
ENDBRANCH   1   2
BRANCH   1  43
ATOM     43  C   UNL     1      -6.967   1.023  -3.642  1.00  0.00     0.102 C 
ATOM     44  C   UNL     1      -8.441   0.672  -3.380  1.00  0.00     0.020 C 
BRANCH  43  45
ATOM     45  C   UNL     1      -6.247   1.624  -2.431  1.00  0.00     0.225 C 
ATOM     46  O   UNL     1      -6.133   2.832  -2.249  1.00  0.00    -0.275 OA
ATOM     47  N   UNL     1      -5.643   0.716  -1.591  1.00  0.00    -0.342 N 
ATOM     48  H   UNL     1      -5.872  -0.265  -1.667  1.00  0.00     0.164 HD
BRANCH  47  49
ATOM     49  C   UNL     1      -4.949   1.143  -0.372  1.00  0.00     0.192 C 
BRANCH  49  50
ATOM     50  C   UNL     1      -5.787   2.197   0.355  1.00  0.00     0.047 C 
BRANCH  50  51
ATOM     51  C   UNL     1      -6.604   1.598   1.508  1.00  0.00     0.103 C 
BRANCH  51  52
ATOM     52  C   UNL     1      -7.987   1.137   1.052  1.00  0.00     0.226 C 
ATOM     53  O   UNL     1      -8.429   1.516  -0.034  1.00  0.00    -0.275 OA
BRANCH  52  54
ATOM     54  N   UNL     1      -8.653   0.226   1.893  1.00  0.00    -0.311 N 
ATOM     55  C   UNL     1      -8.709  -1.204   1.565  1.00  0.00     0.153 C 
BRANCH  54  56
ATOM     56  C   UNL     1      -9.281   0.647   3.077  1.00  0.00     0.102 C 
ATOM     57  C   UNL     1     -10.304   1.515   3.137  1.00  0.00     0.043 C 
BRANCH  56  58
ATOM     58  C   UNL     1      -8.860   0.093   4.418  1.00  0.00     0.268 C 
ATOM     59  O   UNL     1      -7.691   0.006   4.769  1.00  0.00    -0.268 OA
ATOM     60  N   UNL     1      -9.923  -0.239   5.223  1.00  0.00    -0.339 N 
ATOM     61  H   UNL     1     -10.862  -0.147   4.854  1.00  0.00     0.164 HD
BRANCH  60  62
ATOM     62  C   UNL     1      -9.742  -0.736   6.587  1.00  0.00     0.168 CG0
ATOM     63  C   UNL     1     -11.060  -1.231   7.168  1.00  0.00     0.041 C 
ATOM     64  G   UNL     1      -9.142   0.379   7.467  1.00  0.00     0.000 G0
ENDBRANCH  60  62
ENDBRANCH  56  58
ENDBRANCH  54  56
ENDBRANCH  52  54
ENDBRANCH  51  52
ENDBRANCH  50  51
ENDBRANCH  49  50
BRANCH  49  65
ATOM     65  C   UNL     1      -3.561   1.724  -0.686  1.00  0.00     0.326 C 
ATOM     66  O   UNL     1      -2.497   1.140  -0.541  1.00  0.00    -0.250 OA
BRANCH  65  67
ATOM     67  O   UNL     1      -3.569   3.010  -1.101  1.00  0.00    -0.480 OA
ATOM     68  H   UNL     1      -4.274   3.424  -0.558  1.00  0.00     0.296 HD
ENDBRANCH  65  67
ENDBRANCH  49  65
ENDBRANCH  47  49
ENDBRANCH  43  45
ENDBRANCH   1  43
BRANCH   1  69
ATOM     69  C   UNL     1      -7.794   1.856  -6.014  1.00  0.00    -0.001 C 
ATOM     70  C   UNL     1      -7.888   0.959  -7.012  1.00  0.00     0.001 C 
BRANCH  70  71
ATOM     71  C   UNL     1      -8.909   0.913  -8.061  1.00  0.00    -0.055 C 
ATOM     72  C   UNL     1     -10.201   1.020  -7.684  1.00  0.00    -0.018 C 
ATOM     73  C   UNL     1      -8.445   0.758  -9.485  1.00  0.00     0.044 C 
BRANCH  72  74
ATOM     74  C   UNL     1     -11.458   1.009  -8.543  1.00  0.00     0.038 C 
ATOM     75  C   UNL     1     -11.617   2.416  -9.130  1.00  0.00     0.015 C 
BRANCH  74  76
ATOM     76  C   UNL     1     -12.655   0.525  -7.671  1.00  0.00     0.128 C 
BRANCH  76  77
ATOM     77  O   UNL     1     -13.841   0.430  -8.477  1.00  0.00    -0.381 OA
ATOM     78  C   UNL     1     -14.926  -0.213  -7.822  1.00  0.00     0.195 C 
ENDBRANCH  76  77
BRANCH  76  79
ATOM     79  C   UNL     1     -12.368  -0.770  -6.871  1.00  0.00     0.068 C 
BRANCH  79  80
ATOM     80  C   UNL     1     -12.191  -0.654  -5.377  1.00  0.00    -0.045 A 
ATOM     81  C   UNL     1     -11.295  -1.483  -4.689  1.00  0.00     0.004 A 
ATOM     82  C   UNL     1     -12.947   0.275  -4.645  1.00  0.00     0.004 A 
ATOM     83  C   UNL     1     -11.147  -1.378  -3.304  1.00  0.00     0.000 A 
ATOM     84  C   UNL     1     -12.799   0.378  -3.260  1.00  0.00     0.000 A 
ATOM     85  C   UNL     1     -11.898  -0.447  -2.591  1.00  0.00     0.000 A 
ENDBRANCH  79  80
ENDBRANCH  76  79
ENDBRANCH  74  76
ENDBRANCH  72  74
ENDBRANCH  70  71
ENDBRANCH   1  69
TORSDOF 17
ENDMDL
MODEL 23
REMARK VINA RESULT:    -7.709      4.581      9.798
REMARK INTER + INTRA:         -30.255
REMARK INTER:                 -24.211
REMARK INTRA:                  -6.044
REMARK UNBOUND:                -7.222
REMARK SMILES C=C1C(=O)N[C@H](C)C(=O)N[C@@H](CC(C)C)C(=O)N[C@@H](C(=O)O)[C@H](C)C(=O)N[C@@H](CCCN=C(N)N)C(=O)N[C@@H](/C=C/C(C)=C/[C@H](C)[C@H](Cc2ccccc2)OC)[C@H](C)C(=O)N[C@@H](C(=O)O)CCC(=O)N1C
REMARK SMILES IDX 39 1 38 2 37 3 36 4 28 6 27 7 25 8 26 9 23 11 24 12 19 13
REMARK SMILES IDX 18 14 16 15 17 16 11 18 10 19 8 20 9 21 12 24 13 25 14 26
REMARK SMILES IDX 15 27 20 28 21 29 22 30 29 32 30 33 31 34 32 35 33 36 34 37
REMARK SMILES IDX 35 38 57 43 58 44 59 45 60 46 61 47 62 49 66 50 67 51 68 52
REMARK SMILES IDX 69 53 70 54 71 55 2 56 1 57 3 58 4 59 5 60 6 62 7 63 63 65
REMARK SMILES IDX 64 66 65 67 40 69 41 70 42 71 44 72 43 73 45 74 46 75 47 76
REMARK SMILES IDX 55 77 56 78 48 79 49 80 50 81 54 82 51 83 53 84 52 85
REMARK H PARENT 38 5 27 10 18 17 10 22 22 31 34 39 34 40 35 41 35 42 61 48
REMARK H PARENT 5 61 65 68
REMARK Flexibility Score:  369.900
ROOT
ATOM      1  C   UNL     1      -1.198   2.818  -3.781  1.00  0.00     0.117 C 
ENDROOT
BRANCH   1   2
ATOM      2  N   UNL     1      -2.491   2.918  -4.459  1.00  0.00    -0.347 N 
ATOM      3  O   UNL     1      -2.848   0.674  -4.787  1.00  0.00    -0.273 OA
ATOM      4  C   UNL     1      -3.258   1.829  -4.827  1.00  0.00     0.243 C 
ATOM      5  H   UNL     1      -2.888   3.829  -4.634  1.00  0.00     0.164 HD
BRANCH   4   6
ATOM      6  C   UNL     1      -4.624   2.212  -5.452  1.00  0.00     0.171 C 
BRANCH   6   7
ATOM      7  N   UNL     1      -4.812   1.523  -6.738  1.00  0.00    -0.344 N 
ATOM      8  C   UNL     1      -3.995   1.803  -7.812  1.00  0.00     0.226 C 
ATOM      9  O   UNL     1      -3.101   2.639  -7.761  1.00  0.00    -0.275 OA
ATOM     10  H   UNL     1      -5.583   0.874  -6.839  1.00  0.00     0.164 HD
BRANCH   8  11
ATOM     11  C   UNL     1      -4.281   0.971  -9.049  1.00  0.00     0.109 C 
ATOM     12  C   UNL     1      -5.139  -0.240  -8.682  1.00  0.00     0.021 C 
BRANCH  11  13
ATOM     13  C   UNL     1      -4.867   1.868 -10.158  1.00  0.00     0.204 C 
BRANCH  13  14
ATOM     14  N   UNL     1      -4.805   1.229 -11.476  1.00  0.00    -0.340 N 
ATOM     15  C   UNL     1      -3.691   1.286 -12.284  1.00  0.00     0.243 C 
ATOM     16  O   UNL     1      -2.645   1.828 -11.929  1.00  0.00    -0.273 OA
ATOM     17  H   UNL     1      -5.680   0.897 -11.890  1.00  0.00     0.164 HD
BRANCH  15  18
ATOM     18  C   UNL     1      -3.928   0.722 -13.706  1.00  0.00     0.171 C 
BRANCH  18  19
ATOM     19  N   UNL     1      -2.934  -0.330 -13.911  1.00  0.00    -0.343 N 
ATOM     20  C   UNL     1      -1.936  -0.215 -14.859  1.00  0.00     0.242 CG0
ATOM     21  O   UNL     1      -1.917   0.714 -15.663  1.00  0.00    -0.273 OA
ATOM     22  H   UNL     1      -2.977  -1.171 -13.347  1.00  0.00     0.164 HD
ATOM     23  G   UNL     1      -0.934  -1.388 -14.875  1.00  0.00     0.000 G0
ENDBRANCH  18  19
BRANCH  18  24
ATOM     24  C   UNL     1      -5.356   0.180 -13.842  1.00  0.00     0.038 C 
BRANCH  24  25
ATOM     25  C   UNL     1      -5.456  -1.358 -13.922  1.00  0.00    -0.015 C 
ATOM     26  C   UNL     1      -6.347  -1.828 -15.073  1.00  0.00     0.007 C 
ATOM     27  C   UNL     1      -5.993  -1.908 -12.598  1.00  0.00     0.007 C 
ENDBRANCH  24  25
ENDBRANCH  18  24
ENDBRANCH  15  18
ENDBRANCH  13  14
BRANCH  13  28
ATOM     28  C   UNL     1      -6.327   2.258  -9.910  1.00  0.00     0.327 C 
ATOM     29  O   UNL     1      -7.272   2.027 -10.649  1.00  0.00    -0.250 OA
BRANCH  28  30
ATOM     30  O   UNL     1      -6.492   3.017  -8.807  1.00  0.00    -0.480 OA
ATOM     31  H   UNL     1      -7.435   2.896  -8.571  1.00  0.00     0.296 HD
ENDBRANCH  28  30
ENDBRANCH  13  28
ENDBRANCH  11  13
ENDBRANCH   8  11
ENDBRANCH   6   7
BRANCH   6  32
ATOM     32  C   UNL     1      -5.744   1.853  -4.469  1.00  0.00     0.037 C 
BRANCH  32  33
ATOM     33  C   UNL     1      -7.121   2.311  -4.968  1.00  0.00     0.026 C 
BRANCH  33  34
ATOM     34  C   UNL     1      -8.014   1.140  -5.381  1.00  0.00     0.146 C 
BRANCH  34  35
ATOM     35  N   UNL     1      -8.153   1.144  -6.831  1.00  0.00    -0.254 NA
ATOM     36  C   UNL     1      -9.273   1.502  -7.339  1.00  0.00     0.185 C 
ATOM     37  N   UNL     1      -9.411   1.514  -8.674  1.00  0.00    -0.370 N 
ATOM     38  N   UNL     1     -10.399   1.891  -6.715  1.00  0.00    -0.370 N 
ATOM     39  H   UNL     1      -8.601   1.243  -9.217  1.00  0.00     0.159 HD
ATOM     40  H   UNL     1     -10.187   1.943  -9.149  1.00  0.00     0.159 HD
ATOM     41  H   UNL     1     -11.260   2.014  -7.221  1.00  0.00     0.159 HD
ATOM     42  H   UNL     1     -10.444   1.914  -5.708  1.00  0.00     0.159 HD
ENDBRANCH  34  35
ENDBRANCH  33  34
ENDBRANCH  32  33
ENDBRANCH   6  32
ENDBRANCH   4   6
ENDBRANCH   1   2
BRANCH   1  43
ATOM     43  C   UNL     1      -1.340   3.417  -2.353  1.00  0.00     0.102 C 
ATOM     44  C   UNL     1       0.006   3.611  -1.633  1.00  0.00     0.020 C 
BRANCH  43  45
ATOM     45  C   UNL     1      -2.378   2.645  -1.533  1.00  0.00     0.225 C 
ATOM     46  O   UNL     1      -2.591   1.445  -1.681  1.00  0.00    -0.275 OA
ATOM     47  N   UNL     1      -3.135   3.404  -0.670  1.00  0.00    -0.342 N 
ATOM     48  H   UNL     1      -2.849   4.347  -0.450  1.00  0.00     0.164 HD
BRANCH  47  49
ATOM     49  C   UNL     1      -4.142   2.794   0.204  1.00  0.00     0.192 C 
BRANCH  49  50
ATOM     50  C   UNL     1      -5.515   2.861  -0.468  1.00  0.00     0.047 C 
BRANCH  50  51
ATOM     51  C   UNL     1      -6.238   1.506  -0.452  1.00  0.00     0.103 C 
BRANCH  51  52
ATOM     52  C   UNL     1      -7.701   1.632  -0.870  1.00  0.00     0.226 C 
ATOM     53  O   UNL     1      -8.077   2.632  -1.484  1.00  0.00    -0.275 OA
BRANCH  52  54
ATOM     54  N   UNL     1      -8.532   0.533  -0.582  1.00  0.00    -0.311 N 
ATOM     55  C   UNL     1      -9.243  -0.178  -1.653  1.00  0.00     0.153 C 
BRANCH  54  56
ATOM     56  C   UNL     1      -8.708   0.073   0.733  1.00  0.00     0.102 C 
ATOM     57  C   UNL     1      -8.274  -1.111   1.198  1.00  0.00     0.043 C 
BRANCH  56  58
ATOM     58  C   UNL     1      -9.387   0.934   1.772  1.00  0.00     0.268 C 
ATOM     59  O   UNL     1      -8.780   1.514   2.662  1.00  0.00    -0.268 OA
ATOM     60  N   UNL     1     -10.742   1.052   1.574  1.00  0.00    -0.339 N 
ATOM     61  H   UNL     1     -11.171   0.530   0.819  1.00  0.00     0.164 HD
BRANCH  60  62
ATOM     62  C   UNL     1     -11.584   1.890   2.427  1.00  0.00     0.168 CG0
ATOM     63  C   UNL     1     -12.511   2.763   1.591  1.00  0.00     0.041 C 
ATOM     64  G   UNL     1     -10.693   2.757   3.340  1.00  0.00     0.000 G0
ENDBRANCH  60  62
ENDBRANCH  56  58
ENDBRANCH  54  56
ENDBRANCH  52  54
ENDBRANCH  51  52
ENDBRANCH  50  51
ENDBRANCH  49  50
BRANCH  49  65
ATOM     65  C   UNL     1      -4.209   3.498   1.569  1.00  0.00     0.326 C 
ATOM     66  O   UNL     1      -5.214   3.630   2.252  1.00  0.00    -0.250 OA
BRANCH  65  67
ATOM     67  O   UNL     1      -3.044   4.047   1.977  1.00  0.00    -0.480 OA
ATOM     68  H   UNL     1      -3.206   5.013   1.906  1.00  0.00     0.296 HD
ENDBRANCH  65  67
ENDBRANCH  49  65
ENDBRANCH  47  49
ENDBRANCH  43  45
ENDBRANCH   1  43
BRANCH   1  69
ATOM     69  C   UNL     1      -0.175   3.416  -4.729  1.00  0.00    -0.001 C 
ATOM     70  C   UNL     1      -0.009   3.138  -6.034  1.00  0.00     0.001 C 
BRANCH  70  71
ATOM     71  C   UNL     1       0.969   3.737  -6.945  1.00  0.00    -0.055 C 
ATOM     72  C   UNL     1       0.643   4.907  -7.534  1.00  0.00    -0.018 C 
ATOM     73  C   UNL     1       2.272   3.011  -7.153  1.00  0.00     0.044 C 
BRANCH  72  74
ATOM     74  C   UNL     1       1.450   5.752  -8.509  1.00  0.00     0.038 C 
ATOM     75  C   UNL     1       1.030   7.212  -8.298  1.00  0.00     0.015 C 
BRANCH  74  76
ATOM     76  C   UNL     1       1.221   5.209  -9.950  1.00  0.00     0.128 C 
BRANCH  76  77
ATOM     77  O   UNL     1       0.395   6.121 -10.694  1.00  0.00    -0.381 OA
ATOM     78  C   UNL     1       0.000   5.627 -11.966  1.00  0.00     0.195 C 
ENDBRANCH  76  77
BRANCH  76  79
ATOM     79  C   UNL     1       2.527   4.837 -10.698  1.00  0.00     0.068 C 
BRANCH  79  80
ATOM     80  C   UNL     1       3.511   5.943 -10.993  1.00  0.00    -0.045 A 
ATOM     81  C   UNL     1       4.321   6.477  -9.982  1.00  0.00     0.004 A 
ATOM     82  C   UNL     1       3.610   6.475 -12.288  1.00  0.00     0.004 A 
ATOM     83  C   UNL     1       5.220   7.510 -10.261  1.00  0.00     0.000 A 
ATOM     84  C   UNL     1       4.508   7.508 -12.565  1.00  0.00     0.000 A 
ATOM     85  C   UNL     1       5.314   8.024 -11.552  1.00  0.00     0.000 A 
ENDBRANCH  79  80
ENDBRANCH  76  79
ENDBRANCH  74  76
ENDBRANCH  72  74
ENDBRANCH  70  71
ENDBRANCH   1  69
TORSDOF 17
ENDMDL
MODEL 24
REMARK VINA RESULT:    -7.683      3.486     12.630
REMARK INTER + INTRA:         -30.176
REMARK INTER:                 -22.898
REMARK INTRA:                  -7.278
REMARK UNBOUND:                -7.222
REMARK SMILES C=C1C(=O)N[C@H](C)C(=O)N[C@@H](CC(C)C)C(=O)N[C@@H](C(=O)O)[C@H](C)C(=O)N[C@@H](CCCN=C(N)N)C(=O)N[C@@H](/C=C/C(C)=C/[C@H](C)[C@H](Cc2ccccc2)OC)[C@H](C)C(=O)N[C@@H](C(=O)O)CCC(=O)N1C
REMARK SMILES IDX 39 1 38 2 37 3 36 4 28 6 27 7 25 8 26 9 23 11 24 12 19 13
REMARK SMILES IDX 18 14 16 15 17 16 11 18 10 19 8 20 9 21 12 24 13 25 14 26
REMARK SMILES IDX 15 27 20 28 21 29 22 30 29 32 30 33 31 34 32 35 33 36 34 37
REMARK SMILES IDX 35 38 57 43 58 44 59 45 60 46 61 47 62 49 66 50 67 51 68 52
REMARK SMILES IDX 69 53 70 54 71 55 2 56 1 57 3 58 4 59 5 60 6 62 7 63 63 65
REMARK SMILES IDX 64 66 65 67 40 69 41 70 42 71 44 72 43 73 45 74 46 75 47 76
REMARK SMILES IDX 55 77 56 78 48 79 49 80 50 81 54 82 51 83 53 84 52 85
REMARK H PARENT 38 5 27 10 18 17 10 22 22 31 34 39 34 40 35 41 35 42 61 48
REMARK H PARENT 5 61 65 68
REMARK Flexibility Score:  369.900
ROOT
ATOM      1  C   UNL     1     -11.881   0.585  -6.461  1.00  0.00     0.117 C 
ENDROOT
BRANCH   1   2
ATOM      2  N   UNL     1     -11.749   0.695  -5.007  1.00  0.00    -0.347 N 
ATOM      3  O   UNL     1     -11.691  -1.549  -4.527  1.00  0.00    -0.273 OA
ATOM      4  C   UNL     1     -11.572  -0.384  -4.163  1.00  0.00     0.243 C 
ATOM      5  H   UNL     1     -11.734   1.609  -4.580  1.00  0.00     0.164 HD
BRANCH   4   6
ATOM      6  C   UNL     1     -11.372   0.013  -2.678  1.00  0.00     0.171 C 
BRANCH   6   7
ATOM      7  N   UNL     1     -12.581  -0.290  -1.897  1.00  0.00    -0.344 N 
ATOM      8  C   UNL     1     -13.451   0.714  -1.530  1.00  0.00     0.226 C 
ATOM      9  O   UNL     1     -13.256   1.891  -1.809  1.00  0.00    -0.275 OA
ATOM     10  H   UNL     1     -12.742  -1.241  -1.590  1.00  0.00     0.164 HD
BRANCH   8  11
ATOM     11  C   UNL     1     -14.678   0.234  -0.776  1.00  0.00     0.109 C 
ATOM     12  C   UNL     1     -14.368  -1.070  -0.042  1.00  0.00     0.021 C 
BRANCH  11  13
ATOM     13  C   UNL     1     -15.218   1.368   0.118  1.00  0.00     0.204 C 
BRANCH  13  14
ATOM     14  N   UNL     1     -16.662   1.559  -0.044  1.00  0.00    -0.340 N 
ATOM     15  C   UNL     1     -17.205   2.407  -0.984  1.00  0.00     0.243 C 
ATOM     16  O   UNL     1     -16.515   3.020  -1.797  1.00  0.00    -0.273 OA
ATOM     17  H   UNL     1     -17.279   1.201   0.691  1.00  0.00     0.164 HD
BRANCH  15  18
ATOM     18  C   UNL     1     -18.733   2.604  -0.832  1.00  0.00     0.171 C 
BRANCH  18  19
ATOM     19  N   UNL     1     -18.922   3.668   0.153  1.00  0.00    -0.343 N 
ATOM     20  C   UNL     1     -19.915   3.606   1.111  1.00  0.00     0.242 CG0
ATOM     21  O   UNL     1     -20.768   2.722   1.098  1.00  0.00    -0.273 OA
ATOM     22  H   UNL     1     -18.313   4.478   0.133  1.00  0.00     0.164 HD
ATOM     23  G   UNL     1     -19.909   4.780   2.112  1.00  0.00     0.000 G0
ENDBRANCH  18  19
BRANCH  18  24
ATOM     24  C   UNL     1     -19.370   2.967  -2.179  1.00  0.00     0.038 C 
BRANCH  24  25
ATOM     25  C   UNL     1     -20.733   2.295  -2.449  1.00  0.00    -0.015 C 
ATOM     26  C   UNL     1     -20.706   0.790  -2.185  1.00  0.00     0.007 C 
ATOM     27  C   UNL     1     -21.157   2.557  -3.897  1.00  0.00     0.007 C 
ENDBRANCH  24  25
ENDBRANCH  18  24
ENDBRANCH  15  18
ENDBRANCH  13  14
BRANCH  13  28
ATOM     28  C   UNL     1     -14.954   1.139   1.610  1.00  0.00     0.327 C 
ATOM     29  O   UNL     1     -15.800   1.009   2.481  1.00  0.00    -0.250 OA
BRANCH  28  30
ATOM     30  O   UNL     1     -13.647   1.204   1.932  1.00  0.00    -0.480 OA
ATOM     31  H   UNL     1     -13.597   1.925   2.594  1.00  0.00     0.296 HD
ENDBRANCH  28  30
ENDBRANCH  13  28
ENDBRANCH  11  13
ENDBRANCH   8  11
ENDBRANCH   6   7
BRANCH   6  32
ATOM     32  C   UNL     1     -10.156  -0.734  -2.117  1.00  0.00     0.037 C 
BRANCH  32  33
ATOM     33  C   UNL     1      -8.928   0.177  -1.983  1.00  0.00     0.026 C 
BRANCH  33  34
ATOM     34  C   UNL     1      -8.729   0.685  -0.554  1.00  0.00     0.146 C 
BRANCH  34  35
ATOM     35  N   UNL     1      -9.649   1.789  -0.316  1.00  0.00    -0.254 NA
ATOM     36  C   UNL     1     -10.584   1.634   0.546  1.00  0.00     0.185 C 
ATOM     37  N   UNL     1     -11.434   2.647   0.778  1.00  0.00    -0.370 N 
ATOM     38  N   UNL     1     -10.867   0.558   1.302  1.00  0.00    -0.370 N 
ATOM     39  H   UNL     1     -11.280   3.498   0.253  1.00  0.00     0.159 HD
ATOM     40  H   UNL     1     -12.076   2.668   1.551  1.00  0.00     0.159 HD
ATOM     41  H   UNL     1     -11.715   0.510   1.843  1.00  0.00     0.159 HD
ATOM     42  H   UNL     1     -10.318  -0.284   1.221  1.00  0.00     0.159 HD
ENDBRANCH  34  35
ENDBRANCH  33  34
ENDBRANCH  32  33
ENDBRANCH   6  32
ENDBRANCH   4   6
ENDBRANCH   1   2
BRANCH   1  43
ATOM     43  C   UNL     1     -10.831   1.521  -7.126  1.00  0.00     0.102 C 
ATOM     44  C   UNL     1     -11.110   1.794  -8.614  1.00  0.00     0.020 C 
BRANCH  43  45
ATOM     45  C   UNL     1      -9.405   1.041  -6.839  1.00  0.00     0.225 C 
ATOM     46  O   UNL     1      -9.101  -0.146  -6.760  1.00  0.00    -0.275 OA
ATOM     47  N   UNL     1      -8.488   2.032  -6.577  1.00  0.00    -0.342 N 
ATOM     48  H   UNL     1      -8.714   2.993  -6.793  1.00  0.00     0.164 HD
BRANCH  47  49
ATOM     49  C   UNL     1      -7.078   1.723  -6.321  1.00  0.00     0.192 C 
BRANCH  49  50
ATOM     50  C   UNL     1      -6.859   1.530  -4.818  1.00  0.00     0.047 C 
BRANCH  50  51
ATOM     51  C   UNL     1      -5.409   1.151  -4.485  1.00  0.00     0.103 C 
BRANCH  51  52
ATOM     52  C   UNL     1      -5.213   0.887  -2.993  1.00  0.00     0.226 C 
ATOM     53  O   UNL     1      -5.476  -0.224  -2.531  1.00  0.00    -0.275 OA
BRANCH  52  54
ATOM     54  N   UNL     1      -4.659   1.938  -2.239  1.00  0.00    -0.311 N 
ATOM     55  C   UNL     1      -5.517   2.939  -1.592  1.00  0.00     0.153 C 
BRANCH  54  56
ATOM     56  C   UNL     1      -3.270   2.065  -2.071  1.00  0.00     0.102 C 
ATOM     57  C   UNL     1      -2.564   1.519  -1.068  1.00  0.00     0.043 C 
BRANCH  56  58
ATOM     58  C   UNL     1      -2.434   2.822  -3.076  1.00  0.00     0.268 C 
ATOM     59  O   UNL     1      -2.910   3.389  -4.051  1.00  0.00    -0.268 OA
ATOM     60  N   UNL     1      -1.100   2.863  -2.748  1.00  0.00    -0.339 N 
ATOM     61  H   UNL     1      -0.784   2.358  -1.928  1.00  0.00     0.164 HD
BRANCH  60  62
ATOM     62  C   UNL     1      -0.122   3.596  -3.551  1.00  0.00     0.168 CG0
ATOM     63  C   UNL     1       0.734   2.642  -4.375  1.00  0.00     0.041 C 
ATOM     64  G   UNL     1       0.759   4.463  -2.628  1.00  0.00     0.000 G0
ENDBRANCH  60  62
ENDBRANCH  56  58
ENDBRANCH  54  56
ENDBRANCH  52  54
ENDBRANCH  51  52
ENDBRANCH  50  51
ENDBRANCH  49  50
BRANCH  49  65
ATOM     65  C   UNL     1      -6.151   2.837  -6.831  1.00  0.00     0.326 C 
ATOM     66  O   UNL     1      -5.219   2.687  -7.608  1.00  0.00    -0.250 OA
BRANCH  65  67
ATOM     67  O   UNL     1      -6.394   4.058  -6.304  1.00  0.00    -0.480 OA
ATOM     68  H   UNL     1      -5.515   4.495  -6.318  1.00  0.00     0.296 HD
ENDBRANCH  65  67
ENDBRANCH  49  65
ENDBRANCH  47  49
ENDBRANCH  43  45
ENDBRANCH   1  43
BRANCH   1  69
ATOM     69  C   UNL     1     -13.352   0.796  -6.770  1.00  0.00    -0.001 C 
ATOM     70  C   UNL     1     -14.226  -0.111  -7.239  1.00  0.00     0.001 C 
BRANCH  70  71
ATOM     71  C   UNL     1     -15.649   0.099  -7.513  1.00  0.00    -0.055 C 
ATOM     72  C   UNL     1     -16.531  -0.239  -6.549  1.00  0.00    -0.018 C 
ATOM     73  C   UNL     1     -16.029   0.685  -8.849  1.00  0.00     0.044 C 
BRANCH  72  74
ATOM     74  C   UNL     1     -18.049  -0.132  -6.551  1.00  0.00     0.038 C 
ATOM     75  C   UNL     1     -18.414   1.138  -5.773  1.00  0.00     0.015 C 
BRANCH  74  76
ATOM     76  C   UNL     1     -18.645  -1.448  -5.971  1.00  0.00     0.128 C 
BRANCH  76  77
ATOM     77  O   UNL     1     -19.599  -1.142  -4.939  1.00  0.00    -0.381 OA
ATOM     78  C   UNL     1     -20.893  -1.678  -5.180  1.00  0.00     0.195 C 
ENDBRANCH  76  77
BRANCH  76  79
ATOM     79  C   UNL     1     -19.212  -2.410  -7.045  1.00  0.00     0.068 C 
BRANCH  79  80
ATOM     80  C   UNL     1     -18.968  -2.072  -8.496  1.00  0.00    -0.045 A 
ATOM     81  C   UNL     1     -17.845  -2.565  -9.173  1.00  0.00     0.004 A 
ATOM     82  C   UNL     1     -19.855  -1.230  -9.184  1.00  0.00     0.004 A 
ATOM     83  C   UNL     1     -17.619  -2.236 -10.511  1.00  0.00     0.000 A 
ATOM     84  C   UNL     1     -19.627  -0.901 -10.523  1.00  0.00     0.000 A 
ATOM     85  C   UNL     1     -18.511  -1.405 -11.186  1.00  0.00     0.000 A 
ENDBRANCH  79  80
ENDBRANCH  76  79
ENDBRANCH  74  76
ENDBRANCH  72  74
ENDBRANCH  70  71
ENDBRANCH   1  69
TORSDOF 17
ENDMDL
MODEL 25
REMARK VINA RESULT:    -7.671      4.456     13.274
REMARK INTER + INTRA:         -30.139
REMARK INTER:                 -24.497
REMARK INTRA:                  -5.641
REMARK UNBOUND:                -7.222
REMARK SMILES C=C1C(=O)N[C@H](C)C(=O)N[C@@H](CC(C)C)C(=O)N[C@@H](C(=O)O)[C@H](C)C(=O)N[C@@H](CCCN=C(N)N)C(=O)N[C@@H](/C=C/C(C)=C/[C@H](C)[C@H](Cc2ccccc2)OC)[C@H](C)C(=O)N[C@@H](C(=O)O)CCC(=O)N1C
REMARK SMILES IDX 39 1 38 2 37 3 36 4 28 6 27 7 25 8 26 9 23 11 24 12 19 13
REMARK SMILES IDX 18 14 16 15 17 16 11 18 10 19 8 20 9 21 12 24 13 25 14 26
REMARK SMILES IDX 15 27 20 28 21 29 22 30 29 32 30 33 31 34 32 35 33 36 34 37
REMARK SMILES IDX 35 38 57 43 58 44 59 45 60 46 61 47 62 49 66 50 67 51 68 52
REMARK SMILES IDX 69 53 70 54 71 55 2 56 1 57 3 58 4 59 5 60 6 62 7 63 63 65
REMARK SMILES IDX 64 66 65 67 40 69 41 70 42 71 44 72 43 73 45 74 46 75 47 76
REMARK SMILES IDX 55 77 56 78 48 79 49 80 50 81 54 82 51 83 53 84 52 85
REMARK H PARENT 38 5 27 10 18 17 10 22 22 31 34 39 34 40 35 41 35 42 61 48
REMARK H PARENT 5 61 65 68
REMARK Flexibility Score:  369.900
ROOT
ATOM      1  C   UNL     1      -5.815   1.838  -2.804  1.00  0.00     0.117 C 
ENDROOT
BRANCH   1   2
ATOM      2  N   UNL     1      -5.971   1.615  -4.242  1.00  0.00    -0.347 N 
ATOM      3  O   UNL     1      -4.867   3.491  -4.970  1.00  0.00    -0.273 OA
ATOM      4  C   UNL     1      -5.403   2.415  -5.214  1.00  0.00     0.243 C 
ATOM      5  H   UNL     1      -6.479   0.806  -4.565  1.00  0.00     0.164 HD
BRANCH   4   6
ATOM      6  C   UNL     1      -5.649   1.911  -6.659  1.00  0.00     0.171 C 
BRANCH   6   7
ATOM      7  N   UNL     1      -7.065   1.557  -6.845  1.00  0.00    -0.344 N 
ATOM      8  C   UNL     1      -7.428   0.535  -7.697  1.00  0.00     0.226 C 
ATOM      9  O   UNL     1      -6.610  -0.104  -8.347  1.00  0.00    -0.275 OA
ATOM     10  H   UNL     1      -7.774   2.106  -6.377  1.00  0.00     0.164 HD
BRANCH   8  11
ATOM     11  C   UNL     1      -8.920   0.256  -7.739  1.00  0.00     0.109 C 
ATOM     12  C   UNL     1      -9.497   0.268  -6.323  1.00  0.00     0.021 C 
BRANCH  11  13
ATOM     13  C   UNL     1      -9.604   1.223  -8.726  1.00  0.00     0.204 C 
BRANCH  13  14
ATOM     14  N   UNL     1      -9.314   0.882 -10.122  1.00  0.00    -0.340 N 
ATOM     15  C   UNL     1      -8.289   1.462 -10.837  1.00  0.00     0.243 C 
ATOM     16  O   UNL     1      -7.505   2.265 -10.334  1.00  0.00    -0.273 OA
ATOM     17  H   UNL     1     -10.013   0.342 -10.640  1.00  0.00     0.164 HD
BRANCH  15  18
ATOM     18  C   UNL     1      -8.305   1.104 -12.343  1.00  0.00     0.171 C 
BRANCH  18  19
ATOM     19  N   UNL     1      -9.008  -0.171 -12.463  1.00  0.00    -0.343 N 
ATOM     20  C   UNL     1      -8.614  -1.139 -13.367  1.00  0.00     0.242 CG0
ATOM     21  O   UNL     1      -7.739  -0.922 -14.202  1.00  0.00    -0.273 OA
ATOM     22  H   UNL     1      -9.812  -0.353 -11.873  1.00  0.00     0.164 HD
ATOM     23  G   UNL     1      -9.427  -2.448 -13.293  1.00  0.00     0.000 G0
ENDBRANCH  18  19
BRANCH  18  24
ATOM     24  C   UNL     1      -8.997   2.206 -13.155  1.00  0.00     0.038 C 
BRANCH  24  25
ATOM     25  C   UNL     1      -8.040   3.120 -13.948  1.00  0.00    -0.015 C 
ATOM     26  C   UNL     1      -8.478   4.585 -13.928  1.00  0.00     0.007 C 
ATOM     27  C   UNL     1      -7.943   2.632 -15.396  1.00  0.00     0.007 C 
ENDBRANCH  24  25
ENDBRANCH  18  24
ENDBRANCH  15  18
ENDBRANCH  13  14
BRANCH  13  28
ATOM     28  C   UNL     1     -11.128   1.262  -8.575  1.00  0.00     0.327 C 
ATOM     29  O   UNL     1     -11.810   2.257  -8.384  1.00  0.00    -0.250 OA
BRANCH  28  30
ATOM     30  O   UNL     1     -11.688   0.035  -8.555  1.00  0.00    -0.480 OA
ATOM     31  H   UNL     1     -11.845  -0.143  -7.605  1.00  0.00     0.296 HD
ENDBRANCH  28  30
ENDBRANCH  13  28
ENDBRANCH  11  13
ENDBRANCH   8  11
ENDBRANCH   6   7
BRANCH   6  32
ATOM     32  C   UNL     1      -5.221   2.997  -7.651  1.00  0.00     0.037 C 
BRANCH  32  33
ATOM     33  C   UNL     1      -4.025   2.561  -8.508  1.00  0.00     0.026 C 
BRANCH  33  34
ATOM     34  C   UNL     1      -3.132   1.546  -7.793  1.00  0.00     0.146 C 
BRANCH  34  35
ATOM     35  N   UNL     1      -2.178   2.264  -6.960  1.00  0.00    -0.254 NA
ATOM     36  C   UNL     1      -1.947   1.831  -5.777  1.00  0.00     0.185 C 
ATOM     37  N   UNL     1      -1.065   2.483  -5.003  1.00  0.00    -0.370 N 
ATOM     38  N   UNL     1      -2.476   0.766  -5.149  1.00  0.00    -0.370 N 
ATOM     39  H   UNL     1      -0.615   3.292  -5.410  1.00  0.00     0.159 HD
ATOM     40  H   UNL     1      -0.703   2.113  -4.140  1.00  0.00     0.159 HD
ATOM     41  H   UNL     1      -2.318   0.609  -4.167  1.00  0.00     0.159 HD
ATOM     42  H   UNL     1      -3.167   0.192  -5.606  1.00  0.00     0.159 HD
ENDBRANCH  34  35
ENDBRANCH  33  34
ENDBRANCH  32  33
ENDBRANCH   6  32
ENDBRANCH   4   6
ENDBRANCH   1   2
BRANCH   1  43
ATOM     43  C   UNL     1      -4.775   0.819  -2.255  1.00  0.00     0.102 C 
ATOM     44  C   UNL     1      -5.382  -0.219  -1.296  1.00  0.00     0.020 C 
BRANCH  43  45
ATOM     45  C   UNL     1      -3.544   1.538  -1.694  1.00  0.00     0.225 C 
ATOM     46  O   UNL     1      -2.800   2.231  -2.383  1.00  0.00    -0.275 OA
ATOM     47  N   UNL     1      -3.261   1.284  -0.372  1.00  0.00    -0.342 N 
ATOM     48  H   UNL     1      -3.956   0.842   0.213  1.00  0.00     0.164 HD
BRANCH  47  49
ATOM     49  C   UNL     1      -2.134   1.930   0.308  1.00  0.00     0.192 C 
BRANCH  49  50
ATOM     50  C   UNL     1      -1.174   0.863   0.840  1.00  0.00     0.047 C 
BRANCH  50  51
ATOM     51  C   UNL     1       0.296   1.219   0.575  1.00  0.00     0.103 C 
BRANCH  51  52
ATOM     52  C   UNL     1       1.253   0.208   1.203  1.00  0.00     0.226 C 
ATOM     53  O   UNL     1       0.977  -0.992   1.176  1.00  0.00    -0.275 OA
BRANCH  52  54
ATOM     54  N   UNL     1       2.457   0.723   1.720  1.00  0.00    -0.311 N 
ATOM     55  C   UNL     1       3.364   1.514   0.878  1.00  0.00     0.153 C 
BRANCH  54  56
ATOM     56  C   UNL     1       2.832   0.506   3.056  1.00  0.00     0.102 C 
ATOM     57  C   UNL     1       3.527  -0.556   3.496  1.00  0.00     0.043 C 
BRANCH  56  58
ATOM     58  C   UNL     1       2.504   1.518   4.128  1.00  0.00     0.268 C 
ATOM     59  O   UNL     1       1.373   1.691   4.562  1.00  0.00    -0.268 OA
ATOM     60  N   UNL     1       3.612   2.174   4.609  1.00  0.00    -0.339 N 
ATOM     61  H   UNL     1       4.513   1.981   4.189  1.00  0.00     0.164 HD
BRANCH  60  62
ATOM     62  C   UNL     1       3.528   3.151   5.694  1.00  0.00     0.168 CG0
ATOM     63  C   UNL     1       4.904   3.430   6.286  1.00  0.00     0.041 C 
ATOM     64  G   UNL     1       2.561   2.637   6.780  1.00  0.00     0.000 G0
ENDBRANCH  60  62
ENDBRANCH  56  58
ENDBRANCH  54  56
ENDBRANCH  52  54
ENDBRANCH  51  52
ENDBRANCH  50  51
ENDBRANCH  49  50
BRANCH  49  65
ATOM     65  C   UNL     1      -2.607   2.814   1.473  1.00  0.00     0.326 C 
ATOM     66  O   UNL     1      -2.994   2.411   2.560  1.00  0.00    -0.250 OA
BRANCH  65  67
ATOM     67  O   UNL     1      -2.631   4.138   1.202  1.00  0.00    -0.480 OA
ATOM     68  H   UNL     1      -2.461   4.556   2.073  1.00  0.00     0.296 HD
ENDBRANCH  65  67
ENDBRANCH  49  65
ENDBRANCH  47  49
ENDBRANCH  43  45
ENDBRANCH   1  43
BRANCH   1  69
ATOM     69  C   UNL     1      -7.216   1.841  -2.221  1.00  0.00    -0.001 C 
ATOM     70  C   UNL     1      -8.379   1.935  -2.890  1.00  0.00     0.001 C 
BRANCH  70  71
ATOM     71  C   UNL     1      -9.727   1.915  -2.318  1.00  0.00    -0.055 C 
ATOM     72  C   UNL     1     -10.375   0.732  -2.280  1.00  0.00    -0.018 C 
ATOM     73  C   UNL     1     -10.291   3.214  -1.806  1.00  0.00     0.044 C 
BRANCH  72  74
ATOM     74  C   UNL     1     -11.765   0.412  -1.747  1.00  0.00     0.038 C 
ATOM     75  C   UNL     1     -12.766   0.759  -2.856  1.00  0.00     0.015 C 
BRANCH  74  76
ATOM     76  C   UNL     1     -11.978   1.182  -0.410  1.00  0.00     0.128 C 
BRANCH  76  77
ATOM     77  O   UNL     1     -13.333   1.655  -0.328  1.00  0.00    -0.381 OA
ATOM     78  C   UNL     1     -13.919   1.488   0.957  1.00  0.00     0.195 C 
ENDBRANCH  76  77
BRANCH  76  79
ATOM     79  C   UNL     1     -11.542   0.390   0.848  1.00  0.00     0.068 C 
BRANCH  79  80
ATOM     80  C   UNL     1     -10.240   0.774   1.508  1.00  0.00    -0.045 A 
ATOM     81  C   UNL     1     -10.224   1.520   2.695  1.00  0.00     0.004 A 
ATOM     82  C   UNL     1      -9.017   0.412   0.924  1.00  0.00     0.004 A 
ATOM     83  C   UNL     1      -9.015   1.883   3.292  1.00  0.00     0.000 A 
ATOM     84  C   UNL     1      -7.808   0.777   1.522  1.00  0.00     0.000 A 
ATOM     85  C   UNL     1      -7.808   1.511   2.706  1.00  0.00     0.000 A 
ENDBRANCH  79  80
ENDBRANCH  76  79
ENDBRANCH  74  76
ENDBRANCH  72  74
ENDBRANCH  70  71
ENDBRANCH   1  69
TORSDOF 17
ENDMDL
MODEL 26
REMARK VINA RESULT:    -7.655      4.477     14.128
REMARK INTER + INTRA:         -30.092
REMARK INTER:                 -22.644
REMARK INTRA:                  -7.448
REMARK UNBOUND:                -7.222
REMARK SMILES C=C1C(=O)N[C@H](C)C(=O)N[C@@H](CC(C)C)C(=O)N[C@@H](C(=O)O)[C@H](C)C(=O)N[C@@H](CCCN=C(N)N)C(=O)N[C@@H](/C=C/C(C)=C/[C@H](C)[C@H](Cc2ccccc2)OC)[C@H](C)C(=O)N[C@@H](C(=O)O)CCC(=O)N1C
REMARK SMILES IDX 39 1 38 2 37 3 36 4 28 6 27 7 25 8 26 9 23 11 24 12 19 13
REMARK SMILES IDX 18 14 16 15 17 16 11 18 10 19 8 20 9 21 12 24 13 25 14 26
REMARK SMILES IDX 15 27 20 28 21 29 22 30 29 32 30 33 31 34 32 35 33 36 34 37
REMARK SMILES IDX 35 38 57 43 58 44 59 45 60 46 61 47 62 49 66 50 67 51 68 52
REMARK SMILES IDX 69 53 70 54 71 55 2 56 1 57 3 58 4 59 5 60 6 62 7 63 63 65
REMARK SMILES IDX 64 66 65 67 40 69 41 70 42 71 44 72 43 73 45 74 46 75 47 76
REMARK SMILES IDX 55 77 56 78 48 79 49 80 50 81 54 82 51 83 53 84 52 85
REMARK H PARENT 38 5 27 10 18 17 10 22 22 31 34 39 34 40 35 41 35 42 61 48
REMARK H PARENT 5 61 65 68
REMARK Flexibility Score:  369.900
ROOT
ATOM      1  C   UNL     1     -12.616   1.716   0.634  1.00  0.00     0.117 C 
ENDROOT
BRANCH   1   2
ATOM      2  N   UNL     1     -13.348   0.793  -0.234  1.00  0.00    -0.347 N 
ATOM      3  O   UNL     1     -13.820   2.265  -1.931  1.00  0.00    -0.273 OA
ATOM      4  C   UNL     1     -13.814   1.119  -1.493  1.00  0.00     0.243 C 
ATOM      5  H   UNL     1     -13.490  -0.160   0.066  1.00  0.00     0.164 HD
BRANCH   4   6
ATOM      6  C   UNL     1     -14.480  -0.066  -2.237  1.00  0.00     0.171 C 
BRANCH   6   7
ATOM      7  N   UNL     1     -15.903   0.216  -2.483  1.00  0.00    -0.344 N 
ATOM      8  C   UNL     1     -16.813  -0.813  -2.596  1.00  0.00     0.226 C 
ATOM      9  O   UNL     1     -16.490  -1.992  -2.522  1.00  0.00    -0.275 OA
ATOM     10  H   UNL     1     -16.197   1.175  -2.618  1.00  0.00     0.164 HD
BRANCH   8  11
ATOM     11  C   UNL     1     -18.249  -0.358  -2.794  1.00  0.00     0.109 C 
ATOM     12  C   UNL     1     -18.408   1.093  -2.342  1.00  0.00     0.021 C 
BRANCH  11  13
ATOM     13  C   UNL     1     -18.689  -0.638  -4.245  1.00  0.00     0.204 C 
BRANCH  13  14
ATOM     14  N   UNL     1     -17.548  -0.717  -5.162  1.00  0.00    -0.340 N 
ATOM     15  C   UNL     1     -17.333   0.199  -6.170  1.00  0.00     0.243 C 
ATOM     16  O   UNL     1     -18.053   1.182  -6.333  1.00  0.00    -0.273 OA
ATOM     17  H   UNL     1     -17.004  -1.583  -5.179  1.00  0.00     0.164 HD
BRANCH  15  18
ATOM     18  C   UNL     1     -16.191  -0.202  -7.136  1.00  0.00     0.171 C 
BRANCH  18  19
ATOM     19  N   UNL     1     -16.737  -0.111  -8.489  1.00  0.00    -0.343 N 
ATOM     20  C   UNL     1     -17.203  -1.223  -9.164  1.00  0.00     0.242 CG0
ATOM     21  O   UNL     1     -17.058  -2.356  -8.712  1.00  0.00    -0.273 OA
ATOM     22  H   UNL     1     -16.771   0.791  -8.952  1.00  0.00     0.164 HD
ATOM     23  G   UNL     1     -17.813  -0.919 -10.547  1.00  0.00     0.000 G0
ENDBRANCH  18  19
BRANCH  18  24
ATOM     24  C   UNL     1     -14.980   0.721  -6.955  1.00  0.00     0.038 C 
BRANCH  24  25
ATOM     25  C   UNL     1     -13.847   0.506  -7.981  1.00  0.00    -0.015 C 
ATOM     26  C   UNL     1     -12.981  -0.709  -7.649  1.00  0.00     0.007 C 
ATOM     27  C   UNL     1     -12.971   1.760  -8.051  1.00  0.00     0.007 C 
ENDBRANCH  24  25
ENDBRANCH  18  24
ENDBRANCH  15  18
ENDBRANCH  13  14
BRANCH  13  28
ATOM     28  C   UNL     1     -19.482  -1.940  -4.395  1.00  0.00     0.327 C 
ATOM     29  O   UNL     1     -19.120  -2.942  -4.992  1.00  0.00    -0.250 OA
BRANCH  28  30
ATOM     30  O   UNL     1     -20.729  -1.860  -3.887  1.00  0.00    -0.480 OA
ATOM     31  H   UNL     1     -20.935  -0.903  -3.903  1.00  0.00     0.296 HD
ENDBRANCH  28  30
ENDBRANCH  13  28
ENDBRANCH  11  13
ENDBRANCH   8  11
ENDBRANCH   6   7
BRANCH   6  32
ATOM     32  C   UNL     1     -13.735  -0.314  -3.554  1.00  0.00     0.037 C 
BRANCH  32  33
ATOM     33  C   UNL     1     -12.696  -1.438  -3.429  1.00  0.00     0.026 C 
BRANCH  33  34
ATOM     34  C   UNL     1     -11.496  -1.229  -4.353  1.00  0.00     0.146 C 
BRANCH  34  35
ATOM     35  N   UNL     1     -11.332   0.197  -4.597  1.00  0.00    -0.254 NA
ATOM     36  C   UNL     1     -10.274   0.601  -5.195  1.00  0.00     0.185 C 
ATOM     37  N   UNL     1     -10.115   1.913  -5.429  1.00  0.00    -0.370 N 
ATOM     38  N   UNL     1      -9.235  -0.120  -5.652  1.00  0.00    -0.370 N 
ATOM     39  H   UNL     1     -10.863   2.523  -5.122  1.00  0.00     0.159 HD
ATOM     40  H   UNL     1      -9.408   2.288  -6.038  1.00  0.00     0.159 HD
ATOM     41  H   UNL     1      -8.395   0.328  -5.981  1.00  0.00     0.159 HD
ATOM     42  H   UNL     1      -9.212  -1.120  -5.530  1.00  0.00     0.159 HD
ENDBRANCH  34  35
ENDBRANCH  33  34
ENDBRANCH  32  33
ENDBRANCH   6  32
ENDBRANCH   4   6
ENDBRANCH   1   2
BRANCH   1  43
ATOM     43  C   UNL     1     -11.322   1.009   1.130  1.00  0.00     0.102 C 
ATOM     44  C   UNL     1     -10.543   1.823   2.177  1.00  0.00     0.020 C 
BRANCH  43  45
ATOM     45  C   UNL     1     -10.468   0.535  -0.050  1.00  0.00     0.225 C 
ATOM     46  O   UNL     1     -10.820  -0.356  -0.818  1.00  0.00    -0.275 OA
ATOM     47  N   UNL     1      -9.221   1.109  -0.147  1.00  0.00    -0.342 N 
ATOM     48  H   UNL     1      -9.008   1.937   0.392  1.00  0.00     0.164 HD
BRANCH  47  49
ATOM     49  C   UNL     1      -8.308   0.778  -1.246  1.00  0.00     0.192 C 
BRANCH  49  50
ATOM     50  C   UNL     1      -6.866   0.770  -0.732  1.00  0.00     0.047 C 
BRANCH  50  51
ATOM     51  C   UNL     1      -6.460   2.116  -0.117  1.00  0.00     0.103 C 
BRANCH  51  52
ATOM     52  C   UNL     1      -5.170   2.659  -0.728  1.00  0.00     0.226 C 
ATOM     53  O   UNL     1      -5.227   3.437  -1.682  1.00  0.00    -0.275 OA
BRANCH  52  54
ATOM     54  N   UNL     1      -3.970   2.285  -0.095  1.00  0.00    -0.311 N 
ATOM     55  C   UNL     1      -3.187   1.139  -0.576  1.00  0.00     0.153 C 
BRANCH  54  56
ATOM     56  C   UNL     1      -3.475   2.993   1.013  1.00  0.00     0.102 C 
ATOM     57  C   UNL     1      -2.754   4.124   0.942  1.00  0.00     0.043 C 
BRANCH  56  58
ATOM     58  C   UNL     1      -3.770   2.534   2.421  1.00  0.00     0.268 C 
ATOM     59  O   UNL     1      -4.896   2.527   2.901  1.00  0.00    -0.268 OA
ATOM     60  N   UNL     1      -2.659   2.065   3.081  1.00  0.00    -0.339 N 
ATOM     61  H   UNL     1      -1.760   2.115   2.617  1.00  0.00     0.164 HD
BRANCH  60  62
ATOM     62  C   UNL     1      -2.731   1.514   4.434  1.00  0.00     0.168 CG0
ATOM     63  C   UNL     1      -1.788   2.252   5.376  1.00  0.00     0.041 C 
ATOM     64  G   UNL     1      -2.398   0.008   4.397  1.00  0.00     0.000 G0
ENDBRANCH  60  62
ENDBRANCH  56  58
ENDBRANCH  54  56
ENDBRANCH  52  54
ENDBRANCH  51  52
ENDBRANCH  50  51
ENDBRANCH  49  50
BRANCH  49  65
ATOM     65  C   UNL     1      -8.430   1.780  -2.404  1.00  0.00     0.326 C 
ATOM     66  O   UNL     1      -7.688   1.839  -3.374  1.00  0.00    -0.250 OA
BRANCH  65  67
ATOM     67  O   UNL     1      -9.423   2.686  -2.265  1.00  0.00    -0.480 OA
ATOM     68  H   UNL     1      -9.957   2.331  -1.521  1.00  0.00     0.296 HD
ENDBRANCH  65  67
ENDBRANCH  49  65
ENDBRANCH  47  49
ENDBRANCH  43  45
ENDBRANCH   1  43
BRANCH   1  69
ATOM     69  C   UNL     1     -13.617   2.218   1.659  1.00  0.00    -0.001 C 
ATOM     70  C   UNL     1     -14.776   1.640   2.020  1.00  0.00     0.001 C 
BRANCH  70  71
ATOM     71  C   UNL     1     -15.724   2.123   3.027  1.00  0.00    -0.055 C 
ATOM     72  C   UNL     1     -16.065   1.279   4.023  1.00  0.00    -0.018 C 
ATOM     73  C   UNL     1     -16.244   3.529   2.884  1.00  0.00     0.044 C 
BRANCH  72  74
ATOM     74  C   UNL     1     -17.011   1.503   5.194  1.00  0.00     0.038 C 
ATOM     75  C   UNL     1     -16.226   1.197   6.475  1.00  0.00     0.015 C 
BRANCH  74  76
ATOM     76  C   UNL     1     -18.284   0.631   4.984  1.00  0.00     0.128 C 
BRANCH  76  77
ATOM     77  O   UNL     1     -18.466  -0.249   6.106  1.00  0.00    -0.381 OA
ATOM     78  C   UNL     1     -19.112  -1.471   5.774  1.00  0.00     0.195 C 
ENDBRANCH  76  77
BRANCH  76  79
ATOM     79  C   UNL     1     -19.558   1.447   4.649  1.00  0.00     0.068 C 
BRANCH  79  80
ATOM     80  C   UNL     1     -19.599   2.186   3.333  1.00  0.00    -0.045 A 
ATOM     81  C   UNL     1     -19.390   1.514   2.121  1.00  0.00     0.004 A 
ATOM     82  C   UNL     1     -19.820   3.571   3.305  1.00  0.00     0.004 A 
ATOM     83  C   UNL     1     -19.415   2.206   0.909  1.00  0.00     0.000 A 
ATOM     84  C   UNL     1     -19.845   4.263   2.093  1.00  0.00     0.000 A 
ATOM     85  C   UNL     1     -19.644   3.581   0.895  1.00  0.00     0.000 A 
ENDBRANCH  79  80
ENDBRANCH  76  79
ENDBRANCH  74  76
ENDBRANCH  72  74
ENDBRANCH  70  71
ENDBRANCH   1  69
TORSDOF 17
ENDMDL
MODEL 27
REMARK VINA RESULT:    -7.631      2.726     12.305
REMARK INTER + INTRA:         -30.021
REMARK INTER:                 -22.552
REMARK INTRA:                  -7.469
REMARK UNBOUND:                -7.222
REMARK SMILES C=C1C(=O)N[C@H](C)C(=O)N[C@@H](CC(C)C)C(=O)N[C@@H](C(=O)O)[C@H](C)C(=O)N[C@@H](CCCN=C(N)N)C(=O)N[C@@H](/C=C/C(C)=C/[C@H](C)[C@H](Cc2ccccc2)OC)[C@H](C)C(=O)N[C@@H](C(=O)O)CCC(=O)N1C
REMARK SMILES IDX 39 1 38 2 37 3 36 4 28 6 27 7 25 8 26 9 23 11 24 12 19 13
REMARK SMILES IDX 18 14 16 15 17 16 11 18 10 19 8 20 9 21 12 24 13 25 14 26
REMARK SMILES IDX 15 27 20 28 21 29 22 30 29 32 30 33 31 34 32 35 33 36 34 37
REMARK SMILES IDX 35 38 57 43 58 44 59 45 60 46 61 47 62 49 66 50 67 51 68 52
REMARK SMILES IDX 69 53 70 54 71 55 2 56 1 57 3 58 4 59 5 60 6 62 7 63 63 65
REMARK SMILES IDX 64 66 65 67 40 69 41 70 42 71 44 72 43 73 45 74 46 75 47 76
REMARK SMILES IDX 55 77 56 78 48 79 49 80 50 81 54 82 51 83 53 84 52 85
REMARK H PARENT 38 5 27 10 18 17 10 22 22 31 34 39 34 40 35 41 35 42 61 48
REMARK H PARENT 5 61 65 68
REMARK Flexibility Score:  369.900
ROOT
ATOM      1  C   UNL     1     -10.709   0.330  -2.846  1.00  0.00     0.117 C 
ENDROOT
BRANCH   1   2
ATOM      2  N   UNL     1     -11.997   0.312  -2.152  1.00  0.00    -0.347 N 
ATOM      3  O   UNL     1     -12.212   2.575  -1.834  1.00  0.00    -0.273 OA
ATOM      4  C   UNL     1     -12.691   1.447  -1.782  1.00  0.00     0.243 C 
ATOM      5  H   UNL     1     -12.447  -0.572  -1.968  1.00  0.00     0.164 HD
BRANCH   4   6
ATOM      6  C   UNL     1     -14.071   1.152  -1.139  1.00  0.00     0.171 C 
BRANCH   6   7
ATOM      7  N   UNL     1     -15.043   0.752  -2.169  1.00  0.00    -0.344 N 
ATOM      8  C   UNL     1     -15.811   1.697  -2.814  1.00  0.00     0.226 C 
ATOM      9  O   UNL     1     -15.744   2.892  -2.554  1.00  0.00    -0.275 OA
ATOM     10  H   UNL     1     -15.175  -0.232  -2.363  1.00  0.00     0.164 HD
BRANCH   8  11
ATOM     11  C   UNL     1     -16.726   1.133  -3.887  1.00  0.00     0.109 C 
ATOM     12  C   UNL     1     -16.010   0.024  -4.659  1.00  0.00     0.021 C 
BRANCH  11  13
ATOM     13  C   UNL     1     -18.073   0.721  -3.261  1.00  0.00     0.204 C 
BRANCH  13  14
ATOM     14  N   UNL     1     -18.760   1.856  -2.636  1.00  0.00    -0.340 N 
ATOM     15  C   UNL     1     -19.017   1.922  -1.283  1.00  0.00     0.243 C 
ATOM     16  O   UNL     1     -18.634   1.059  -0.495  1.00  0.00    -0.273 OA
ATOM     17  H   UNL     1     -19.234   2.526  -3.247  1.00  0.00     0.164 HD
BRANCH  15  18
ATOM     18  C   UNL     1     -19.932   3.106  -0.885  1.00  0.00     0.171 C 
BRANCH  18  19
ATOM     19  N   UNL     1     -21.271   2.553  -0.689  1.00  0.00    -0.343 N 
ATOM     20  C   UNL     1     -22.115   2.295  -1.752  1.00  0.00     0.242 CG0
ATOM     21  O   UNL     1     -21.833   2.640  -2.897  1.00  0.00    -0.273 OA
ATOM     22  H   UNL     1     -21.596   2.358   0.251  1.00  0.00     0.164 HD
ATOM     23  G   UNL     1     -23.455   1.640  -1.356  1.00  0.00     0.000 G0
ENDBRANCH  18  19
BRANCH  18  24
ATOM     24  C   UNL     1     -19.414   3.787   0.388  1.00  0.00     0.038 C 
BRANCH  24  25
ATOM     25  C   UNL     1     -18.975   5.255   0.201  1.00  0.00    -0.015 C 
ATOM     26  C   UNL     1     -19.325   6.128   1.405  1.00  0.00     0.007 C 
ATOM     27  C   UNL     1     -19.627   5.830  -1.060  1.00  0.00     0.007 C 
ENDBRANCH  24  25
ENDBRANCH  18  24
ENDBRANCH  15  18
ENDBRANCH  13  14
BRANCH  13  28
ATOM     28  C   UNL     1     -19.045   0.103  -4.271  1.00  0.00     0.327 C 
ATOM     29  O   UNL     1     -19.359  -1.075  -4.343  1.00  0.00    -0.250 OA
BRANCH  28  30
ATOM     30  O   UNL     1     -19.469   0.981  -5.202  1.00  0.00    -0.480 OA
ATOM     31  H   UNL     1     -18.644   1.357  -5.573  1.00  0.00     0.296 HD
ENDBRANCH  28  30
ENDBRANCH  13  28
ENDBRANCH  11  13
ENDBRANCH   8  11
ENDBRANCH   6   7
BRANCH   6  32
ATOM     32  C   UNL     1     -13.909   0.052  -0.083  1.00  0.00     0.037 C 
BRANCH  32  33
ATOM     33  C   UNL     1     -14.801   0.292   1.143  1.00  0.00     0.026 C 
BRANCH  33  34
ATOM     34  C   UNL     1     -14.485   1.611   1.848  1.00  0.00     0.146 C 
BRANCH  34  35
ATOM     35  N   UNL     1     -13.166   1.514   2.457  1.00  0.00    -0.254 NA
ATOM     36  C   UNL     1     -12.258   2.341   2.092  1.00  0.00     0.185 C 
ATOM     37  N   UNL     1     -11.040   2.264   2.650  1.00  0.00    -0.370 N 
ATOM     38  N   UNL     1     -12.333   3.332   1.186  1.00  0.00    -0.370 N 
ATOM     39  H   UNL     1     -10.907   1.547   3.352  1.00  0.00     0.159 HD
ATOM     40  H   UNL     1     -10.336   2.974   2.549  1.00  0.00     0.159 HD
ATOM     41  H   UNL     1     -11.509   3.826   0.885  1.00  0.00     0.159 HD
ATOM     42  H   UNL     1     -13.186   3.496   0.676  1.00  0.00     0.159 HD
ENDBRANCH  34  35
ENDBRANCH  33  34
ENDBRANCH  32  33
ENDBRANCH   6  32
ENDBRANCH   4   6
ENDBRANCH   1   2
BRANCH   1  43
ATOM     43  C   UNL     1     -10.753  -0.713  -4.000  1.00  0.00     0.102 C 
ATOM     44  C   UNL     1      -9.431  -1.477  -4.186  1.00  0.00     0.020 C 
BRANCH  43  45
ATOM     45  C   UNL     1     -11.294  -0.086  -5.288  1.00  0.00     0.225 C 
ATOM     46  O   UNL     1     -12.077   0.860  -5.296  1.00  0.00    -0.275 OA
ATOM     47  N   UNL     1     -10.921  -0.713  -6.455  1.00  0.00    -0.342 N 
ATOM     48  H   UNL     1     -10.166  -1.385  -6.442  1.00  0.00     0.164 HD
BRANCH  47  49
ATOM     49  C   UNL     1     -11.334  -0.202  -7.765  1.00  0.00     0.192 C 
BRANCH  49  50
ATOM     50  C   UNL     1     -10.550   1.071  -8.092  1.00  0.00     0.047 C 
BRANCH  50  51
ATOM     51  C   UNL     1      -9.244   0.775  -8.841  1.00  0.00     0.103 C 
BRANCH  51  52
ATOM     52  C   UNL     1      -8.015   1.000  -7.963  1.00  0.00     0.226 C 
ATOM     53  O   UNL     1      -8.120   0.932  -6.737  1.00  0.00    -0.275 OA
BRANCH  52  54
ATOM     54  N   UNL     1      -6.794   1.203  -8.633  1.00  0.00    -0.311 N 
ATOM     55  C   UNL     1      -6.516   0.540  -9.914  1.00  0.00     0.153 C 
BRANCH  54  56
ATOM     56  C   UNL     1      -5.802   2.048  -8.108  1.00  0.00     0.102 C 
ATOM     57  C   UNL     1      -5.817   3.389  -8.182  1.00  0.00     0.043 C 
BRANCH  56  58
ATOM     58  C   UNL     1      -4.623   1.482  -7.353  1.00  0.00     0.268 C 
ATOM     59  O   UNL     1      -3.775   0.768  -7.872  1.00  0.00    -0.268 OA
ATOM     60  N   UNL     1      -4.565   1.904  -6.046  1.00  0.00    -0.339 N 
ATOM     61  H   UNL     1      -5.313   2.486  -5.689  1.00  0.00     0.164 HD
BRANCH  60  62
ATOM     62  C   UNL     1      -3.471   1.525  -5.153  1.00  0.00     0.168 CG0
ATOM     63  C   UNL     1      -3.171   2.636  -4.154  1.00  0.00     0.041 C 
ATOM     64  G   UNL     1      -2.217   1.188  -5.986  1.00  0.00     0.000 G0
ENDBRANCH  60  62
ENDBRANCH  56  58
ENDBRANCH  54  56
ENDBRANCH  52  54
ENDBRANCH  51  52
ENDBRANCH  50  51
ENDBRANCH  49  50
BRANCH  49  65
ATOM     65  C   UNL     1     -12.840   0.103  -7.806  1.00  0.00     0.326 C 
ATOM     66  O   UNL     1     -13.734  -0.730  -7.786  1.00  0.00    -0.250 OA
BRANCH  65  67
ATOM     67  O   UNL     1     -13.147   1.413  -7.929  1.00  0.00    -0.480 OA
ATOM     68  H   UNL     1     -12.499   1.858  -7.342  1.00  0.00     0.296 HD
ENDBRANCH  65  67
ENDBRANCH  49  65
ENDBRANCH  47  49
ENDBRANCH  43  45
ENDBRANCH   1  43
BRANCH   1  69
ATOM     69  C   UNL     1      -9.646   0.190  -1.772  1.00  0.00    -0.001 C 
ATOM     70  C   UNL     1      -9.789   0.394  -0.450  1.00  0.00     0.001 C 
BRANCH  70  71
ATOM     71  C   UNL     1      -8.761   0.235   0.581  1.00  0.00    -0.055 C 
ATOM     72  C   UNL     1      -7.994   1.306   0.873  1.00  0.00    -0.018 C 
ATOM     73  C   UNL     1      -8.638  -1.110   1.248  1.00  0.00     0.044 C 
BRANCH  72  74
ATOM     74  C   UNL     1      -6.866   1.436   1.886  1.00  0.00     0.038 C 
ATOM     75  C   UNL     1      -7.495   1.893   3.208  1.00  0.00     0.015 C 
BRANCH  74  76
ATOM     76  C   UNL     1      -5.784   2.396   1.311  1.00  0.00     0.128 C 
BRANCH  76  77
ATOM     77  O   UNL     1      -5.062   3.022   2.386  1.00  0.00    -0.381 OA
ATOM     78  C   UNL     1      -3.918   3.749   1.958  1.00  0.00     0.195 C 
ENDBRANCH  76  77
BRANCH  76  79
ATOM     79  C   UNL     1      -4.849   1.738   0.265  1.00  0.00     0.068 C 
BRANCH  79  80
ATOM     80  C   UNL     1      -5.448   1.326  -1.058  1.00  0.00    -0.045 A 
ATOM     81  C   UNL     1      -5.295   0.021  -1.544  1.00  0.00     0.004 A 
ATOM     82  C   UNL     1      -6.147   2.259  -1.839  1.00  0.00     0.004 A 
ATOM     83  C   UNL     1      -5.840  -0.348  -2.775  1.00  0.00     0.000 A 
ATOM     84  C   UNL     1      -6.691   1.889  -3.071  1.00  0.00     0.000 A 
ATOM     85  C   UNL     1      -6.539   0.585  -3.538  1.00  0.00     0.000 A 
ENDBRANCH  79  80
ENDBRANCH  76  79
ENDBRANCH  74  76
ENDBRANCH  72  74
ENDBRANCH  70  71
ENDBRANCH   1  69
TORSDOF 17
ENDMDL
MODEL 28
REMARK VINA RESULT:    -7.623      2.817     12.828
REMARK INTER + INTRA:         -29.996
REMARK INTER:                 -23.170
REMARK INTRA:                  -6.826
REMARK UNBOUND:                -7.222
REMARK SMILES C=C1C(=O)N[C@H](C)C(=O)N[C@@H](CC(C)C)C(=O)N[C@@H](C(=O)O)[C@H](C)C(=O)N[C@@H](CCCN=C(N)N)C(=O)N[C@@H](/C=C/C(C)=C/[C@H](C)[C@H](Cc2ccccc2)OC)[C@H](C)C(=O)N[C@@H](C(=O)O)CCC(=O)N1C
REMARK SMILES IDX 39 1 38 2 37 3 36 4 28 6 27 7 25 8 26 9 23 11 24 12 19 13
REMARK SMILES IDX 18 14 16 15 17 16 11 18 10 19 8 20 9 21 12 24 13 25 14 26
REMARK SMILES IDX 15 27 20 28 21 29 22 30 29 32 30 33 31 34 32 35 33 36 34 37
REMARK SMILES IDX 35 38 57 43 58 44 59 45 60 46 61 47 62 49 66 50 67 51 68 52
REMARK SMILES IDX 69 53 70 54 71 55 2 56 1 57 3 58 4 59 5 60 6 62 7 63 63 65
REMARK SMILES IDX 64 66 65 67 40 69 41 70 42 71 44 72 43 73 45 74 46 75 47 76
REMARK SMILES IDX 55 77 56 78 48 79 49 80 50 81 54 82 51 83 53 84 52 85
REMARK H PARENT 38 5 27 10 18 17 10 22 22 31 34 39 34 40 35 41 35 42 61 48
REMARK H PARENT 5 61 65 68
REMARK Flexibility Score:  369.900
ROOT
ATOM      1  C   UNL     1     -10.437   0.695  -2.721  1.00  0.00     0.117 C 
ENDROOT
BRANCH   1   2
ATOM      2  N   UNL     1     -11.717   0.609  -2.017  1.00  0.00    -0.347 N 
ATOM      3  O   UNL     1     -11.986   2.848  -1.583  1.00  0.00    -0.273 OA
ATOM      4  C   UNL     1     -12.436   1.707  -1.583  1.00  0.00     0.243 C 
ATOM      5  H   UNL     1     -12.143  -0.294  -1.873  1.00  0.00     0.164 HD
BRANCH   4   6
ATOM      6  C   UNL     1     -13.800   1.345  -0.944  1.00  0.00     0.171 C 
BRANCH   6   7
ATOM      7  N   UNL     1     -14.692   0.736  -1.945  1.00  0.00    -0.344 N 
ATOM      8  C   UNL     1     -15.588   1.509  -2.651  1.00  0.00     0.226 C 
ATOM      9  O   UNL     1     -15.703   2.716  -2.471  1.00  0.00    -0.275 OA
ATOM     10  H   UNL     1     -14.672  -0.268  -2.073  1.00  0.00     0.164 HD
BRANCH   8  11
ATOM     11  C   UNL     1     -16.396   0.744  -3.683  1.00  0.00     0.109 C 
ATOM     12  C   UNL     1     -15.544  -0.363  -4.304  1.00  0.00     0.021 C 
BRANCH  11  13
ATOM     13  C   UNL     1     -17.723   0.268  -3.058  1.00  0.00     0.204 C 
BRANCH  13  14
ATOM     14  N   UNL     1     -18.679   1.367  -2.889  1.00  0.00    -0.340 N 
ATOM     15  C   UNL     1     -19.370   1.583  -1.717  1.00  0.00     0.243 C 
ATOM     16  O   UNL     1     -19.189   0.904  -0.708  1.00  0.00    -0.273 OA
ATOM     17  H   UNL     1     -18.986   1.869  -3.726  1.00  0.00     0.164 HD
BRANCH  15  18
ATOM     18  C   UNL     1     -20.471   2.666  -1.838  1.00  0.00     0.171 C 
BRANCH  18  19
ATOM     19  N   UNL     1     -21.473   2.141  -2.763  1.00  0.00    -0.343 N 
ATOM     20  C   UNL     1     -21.722   2.739  -3.984  1.00  0.00     0.242 CG0
ATOM     21  O   UNL     1     -21.209   3.812  -4.291  1.00  0.00    -0.273 OA
ATOM     22  H   UNL     1     -22.008   1.320  -2.504  1.00  0.00     0.164 HD
ATOM     23  G   UNL     1     -22.757   1.999  -4.856  1.00  0.00     0.000 G0
ENDBRANCH  18  19
BRANCH  18  24
ATOM     24  C   UNL     1     -21.080   2.975  -0.465  1.00  0.00     0.038 C 
BRANCH  24  25
ATOM     25  C   UNL     1     -21.213   4.479  -0.143  1.00  0.00    -0.015 C 
ATOM     26  C   UNL     1     -20.421   5.357  -1.112  1.00  0.00     0.007 C 
ATOM     27  C   UNL     1     -20.745   4.741   1.290  1.00  0.00     0.007 C 
ENDBRANCH  24  25
ENDBRANCH  18  24
ENDBRANCH  15  18
ENDBRANCH  13  14
BRANCH  13  28
ATOM     28  C   UNL     1     -18.422  -0.819  -3.880  1.00  0.00     0.327 C 
ATOM     29  O   UNL     1     -19.065  -0.649  -4.905  1.00  0.00    -0.250 OA
BRANCH  28  30
ATOM     30  O   UNL     1     -18.371  -2.036  -3.301  1.00  0.00    -0.480 OA
ATOM     31  H   UNL     1     -18.267  -1.843  -2.346  1.00  0.00     0.296 HD
ENDBRANCH  28  30
ENDBRANCH  13  28
ENDBRANCH  11  13
ENDBRANCH   8  11
ENDBRANCH   6   7
BRANCH   6  32
ATOM     32  C   UNL     1     -13.568   0.392   0.234  1.00  0.00     0.037 C 
BRANCH  32  33
ATOM     33  C   UNL     1     -14.795   0.293   1.150  1.00  0.00     0.026 C 
BRANCH  33  34
ATOM     34  C   UNL     1     -15.067   1.594   1.906  1.00  0.00     0.146 C 
BRANCH  34  35
ATOM     35  N   UNL     1     -15.645   2.562   0.983  1.00  0.00    -0.254 NA
ATOM     36  C   UNL     1     -16.910   2.759   1.012  1.00  0.00     0.185 C 
ATOM     37  N   UNL     1     -17.452   3.652   0.170  1.00  0.00    -0.370 N 
ATOM     38  N   UNL     1     -17.837   2.182   1.797  1.00  0.00    -0.370 N 
ATOM     39  H   UNL     1     -16.815   4.138  -0.449  1.00  0.00     0.159 HD
ATOM     40  H   UNL     1     -18.397   3.987   0.248  1.00  0.00     0.159 HD
ATOM     41  H   UNL     1     -18.820   2.319   1.629  1.00  0.00     0.159 HD
ATOM     42  H   UNL     1     -17.574   1.477   2.469  1.00  0.00     0.159 HD
ENDBRANCH  34  35
ENDBRANCH  33  34
ENDBRANCH  32  33
ENDBRANCH   6  32
ENDBRANCH   4   6
ENDBRANCH   1   2
BRANCH   1  43
ATOM     43  C   UNL     1     -10.433  -0.353  -3.871  1.00  0.00     0.102 C 
ATOM     44  C   UNL     1      -9.377  -1.457  -3.690  1.00  0.00     0.020 C 
BRANCH  43  45
ATOM     45  C   UNL     1     -10.387   0.332  -5.240  1.00  0.00     0.225 C 
ATOM     46  O   UNL     1     -11.163   1.225  -5.569  1.00  0.00    -0.275 OA
ATOM     47  N   UNL     1      -9.470  -0.181  -6.129  1.00  0.00    -0.342 N 
ATOM     48  H   UNL     1      -8.746  -0.802  -5.797  1.00  0.00     0.164 HD
BRANCH  47  49
ATOM     49  C   UNL     1      -9.290   0.398  -7.463  1.00  0.00     0.192 C 
BRANCH  49  50
ATOM     50  C   UNL     1      -8.617   1.768  -7.343  1.00  0.00     0.047 C 
BRANCH  50  51
ATOM     51  C   UNL     1      -7.166   1.662  -6.854  1.00  0.00     0.103 C 
BRANCH  51  52
ATOM     52  C   UNL     1      -6.174   2.206  -7.879  1.00  0.00     0.226 C 
ATOM     53  O   UNL     1      -6.237   3.389  -8.221  1.00  0.00    -0.275 OA
BRANCH  52  54
ATOM     54  N   UNL     1      -5.179   1.316  -8.323  1.00  0.00    -0.311 N 
ATOM     55  C   UNL     1      -5.535   0.044  -8.966  1.00  0.00     0.153 C 
BRANCH  54  56
ATOM     56  C   UNL     1      -3.813   1.610  -8.173  1.00  0.00     0.102 C 
ATOM     57  C   UNL     1      -3.002   2.017  -9.163  1.00  0.00     0.043 C 
BRANCH  56  58
ATOM     58  C   UNL     1      -3.146   1.526  -6.821  1.00  0.00     0.268 C 
ATOM     59  O   UNL     1      -3.563   0.822  -5.911  1.00  0.00    -0.268 OA
ATOM     60  N   UNL     1      -1.992   2.269  -6.741  1.00  0.00    -0.339 N 
ATOM     61  H   UNL     1      -1.720   2.834  -7.536  1.00  0.00     0.164 HD
BRANCH  60  62
ATOM     62  C   UNL     1      -1.155   2.281  -5.542  1.00  0.00     0.168 CG0
ATOM     63  C   UNL     1       0.009   3.252  -5.697  1.00  0.00     0.041 C 
ATOM     64  G   UNL     1      -0.642   0.855  -5.254  1.00  0.00     0.000 G0
ENDBRANCH  60  62
ENDBRANCH  56  58
ENDBRANCH  54  56
ENDBRANCH  52  54
ENDBRANCH  51  52
ENDBRANCH  50  51
ENDBRANCH  49  50
BRANCH  49  65
ATOM     65  C   UNL     1     -10.630   0.553  -8.199  1.00  0.00     0.326 C 
ATOM     66  O   UNL     1     -11.357  -0.364  -8.552  1.00  0.00    -0.250 OA
BRANCH  65  67
ATOM     67  O   UNL     1     -10.960   1.826  -8.508  1.00  0.00    -0.480 OA
ATOM     68  H   UNL     1     -11.004   1.823  -9.489  1.00  0.00     0.296 HD
ENDBRANCH  65  67
ENDBRANCH  49  65
ENDBRANCH  47  49
ENDBRANCH  43  45
ENDBRANCH   1  43
BRANCH   1  69
ATOM     69  C   UNL     1      -9.360   0.616  -1.653  1.00  0.00    -0.001 C 
ATOM     70  C   UNL     1      -9.524   0.347  -0.346  1.00  0.00     0.001 C 
BRANCH  70  71
ATOM     71  C   UNL     1      -8.475   0.253   0.671  1.00  0.00    -0.055 C 
ATOM     72  C   UNL     1      -7.847   1.392   1.032  1.00  0.00    -0.018 C 
ATOM     73  C   UNL     1      -8.175  -1.107   1.247  1.00  0.00     0.044 C 
BRANCH  72  74
ATOM     74  C   UNL     1      -6.736   1.597   2.051  1.00  0.00     0.038 C 
ATOM     75  C   UNL     1      -7.377   2.205   3.305  1.00  0.00     0.015 C 
BRANCH  74  76
ATOM     76  C   UNL     1      -5.617   2.465   1.404  1.00  0.00     0.128 C 
BRANCH  76  77
ATOM     77  O   UNL     1      -4.892   3.172   2.424  1.00  0.00    -0.381 OA
ATOM     78  C   UNL     1      -3.686   3.765   1.960  1.00  0.00     0.195 C 
ENDBRANCH  76  77
BRANCH  76  79
ATOM     79  C   UNL     1      -4.688   1.680   0.443  1.00  0.00     0.068 C 
BRANCH  79  80
ATOM     80  C   UNL     1      -5.218   1.338  -0.929  1.00  0.00    -0.045 A 
ATOM     81  C   UNL     1      -5.240   0.013  -1.384  1.00  0.00     0.004 A 
ATOM     82  C   UNL     1      -5.672   2.352  -1.785  1.00  0.00     0.004 A 
ATOM     83  C   UNL     1      -5.718  -0.294  -2.660  1.00  0.00     0.000 A 
ATOM     84  C   UNL     1      -6.149   2.044  -3.061  1.00  0.00     0.000 A 
ATOM     85  C   UNL     1      -6.174   0.721  -3.497  1.00  0.00     0.000 A 
ENDBRANCH  79  80
ENDBRANCH  76  79
ENDBRANCH  74  76
ENDBRANCH  72  74
ENDBRANCH  70  71
ENDBRANCH   1  69
TORSDOF 17
ENDMDL
MODEL 29
REMARK VINA RESULT:    -7.620      3.509     14.204
REMARK INTER + INTRA:         -29.989
REMARK INTER:                 -22.720
REMARK INTRA:                  -7.269
REMARK UNBOUND:                -7.222
REMARK SMILES C=C1C(=O)N[C@H](C)C(=O)N[C@@H](CC(C)C)C(=O)N[C@@H](C(=O)O)[C@H](C)C(=O)N[C@@H](CCCN=C(N)N)C(=O)N[C@@H](/C=C/C(C)=C/[C@H](C)[C@H](Cc2ccccc2)OC)[C@H](C)C(=O)N[C@@H](C(=O)O)CCC(=O)N1C
REMARK SMILES IDX 39 1 38 2 37 3 36 4 28 6 27 7 25 8 26 9 23 11 24 12 19 13
REMARK SMILES IDX 18 14 16 15 17 16 11 18 10 19 8 20 9 21 12 24 13 25 14 26
REMARK SMILES IDX 15 27 20 28 21 29 22 30 29 32 30 33 31 34 32 35 33 36 34 37
REMARK SMILES IDX 35 38 57 43 58 44 59 45 60 46 61 47 62 49 66 50 67 51 68 52
REMARK SMILES IDX 69 53 70 54 71 55 2 56 1 57 3 58 4 59 5 60 6 62 7 63 63 65
REMARK SMILES IDX 64 66 65 67 40 69 41 70 42 71 44 72 43 73 45 74 46 75 47 76
REMARK SMILES IDX 55 77 56 78 48 79 49 80 50 81 54 82 51 83 53 84 52 85
REMARK H PARENT 38 5 27 10 18 17 10 22 22 31 34 39 34 40 35 41 35 42 61 48
REMARK H PARENT 5 61 65 68
REMARK Flexibility Score:  369.900
ROOT
ATOM      1  C   UNL     1     -12.033   1.261   0.245  1.00  0.00     0.117 C 
ENDROOT
BRANCH   1   2
ATOM      2  N   UNL     1     -12.306   0.460  -0.950  1.00  0.00    -0.347 N 
ATOM      3  O   UNL     1     -13.794   1.892  -1.953  1.00  0.00    -0.273 OA
ATOM      4  C   UNL     1     -13.098   0.883  -2.000  1.00  0.00     0.243 C 
ATOM      5  H   UNL     1     -11.860  -0.438  -1.055  1.00  0.00     0.164 HD
BRANCH   4   6
ATOM      6  C   UNL     1     -13.154  -0.119  -3.181  1.00  0.00     0.171 C 
BRANCH   6   7
ATOM      7  N   UNL     1     -13.404   0.591  -4.446  1.00  0.00    -0.344 N 
ATOM      8  C   UNL     1     -14.615   0.469  -5.092  1.00  0.00     0.226 C 
ATOM      9  O   UNL     1     -15.521  -0.239  -4.669  1.00  0.00    -0.275 OA
ATOM     10  H   UNL     1     -12.656   1.132  -4.861  1.00  0.00     0.164 HD
BRANCH   8  11
ATOM     11  C   UNL     1     -14.738   1.305  -6.354  1.00  0.00     0.109 C 
ATOM     12  C   UNL     1     -13.360   1.515  -6.982  1.00  0.00     0.021 C 
BRANCH  11  13
ATOM     13  C   UNL     1     -15.789   0.681  -7.293  1.00  0.00     0.204 C 
BRANCH  13  14
ATOM     14  N   UNL     1     -17.117   0.624  -6.674  1.00  0.00    -0.340 N 
ATOM     15  C   UNL     1     -18.041  -0.353  -6.973  1.00  0.00     0.243 C 
ATOM     16  O   UNL     1     -17.794  -1.284  -7.737  1.00  0.00    -0.273 OA
ATOM     17  H   UNL     1     -17.439   1.444  -6.152  1.00  0.00     0.164 HD
BRANCH  15  18
ATOM     18  C   UNL     1     -19.439  -0.091  -6.359  1.00  0.00     0.171 C 
BRANCH  18  19
ATOM     19  N   UNL     1     -20.255   0.503  -7.416  1.00  0.00    -0.343 N 
ATOM     20  C   UNL     1     -20.101   1.821  -7.801  1.00  0.00     0.242 CG0
ATOM     21  O   UNL     1     -19.366   2.589  -7.186  1.00  0.00    -0.273 OA
ATOM     22  H   UNL     1     -20.960  -0.061  -7.877  1.00  0.00     0.164 HD
ATOM     23  G   UNL     1     -20.995   2.247  -8.984  1.00  0.00     0.000 G0
ENDBRANCH  18  19
BRANCH  18  24
ATOM     24  C   UNL     1     -20.055  -1.396  -5.840  1.00  0.00     0.038 C 
BRANCH  24  25
ATOM     25  C   UNL     1     -20.174  -1.486  -4.304  1.00  0.00    -0.015 C 
ATOM     26  C   UNL     1     -20.793  -0.230  -3.690  1.00  0.00     0.007 C 
ATOM     27  C   UNL     1     -18.791  -1.731  -3.694  1.00  0.00     0.007 C 
ENDBRANCH  24  25
ENDBRANCH  18  24
ENDBRANCH  15  18
ENDBRANCH  13  14
BRANCH  13  28
ATOM     28  C   UNL     1     -15.938   1.434  -8.618  1.00  0.00     0.327 C 
ATOM     29  O   UNL     1     -15.411   1.139  -9.680  1.00  0.00    -0.250 OA
BRANCH  28  30
ATOM     30  O   UNL     1     -16.643   2.577  -8.500  1.00  0.00    -0.480 OA
ATOM     31  H   UNL     1     -16.144   3.225  -9.041  1.00  0.00     0.296 HD
ENDBRANCH  28  30
ENDBRANCH  13  28
ENDBRANCH  11  13
ENDBRANCH   8  11
ENDBRANCH   6   7
BRANCH   6  32
ATOM     32  C   UNL     1     -11.836  -0.898  -3.243  1.00  0.00     0.037 C 
BRANCH  32  33
ATOM     33  C   UNL     1     -11.359  -1.117  -4.685  1.00  0.00     0.026 C 
BRANCH  33  34
ATOM     34  C   UNL     1      -9.907  -0.683  -4.894  1.00  0.00     0.146 C 
BRANCH  34  35
ATOM     35  N   UNL     1      -9.711  -0.361  -6.300  1.00  0.00    -0.254 NA
ATOM     36  C   UNL     1      -9.704   0.870  -6.654  1.00  0.00     0.185 C 
ATOM     37  N   UNL     1      -9.519   1.178  -7.947  1.00  0.00    -0.370 N 
ATOM     38  N   UNL     1      -9.861   1.968  -5.894  1.00  0.00    -0.370 N 
ATOM     39  H   UNL     1      -9.382   0.403  -8.583  1.00  0.00     0.159 HD
ATOM     40  H   UNL     1      -9.328   2.109  -8.275  1.00  0.00     0.159 HD
ATOM     41  H   UNL     1      -9.976   2.878  -6.310  1.00  0.00     0.159 HD
ATOM     42  H   UNL     1     -10.025   1.886  -4.902  1.00  0.00     0.159 HD
ENDBRANCH  34  35
ENDBRANCH  33  34
ENDBRANCH  32  33
ENDBRANCH   6  32
ENDBRANCH   4   6
ENDBRANCH   1   2
BRANCH   1  43
ATOM     43  C   UNL     1     -10.775   0.680   0.953  1.00  0.00     0.102 C 
ATOM     44  C   UNL     1     -10.338   1.490   2.185  1.00  0.00     0.020 C 
BRANCH  43  45
ATOM     45  C   UNL     1      -9.649   0.421  -0.052  1.00  0.00     0.225 C 
ATOM     46  O   UNL     1      -9.385  -0.695  -0.491  1.00  0.00    -0.275 OA
ATOM     47  N   UNL     1      -8.875   1.514  -0.369  1.00  0.00    -0.342 N 
ATOM     48  H   UNL     1      -9.193   2.441  -0.123  1.00  0.00     0.164 HD
BRANCH  47  49
ATOM     49  C   UNL     1      -7.784   1.423  -1.343  1.00  0.00     0.192 C 
BRANCH  49  50
ATOM     50  C   UNL     1      -6.636   2.343  -0.918  1.00  0.00     0.047 C 
BRANCH  50  51
ATOM     51  C   UNL     1      -5.460   1.565  -0.312  1.00  0.00     0.103 C 
BRANCH  51  52
ATOM     52  C   UNL     1      -4.123   1.975  -0.925  1.00  0.00     0.226 C 
ATOM     53  O   UNL     1      -3.227   2.410  -0.199  1.00  0.00    -0.275 OA
BRANCH  52  54
ATOM     54  N   UNL     1      -3.973   1.754  -2.307  1.00  0.00    -0.311 N 
ATOM     55  C   UNL     1      -4.179   0.420  -2.886  1.00  0.00     0.153 C 
BRANCH  54  56
ATOM     56  C   UNL     1      -3.628   2.797  -3.182  1.00  0.00     0.102 C 
ATOM     57  C   UNL     1      -4.490   3.699  -3.680  1.00  0.00     0.043 C 
BRANCH  56  58
ATOM     58  C   UNL     1      -2.194   3.012  -3.605  1.00  0.00     0.268 C 
ATOM     59  O   UNL     1      -1.875   3.384  -4.726  1.00  0.00    -0.268 OA
ATOM     60  N   UNL     1      -1.294   2.810  -2.586  1.00  0.00    -0.339 N 
ATOM     61  H   UNL     1      -1.639   2.492  -1.688  1.00  0.00     0.164 HD
BRANCH  60  62
ATOM     62  C   UNL     1       0.142   3.024  -2.760  1.00  0.00     0.168 CG0
ATOM     63  C   UNL     1       0.644   4.139  -1.851  1.00  0.00     0.041 C 
ATOM     64  G   UNL     1       0.440   3.349  -4.239  1.00  0.00     0.000 G0
ENDBRANCH  60  62
ENDBRANCH  56  58
ENDBRANCH  54  56
ENDBRANCH  52  54
ENDBRANCH  51  52
ENDBRANCH  50  51
ENDBRANCH  49  50
BRANCH  49  65
ATOM     65  C   UNL     1      -8.251   1.812  -2.755  1.00  0.00     0.326 C 
ATOM     66  O   UNL     1      -7.561   1.786  -3.764  1.00  0.00    -0.250 OA
BRANCH  65  67
ATOM     67  O   UNL     1      -9.522   2.265  -2.823  1.00  0.00    -0.480 OA
ATOM     68  H   UNL     1      -9.526   3.035  -2.215  1.00  0.00     0.296 HD
ENDBRANCH  65  67
ENDBRANCH  49  65
ENDBRANCH  47  49
ENDBRANCH  43  45
ENDBRANCH   1  43
BRANCH   1  69
ATOM     69  C   UNL     1     -13.340   1.334   1.014  1.00  0.00    -0.001 C 
ATOM     70  C   UNL     1     -13.771   2.337   1.798  1.00  0.00     0.001 C 
BRANCH  70  71
ATOM     71  C   UNL     1     -15.044   2.406   2.518  1.00  0.00    -0.055 C 
ATOM     72  C   UNL     1     -15.674   3.598   2.568  1.00  0.00    -0.018 C 
ATOM     73  C   UNL     1     -15.565   1.139   3.146  1.00  0.00     0.044 C 
BRANCH  72  74
ATOM     74  C   UNL     1     -16.993   3.964   3.233  1.00  0.00     0.038 C 
ATOM     75  C   UNL     1     -16.894   3.536   4.702  1.00  0.00     0.015 C 
BRANCH  74  76
ATOM     76  C   UNL     1     -18.156   3.301   2.437  1.00  0.00     0.128 C 
BRANCH  76  77
ATOM     77  O   UNL     1     -19.349   3.280   3.238  1.00  0.00    -0.381 OA
ATOM     78  C   UNL     1     -20.239   2.221   2.909  1.00  0.00     0.195 C 
ENDBRANCH  76  77
BRANCH  76  79
ATOM     79  C   UNL     1     -18.387   3.915   1.033  1.00  0.00     0.068 C 
BRANCH  79  80
ATOM     80  C   UNL     1     -18.149   3.036  -0.171  1.00  0.00    -0.045 A 
ATOM     81  C   UNL     1     -18.738   3.330  -1.408  1.00  0.00     0.004 A 
ATOM     82  C   UNL     1     -17.349   1.888  -0.061  1.00  0.00     0.004 A 
ATOM     83  C   UNL     1     -18.524   2.504  -2.513  1.00  0.00     0.000 A 
ATOM     84  C   UNL     1     -17.136   1.063  -1.167  1.00  0.00     0.000 A 
ATOM     85  C   UNL     1     -17.722   1.371  -2.393  1.00  0.00     0.000 A 
ENDBRANCH  79  80
ENDBRANCH  76  79
ENDBRANCH  74  76
ENDBRANCH  72  74
ENDBRANCH  70  71
ENDBRANCH   1  69
TORSDOF 17
ENDMDL
MODEL 30
REMARK VINA RESULT:    -7.576      4.725      9.928
REMARK INTER + INTRA:         -29.858
REMARK INTER:                 -23.413
REMARK INTRA:                  -6.444
REMARK UNBOUND:                -7.222
REMARK SMILES C=C1C(=O)N[C@H](C)C(=O)N[C@@H](CC(C)C)C(=O)N[C@@H](C(=O)O)[C@H](C)C(=O)N[C@@H](CCCN=C(N)N)C(=O)N[C@@H](/C=C/C(C)=C/[C@H](C)[C@H](Cc2ccccc2)OC)[C@H](C)C(=O)N[C@@H](C(=O)O)CCC(=O)N1C
REMARK SMILES IDX 39 1 38 2 37 3 36 4 28 6 27 7 25 8 26 9 23 11 24 12 19 13
REMARK SMILES IDX 18 14 16 15 17 16 11 18 10 19 8 20 9 21 12 24 13 25 14 26
REMARK SMILES IDX 15 27 20 28 21 29 22 30 29 32 30 33 31 34 32 35 33 36 34 37
REMARK SMILES IDX 35 38 57 43 58 44 59 45 60 46 61 47 62 49 66 50 67 51 68 52
REMARK SMILES IDX 69 53 70 54 71 55 2 56 1 57 3 58 4 59 5 60 6 62 7 63 63 65
REMARK SMILES IDX 64 66 65 67 40 69 41 70 42 71 44 72 43 73 45 74 46 75 47 76
REMARK SMILES IDX 55 77 56 78 48 79 49 80 50 81 54 82 51 83 53 84 52 85
REMARK H PARENT 38 5 27 10 18 17 10 22 22 31 34 39 34 40 35 41 35 42 61 48
REMARK H PARENT 5 61 65 68
REMARK Flexibility Score:  369.900
ROOT
ATOM      1  C   UNL     1     -12.868  -0.103  -5.975  1.00  0.00     0.117 C 
ENDROOT
BRANCH   1   2
ATOM      2  N   UNL     1     -12.020   0.732  -5.124  1.00  0.00    -0.347 N 
ATOM      3  O   UNL     1     -10.374  -0.814  -4.711  1.00  0.00    -0.273 OA
ATOM      4  C   UNL     1     -10.791   0.337  -4.632  1.00  0.00     0.243 C 
ATOM      5  H   UNL     1     -12.309   1.675  -4.910  1.00  0.00     0.164 HD
BRANCH   4   6
ATOM      6  C   UNL     1     -10.057   1.441  -3.829  1.00  0.00     0.171 C 
BRANCH   6   7
ATOM      7  N   UNL     1     -10.008   1.090  -2.400  1.00  0.00    -0.344 N 
ATOM      8  C   UNL     1     -10.275   2.036  -1.435  1.00  0.00     0.226 C 
ATOM      9  O   UNL     1     -10.541   3.200  -1.707  1.00  0.00    -0.275 OA
ATOM     10  H   UNL     1      -9.726   0.154  -2.134  1.00  0.00     0.164 HD
BRANCH   8  11
ATOM     11  C   UNL     1     -10.237   1.505  -0.012  1.00  0.00     0.109 C 
ATOM     12  C   UNL     1     -11.546   0.786   0.316  1.00  0.00     0.021 C 
BRANCH  11  13
ATOM     13  C   UNL     1      -8.964   0.662   0.196  1.00  0.00     0.204 C 
BRANCH  13  14
ATOM     14  N   UNL     1      -7.773   1.497   0.383  1.00  0.00    -0.340 N 
ATOM     15  C   UNL     1      -6.556   1.203  -0.191  1.00  0.00     0.243 C 
ATOM     16  O   UNL     1      -6.397   0.250  -0.953  1.00  0.00    -0.273 OA
ATOM     17  H   UNL     1      -7.797   2.209   1.118  1.00  0.00     0.164 HD
BRANCH  15  18
ATOM     18  C   UNL     1      -5.401   2.103   0.312  1.00  0.00     0.171 C 
BRANCH  18  19
ATOM     19  N   UNL     1      -5.535   2.183   1.765  1.00  0.00    -0.343 N 
ATOM     20  C   UNL     1      -5.057   3.262   2.483  1.00  0.00     0.242 CG0
ATOM     21  O   UNL     1      -4.381   4.140   1.952  1.00  0.00    -0.273 OA
ATOM     22  H   UNL     1      -5.986   1.425   2.265  1.00  0.00     0.164 HD
ATOM     23  G   UNL     1      -5.361   3.206   3.995  1.00  0.00     0.000 G0
ENDBRANCH  18  19
BRANCH  18  24
ATOM     24  C   UNL     1      -4.042   1.520  -0.095  1.00  0.00     0.038 C 
BRANCH  24  25
ATOM     25  C   UNL     1      -3.210   2.419  -1.034  1.00  0.00    -0.015 C 
ATOM     26  C   UNL     1      -2.901   1.744  -2.370  1.00  0.00     0.007 C 
ATOM     27  C   UNL     1      -1.903   2.815  -0.342  1.00  0.00     0.007 C 
ENDBRANCH  24  25
ENDBRANCH  18  24
ENDBRANCH  15  18
ENDBRANCH  13  14
BRANCH  13  28
ATOM     28  C   UNL     1      -9.053  -0.278   1.403  1.00  0.00     0.327 C 
ATOM     29  O   UNL     1      -9.067   0.054   2.578  1.00  0.00    -0.250 OA
BRANCH  28  30
ATOM     30  O   UNL     1      -9.000  -1.582   1.062  1.00  0.00    -0.480 OA
ATOM     31  H   UNL     1      -9.525  -1.637   0.237  1.00  0.00     0.296 HD
ENDBRANCH  28  30
ENDBRANCH  13  28
ENDBRANCH  11  13
ENDBRANCH   8  11
ENDBRANCH   6   7
BRANCH   6  32
ATOM     32  C   UNL     1      -8.645   1.623  -4.397  1.00  0.00     0.037 C 
BRANCH  32  33
ATOM     33  C   UNL     1      -8.661   1.931  -5.900  1.00  0.00     0.026 C 
BRANCH  33  34
ATOM     34  C   UNL     1      -7.410   2.682  -6.357  1.00  0.00     0.146 C 
BRANCH  34  35
ATOM     35  N   UNL     1      -6.299   1.742  -6.430  1.00  0.00    -0.254 NA
ATOM     36  C   UNL     1      -5.231   2.002  -5.773  1.00  0.00     0.185 C 
ATOM     37  N   UNL     1      -4.203   1.141  -5.830  1.00  0.00    -0.370 N 
ATOM     38  N   UNL     1      -4.957   3.059  -4.989  1.00  0.00    -0.370 N 
ATOM     39  H   UNL     1      -4.336   0.311  -6.394  1.00  0.00     0.159 HD
ATOM     40  H   UNL     1      -3.408   1.182  -5.215  1.00  0.00     0.159 HD
ATOM     41  H   UNL     1      -4.028   3.220  -4.636  1.00  0.00     0.159 HD
ATOM     42  H   UNL     1      -5.634   3.796  -4.867  1.00  0.00     0.159 HD
ENDBRANCH  34  35
ENDBRANCH  33  34
ENDBRANCH  32  33
ENDBRANCH   6  32
ENDBRANCH   4   6
ENDBRANCH   1   2
BRANCH   1  43
ATOM     43  C   UNL     1     -13.080   0.629  -7.332  1.00  0.00     0.102 C 
ATOM     44  C   UNL     1     -11.849   1.425  -7.797  1.00  0.00     0.020 C 
BRANCH  43  45
ATOM     45  C   UNL     1     -14.378   1.442  -7.322  1.00  0.00     0.225 C 
ATOM     46  O   UNL     1     -14.522   2.468  -6.663  1.00  0.00    -0.275 OA
ATOM     47  N   UNL     1     -15.423   0.898  -8.033  1.00  0.00    -0.342 N 
ATOM     48  H   UNL     1     -15.247   0.146  -8.685  1.00  0.00     0.164 HD
BRANCH  47  49
ATOM     49  C   UNL     1     -16.715   1.583  -8.142  1.00  0.00     0.192 C 
BRANCH  49  50
ATOM     50  C   UNL     1     -17.757   0.855  -7.289  1.00  0.00     0.047 C 
BRANCH  50  51
ATOM     51  C   UNL     1     -17.500  -0.657  -7.221  1.00  0.00     0.103 C 
BRANCH  51  52
ATOM     52  C   UNL     1     -18.754  -1.467  -7.540  1.00  0.00     0.226 C 
ATOM     53  O   UNL     1     -19.788  -1.269  -6.900  1.00  0.00    -0.275 OA
BRANCH  52  54
ATOM     54  N   UNL     1     -18.665  -2.359  -8.625  1.00  0.00    -0.311 N 
ATOM     55  C   UNL     1     -17.599  -2.228  -9.627  1.00  0.00     0.153 C 
BRANCH  54  56
ATOM     56  C   UNL     1     -19.585  -3.409  -8.788  1.00  0.00     0.102 C 
ATOM     57  C   UNL     1     -20.724  -3.330  -9.496  1.00  0.00     0.043 C 
BRANCH  56  58
ATOM     58  C   UNL     1     -19.321  -4.770  -8.188  1.00  0.00     0.268 C 
ATOM     59  O   UNL     1     -18.403  -4.993  -7.411  1.00  0.00    -0.268 OA
ATOM     60  N   UNL     1     -20.255  -5.711  -8.553  1.00  0.00    -0.339 N 
ATOM     61  H   UNL     1     -20.980  -5.448  -9.210  1.00  0.00     0.164 HD
BRANCH  60  62
ATOM     62  C   UNL     1     -20.225  -7.079  -8.037  1.00  0.00     0.168 CG0
ATOM     63  C   UNL     1     -21.601  -7.726  -8.124  1.00  0.00     0.041 C 
ATOM     64  G   UNL     1     -19.717  -7.071  -6.580  1.00  0.00     0.000 G0
ENDBRANCH  60  62
ENDBRANCH  56  58
ENDBRANCH  54  56
ENDBRANCH  52  54
ENDBRANCH  51  52
ENDBRANCH  50  51
ENDBRANCH  49  50
BRANCH  49  65
ATOM     65  C   UNL     1     -17.202   1.646  -9.598  1.00  0.00     0.326 C 
ATOM     66  O   UNL     1     -18.182   2.261  -9.993  1.00  0.00    -0.250 OA
BRANCH  65  67
ATOM     67  O   UNL     1     -16.486   0.897 -10.465  1.00  0.00    -0.480 OA
ATOM     68  H   UNL     1     -16.879   0.002 -10.379  1.00  0.00     0.296 HD
ENDBRANCH  65  67
ENDBRANCH  49  65
ENDBRANCH  47  49
ENDBRANCH  43  45
ENDBRANCH   1  43
BRANCH   1  69
ATOM     69  C   UNL     1     -14.083  -0.464  -5.140  1.00  0.00    -0.001 C 
ATOM     70  C   UNL     1     -14.140  -0.616  -3.805  1.00  0.00     0.001 C 
BRANCH  70  71
ATOM     71  C   UNL     1     -15.323  -0.945  -3.007  1.00  0.00    -0.055 C 
ATOM     72  C   UNL     1     -16.503  -0.408  -3.384  1.00  0.00    -0.018 C 
ATOM     73  C   UNL     1     -15.142  -1.864  -1.828  1.00  0.00     0.044 C 
BRANCH  72  74
ATOM     74  C   UNL     1     -17.880  -0.573  -2.757  1.00  0.00     0.038 C 
ATOM     75  C   UNL     1     -18.698  -1.475  -3.689  1.00  0.00     0.015 C 
BRANCH  74  76
ATOM     76  C   UNL     1     -18.491   0.839  -2.513  1.00  0.00     0.128 C 
BRANCH  76  77
ATOM     77  O   UNL     1     -19.530   0.760  -1.522  1.00  0.00    -0.381 OA
ATOM     78  C   UNL     1     -20.718   1.450  -1.884  1.00  0.00     0.195 C 
ENDBRANCH  76  77
BRANCH  76  79
ATOM     79  C   UNL     1     -17.441   1.933  -2.195  1.00  0.00     0.068 C 
BRANCH  79  80
ATOM     80  C   UNL     1     -17.053   2.142  -0.751  1.00  0.00    -0.045 A 
ATOM     81  C   UNL     1     -17.622   3.173   0.008  1.00  0.00     0.004 A 
ATOM     82  C   UNL     1     -16.089   1.317  -0.152  1.00  0.00     0.004 A 
ATOM     83  C   UNL     1     -17.247   3.369   1.339  1.00  0.00     0.000 A 
ATOM     84  C   UNL     1     -15.714   1.514   1.179  1.00  0.00     0.000 A 
ATOM     85  C   UNL     1     -16.294   2.538   1.924  1.00  0.00     0.000 A 
ENDBRANCH  79  80
ENDBRANCH  76  79
ENDBRANCH  74  76
ENDBRANCH  72  74
ENDBRANCH  70  71
ENDBRANCH   1  69
TORSDOF 17
ENDMDL
MODEL 31
REMARK VINA RESULT:    -7.556      4.541     14.299
REMARK INTER + INTRA:         -29.797
REMARK INTER:                 -24.126
REMARK INTRA:                  -5.671
REMARK UNBOUND:                -7.222
REMARK SMILES C=C1C(=O)N[C@H](C)C(=O)N[C@@H](CC(C)C)C(=O)N[C@@H](C(=O)O)[C@H](C)C(=O)N[C@@H](CCCN=C(N)N)C(=O)N[C@@H](/C=C/C(C)=C/[C@H](C)[C@H](Cc2ccccc2)OC)[C@H](C)C(=O)N[C@@H](C(=O)O)CCC(=O)N1C
REMARK SMILES IDX 39 1 38 2 37 3 36 4 28 6 27 7 25 8 26 9 23 11 24 12 19 13
REMARK SMILES IDX 18 14 16 15 17 16 11 18 10 19 8 20 9 21 12 24 13 25 14 26
REMARK SMILES IDX 15 27 20 28 21 29 22 30 29 32 30 33 31 34 32 35 33 36 34 37
REMARK SMILES IDX 35 38 57 43 58 44 59 45 60 46 61 47 62 49 66 50 67 51 68 52
REMARK SMILES IDX 69 53 70 54 71 55 2 56 1 57 3 58 4 59 5 60 6 62 7 63 63 65
REMARK SMILES IDX 64 66 65 67 40 69 41 70 42 71 44 72 43 73 45 74 46 75 47 76
REMARK SMILES IDX 55 77 56 78 48 79 49 80 50 81 54 82 51 83 53 84 52 85
REMARK H PARENT 38 5 27 10 18 17 10 22 22 31 34 39 34 40 35 41 35 42 61 48
REMARK H PARENT 5 61 65 68
REMARK Flexibility Score:  369.900
ROOT
ATOM      1  C   UNL     1      -1.827   2.784  -1.045  1.00  0.00     0.117 C 
ENDROOT
BRANCH   1   2
ATOM      2  N   UNL     1      -3.072   2.023  -0.938  1.00  0.00    -0.347 N 
ATOM      3  O   UNL     1      -4.092   3.316   0.662  1.00  0.00    -0.273 OA
ATOM      4  C   UNL     1      -4.146   2.404  -0.156  1.00  0.00     0.243 C 
ATOM      5  H   UNL     1      -3.194   1.193  -1.498  1.00  0.00     0.164 HD
BRANCH   4   6
ATOM      6  C   UNL     1      -5.375   1.468  -0.288  1.00  0.00     0.171 C 
BRANCH   6   7
ATOM      7  N   UNL     1      -6.347   1.743   0.782  1.00  0.00    -0.344 N 
ATOM      8  C   UNL     1      -7.142   0.735   1.284  1.00  0.00     0.226 C 
ATOM      9  O   UNL     1      -7.099  -0.414   0.860  1.00  0.00    -0.275 OA
ATOM     10  H   UNL     1      -6.459   2.693   1.112  1.00  0.00     0.164 HD
BRANCH   8  11
ATOM     11  C   UNL     1      -8.053   1.165   2.421  1.00  0.00     0.109 C 
ATOM     12  C   UNL     1      -7.382   2.264   3.246  1.00  0.00     0.021 C 
BRANCH  11  13
ATOM     13  C   UNL     1      -9.444   1.529   1.865  1.00  0.00     0.204 C 
BRANCH  13  14
ATOM     14  N   UNL     1      -9.840   0.657   0.755  1.00  0.00    -0.340 N 
ATOM     15  C   UNL     1      -9.928   1.098  -0.548  1.00  0.00     0.243 C 
ATOM     16  O   UNL     1      -9.622   2.241  -0.880  1.00  0.00    -0.273 OA
ATOM     17  H   UNL     1     -10.250  -0.253   0.981  1.00  0.00     0.164 HD
BRANCH  15  18
ATOM     18  C   UNL     1     -10.563   0.063  -1.509  1.00  0.00     0.171 C 
BRANCH  18  19
ATOM     19  N   UNL     1     -11.915   0.536  -1.800  1.00  0.00    -0.343 N 
ATOM     20  C   UNL     1     -12.960   0.343  -0.916  1.00  0.00     0.242 CG0
ATOM     21  O   UNL     1     -12.831  -0.348   0.091  1.00  0.00    -0.273 OA
ATOM     22  H   UNL     1     -12.098   1.014  -2.675  1.00  0.00     0.164 HD
ATOM     23  G   UNL     1     -14.293   0.980  -1.358  1.00  0.00     0.000 G0
ENDBRANCH  18  19
BRANCH  18  24
ATOM     24  C   UNL     1      -9.728  -0.071  -2.789  1.00  0.00     0.038 C 
BRANCH  24  25
ATOM     25  C   UNL     1     -10.406   0.478  -4.062  1.00  0.00    -0.015 C 
ATOM     26  C   UNL     1     -10.367  -0.518  -5.221  1.00  0.00     0.007 C 
ATOM     27  C   UNL     1      -9.731   1.786  -4.482  1.00  0.00     0.007 C 
ENDBRANCH  24  25
ENDBRANCH  18  24
ENDBRANCH  15  18
ENDBRANCH  13  14
BRANCH  13  28
ATOM     28  C   UNL     1     -10.553   1.454   2.919  1.00  0.00     0.327 C 
ATOM     29  O   UNL     1     -10.402   1.255   4.114  1.00  0.00    -0.250 OA
BRANCH  28  30
ATOM     30  O   UNL     1     -11.791   1.514   2.388  1.00  0.00    -0.480 OA
ATOM     31  H   UNL     1     -12.052   2.453   2.489  1.00  0.00     0.296 HD
ENDBRANCH  28  30
ENDBRANCH  13  28
ENDBRANCH  11  13
ENDBRANCH   8  11
ENDBRANCH   6   7
BRANCH   6  32
ATOM     32  C   UNL     1      -6.011   1.665  -1.669  1.00  0.00     0.037 C 
BRANCH  32  33
ATOM     33  C   UNL     1      -6.180   0.338  -2.423  1.00  0.00     0.026 C 
BRANCH  33  34
ATOM     34  C   UNL     1      -5.908   0.478  -3.921  1.00  0.00     0.146 C 
BRANCH  34  35
ATOM     35  N   UNL     1      -6.160   1.857  -4.317  1.00  0.00    -0.254 NA
ATOM     36  C   UNL     1      -5.823   2.228  -5.496  1.00  0.00     0.185 C 
ATOM     37  N   UNL     1      -6.055   3.495  -5.874  1.00  0.00    -0.370 N 
ATOM     38  N   UNL     1      -5.241   1.512  -6.474  1.00  0.00    -0.370 N 
ATOM     39  H   UNL     1      -6.502   4.097  -5.194  1.00  0.00     0.159 HD
ATOM     40  H   UNL     1      -5.982   3.814  -6.824  1.00  0.00     0.159 HD
ATOM     41  H   UNL     1      -4.898   1.954  -7.310  1.00  0.00     0.159 HD
ATOM     42  H   UNL     1      -4.994   0.546  -6.324  1.00  0.00     0.159 HD
ENDBRANCH  34  35
ENDBRANCH  33  34
ENDBRANCH  32  33
ENDBRANCH   6  32
ENDBRANCH   4   6
ENDBRANCH   1   2
BRANCH   1  43
ATOM     43  C   UNL     1      -1.527   3.033  -2.552  1.00  0.00     0.102 C 
ATOM     44  C   UNL     1      -2.201   2.014  -3.486  1.00  0.00     0.020 C 
BRANCH  43  45
ATOM     45  C   UNL     1      -0.023   3.198  -2.793  1.00  0.00     0.225 C 
ATOM     46  O   UNL     1       0.629   4.137  -2.348  1.00  0.00    -0.275 OA
ATOM     47  N   UNL     1       0.548   2.266  -3.630  1.00  0.00    -0.342 N 
ATOM     48  H   UNL     1       0.040   1.424  -3.862  1.00  0.00     0.164 HD
BRANCH  47  49
ATOM     49  C   UNL     1       1.984   2.278  -3.924  1.00  0.00     0.192 C 
BRANCH  49  50
ATOM     50  C   UNL     1       2.254   1.482  -5.203  1.00  0.00     0.047 C 
BRANCH  50  51
ATOM     51  C   UNL     1       3.375   2.102  -6.048  1.00  0.00     0.103 C 
BRANCH  51  52
ATOM     52  C   UNL     1       4.252   1.039  -6.707  1.00  0.00     0.226 C 
ATOM     53  O   UNL     1       3.993  -0.155  -6.540  1.00  0.00    -0.275 OA
BRANCH  52  54
ATOM     54  N   UNL     1       5.280   1.506  -7.547  1.00  0.00    -0.311 N 
ATOM     55  C   UNL     1       6.684   1.160  -7.287  1.00  0.00     0.153 C 
BRANCH  54  56
ATOM     56  C   UNL     1       5.004   2.313  -8.663  1.00  0.00     0.102 C 
ATOM     57  C   UNL     1       4.924   1.872  -9.929  1.00  0.00     0.043 C 
BRANCH  56  58
ATOM     58  C   UNL     1       4.723   3.789  -8.502  1.00  0.00     0.268 C 
ATOM     59  O   UNL     1       5.320   4.501  -7.707  1.00  0.00    -0.268 OA
ATOM     60  N   UNL     1       3.778   4.258  -9.383  1.00  0.00    -0.339 N 
ATOM     61  H   UNL     1       3.322   3.600 -10.004  1.00  0.00     0.164 HD
BRANCH  60  62
ATOM     62  C   UNL     1       3.400   5.669  -9.442  1.00  0.00     0.168 CG0
ATOM     63  C   UNL     1       2.162   5.868 -10.306  1.00  0.00     0.041 C 
ATOM     64  G   UNL     1       4.583   6.499  -9.983  1.00  0.00     0.000 G0
ENDBRANCH  60  62
ENDBRANCH  56  58
ENDBRANCH  54  56
ENDBRANCH  52  54
ENDBRANCH  51  52
ENDBRANCH  50  51
ENDBRANCH  49  50
BRANCH  49  65
ATOM     65  C   UNL     1       2.803   1.680  -2.769  1.00  0.00     0.326 C 
ATOM     66  O   UNL     1       3.610   0.767  -2.869  1.00  0.00    -0.250 OA
BRANCH  65  67
ATOM     67  O   UNL     1       2.532   2.206  -1.554  1.00  0.00    -0.480 OA
ATOM     68  H   UNL     1       3.052   1.646  -0.938  1.00  0.00     0.296 HD
ENDBRANCH  65  67
ENDBRANCH  49  65
ENDBRANCH  47  49
ENDBRANCH  43  45
ENDBRANCH   1  43
BRANCH   1  69
ATOM     69  C   UNL     1      -0.803   2.042  -0.206  1.00  0.00    -0.001 C 
ATOM     70  C   UNL     1      -1.039   1.139   0.761  1.00  0.00     0.001 C 
BRANCH  70  71
ATOM     71  C   UNL     1      -0.041   0.413   1.550  1.00  0.00    -0.055 C 
ATOM     72  C   UNL     1      -0.021   0.624   2.883  1.00  0.00    -0.018 C 
ATOM     73  C   UNL     1       0.886  -0.522   0.820  1.00  0.00     0.044 C 
BRANCH  72  74
ATOM     74  C   UNL     1       0.889   0.015   3.941  1.00  0.00     0.038 C 
ATOM     75  C   UNL     1       0.110   0.013   5.261  1.00  0.00     0.015 C 
BRANCH  74  76
ATOM     76  C   UNL     1       2.225   0.815   3.972  1.00  0.00     0.128 C 
BRANCH  76  77
ATOM     77  O   UNL     1       2.200   1.770   5.046  1.00  0.00    -0.381 OA
ATOM     78  C   UNL     1       3.366   2.579   5.118  1.00  0.00     0.195 C 
ENDBRANCH  76  77
BRANCH  76  79
ATOM     79  C   UNL     1       3.492  -0.077   3.992  1.00  0.00     0.068 C 
BRANCH  79  80
ATOM     80  C   UNL     1       4.313  -0.167   2.728  1.00  0.00    -0.045 A 
ATOM     81  C   UNL     1       4.088   0.708   1.657  1.00  0.00     0.004 A 
ATOM     82  C   UNL     1       5.301  -1.154   2.596  1.00  0.00     0.004 A 
ATOM     83  C   UNL     1       4.842   0.609   0.486  1.00  0.00     0.000 A 
ATOM     84  C   UNL     1       6.055  -1.252   1.424  1.00  0.00     0.000 A 
ATOM     85  C   UNL     1       5.826  -0.370   0.370  1.00  0.00     0.000 A 
ENDBRANCH  79  80
ENDBRANCH  76  79
ENDBRANCH  74  76
ENDBRANCH  72  74
ENDBRANCH  70  71
ENDBRANCH   1  69
TORSDOF 17
ENDMDL
MODEL 32
REMARK VINA RESULT:    -7.541      4.209     13.065
REMARK INTER + INTRA:         -29.753
REMARK INTER:                 -23.183
REMARK INTRA:                  -6.570
REMARK UNBOUND:                -7.222
REMARK SMILES C=C1C(=O)N[C@H](C)C(=O)N[C@@H](CC(C)C)C(=O)N[C@@H](C(=O)O)[C@H](C)C(=O)N[C@@H](CCCN=C(N)N)C(=O)N[C@@H](/C=C/C(C)=C/[C@H](C)[C@H](Cc2ccccc2)OC)[C@H](C)C(=O)N[C@@H](C(=O)O)CCC(=O)N1C
REMARK SMILES IDX 39 1 38 2 37 3 36 4 28 6 27 7 25 8 26 9 23 11 24 12 19 13
REMARK SMILES IDX 18 14 16 15 17 16 11 18 10 19 8 20 9 21 12 24 13 25 14 26
REMARK SMILES IDX 15 27 20 28 21 29 22 30 29 32 30 33 31 34 32 35 33 36 34 37
REMARK SMILES IDX 35 38 57 43 58 44 59 45 60 46 61 47 62 49 66 50 67 51 68 52
REMARK SMILES IDX 69 53 70 54 71 55 2 56 1 57 3 58 4 59 5 60 6 62 7 63 63 65
REMARK SMILES IDX 64 66 65 67 40 69 41 70 42 71 44 72 43 73 45 74 46 75 47 76
REMARK SMILES IDX 55 77 56 78 48 79 49 80 50 81 54 82 51 83 53 84 52 85
REMARK H PARENT 38 5 27 10 18 17 10 22 22 31 34 39 34 40 35 41 35 42 61 48
REMARK H PARENT 5 61 65 68
REMARK Flexibility Score:  369.900
ROOT
ATOM      1  C   UNL     1      -9.245   2.117  -6.671  1.00  0.00     0.117 C 
ENDROOT
BRANCH   1   2
ATOM      2  N   UNL     1     -10.646   1.696  -6.625  1.00  0.00    -0.347 N 
ATOM      3  O   UNL     1     -11.169   2.108  -8.821  1.00  0.00    -0.273 OA
ATOM      4  C   UNL     1     -11.473   1.639  -7.730  1.00  0.00     0.243 C 
ATOM      5  H   UNL     1     -11.037   1.376  -5.751  1.00  0.00     0.164 HD
BRANCH   4   6
ATOM      6  C   UNL     1     -12.884   1.076  -7.423  1.00  0.00     0.171 C 
BRANCH   6   7
ATOM      7  N   UNL     1     -13.013   0.762  -5.991  1.00  0.00    -0.344 N 
ATOM      8  C   UNL     1     -12.920  -0.539  -5.546  1.00  0.00     0.226 C 
ATOM      9  O   UNL     1     -12.751  -1.486  -6.305  1.00  0.00    -0.275 OA
ATOM     10  H   UNL     1     -13.220   1.510  -5.341  1.00  0.00     0.164 HD
BRANCH   8  11
ATOM     11  C   UNL     1     -13.019  -0.693  -4.038  1.00  0.00     0.109 C 
ATOM     12  C   UNL     1     -11.621  -0.772  -3.425  1.00  0.00     0.021 C 
BRANCH  11  13
ATOM     13  C   UNL     1     -13.919   0.417  -3.459  1.00  0.00     0.204 C 
BRANCH  13  14
ATOM     14  N   UNL     1     -15.343   0.138  -3.669  1.00  0.00    -0.340 N 
ATOM     15  C   UNL     1     -16.180   0.993  -4.353  1.00  0.00     0.243 C 
ATOM     16  O   UNL     1     -15.776   2.024  -4.889  1.00  0.00    -0.273 OA
ATOM     17  H   UNL     1     -15.770  -0.617  -3.126  1.00  0.00     0.164 HD
BRANCH  15  18
ATOM     18  C   UNL     1     -17.674   0.595  -4.269  1.00  0.00     0.171 C 
BRANCH  18  19
ATOM     19  N   UNL     1     -18.299   1.514  -3.320  1.00  0.00    -0.343 N 
ATOM     20  C   UNL     1     -18.165   1.354  -1.954  1.00  0.00     0.242 CG0
ATOM     21  O   UNL     1     -17.627   0.359  -1.473  1.00  0.00    -0.273 OA
ATOM     22  H   UNL     1     -18.852   2.289  -3.669  1.00  0.00     0.164 HD
ATOM     23  G   UNL     1     -18.828   2.465  -1.115  1.00  0.00     0.000 G0
ENDBRANCH  18  19
BRANCH  18  24
ATOM     24  C   UNL     1     -18.335   0.678  -5.651  1.00  0.00     0.038 C 
BRANCH  24  25
ATOM     25  C   UNL     1     -18.828  -0.672  -6.211  1.00  0.00    -0.015 C 
ATOM     26  C   UNL     1     -18.802  -1.786  -5.164  1.00  0.00     0.007 C 
ATOM     27  C   UNL     1     -17.969  -1.075  -7.413  1.00  0.00     0.007 C 
ENDBRANCH  24  25
ENDBRANCH  18  24
ENDBRANCH  15  18
ENDBRANCH  13  14
BRANCH  13  28
ATOM     28  C   UNL     1     -13.716   0.635  -1.956  1.00  0.00     0.327 C 
ATOM     29  O   UNL     1     -13.837  -0.208  -1.081  1.00  0.00    -0.250 OA
BRANCH  28  30
ATOM     30  O   UNL     1     -13.492   1.925  -1.635  1.00  0.00    -0.480 OA
ATOM     31  H   UNL     1     -12.828   1.883  -0.916  1.00  0.00     0.296 HD
ENDBRANCH  28  30
ENDBRANCH  13  28
ENDBRANCH  11  13
ENDBRANCH   8  11
ENDBRANCH   6   7
BRANCH   6  32
ATOM     32  C   UNL     1     -13.939   2.100  -7.856  1.00  0.00     0.037 C 
BRANCH  32  33
ATOM     33  C   UNL     1     -15.255   1.432  -8.280  1.00  0.00     0.026 C 
BRANCH  33  34
ATOM     34  C   UNL     1     -15.749   1.925  -9.641  1.00  0.00     0.146 C 
BRANCH  34  35
ATOM     35  N   UNL     1     -16.304   0.796 -10.375  1.00  0.00    -0.254 NA
ATOM     36  C   UNL     1     -17.517   0.864 -10.781  1.00  0.00     0.185 C 
ATOM     37  N   UNL     1     -18.037  -0.168 -11.463  1.00  0.00    -0.370 N 
ATOM     38  N   UNL     1     -18.405   1.862 -10.625  1.00  0.00    -0.370 N 
ATOM     39  H   UNL     1     -17.425  -0.956 -11.631  1.00  0.00     0.159 HD
ATOM     40  H   UNL     1     -18.910  -0.122 -11.960  1.00  0.00     0.159 HD
ATOM     41  H   UNL     1     -19.374   1.740 -10.869  1.00  0.00     0.159 HD
ATOM     42  H   UNL     1     -18.155   2.696 -10.117  1.00  0.00     0.159 HD
ENDBRANCH  34  35
ENDBRANCH  33  34
ENDBRANCH  32  33
ENDBRANCH   6  32
ENDBRANCH   4   6
ENDBRANCH   1   2
BRANCH   1  43
ATOM     43  C   UNL     1      -8.442   1.077  -7.504  1.00  0.00     0.102 C 
ATOM     44  C   UNL     1      -8.227  -0.259  -6.772  1.00  0.00     0.020 C 
BRANCH  43  45
ATOM     45  C   UNL     1      -7.156   1.693  -8.062  1.00  0.00     0.225 C 
ATOM     46  O   UNL     1      -6.857   2.874  -7.910  1.00  0.00    -0.275 OA
ATOM     47  N   UNL     1      -6.385   0.857  -8.836  1.00  0.00    -0.342 N 
ATOM     48  H   UNL     1      -6.562  -0.138  -8.826  1.00  0.00     0.164 HD
BRANCH  47  49
ATOM     49  C   UNL     1      -5.109   1.299  -9.406  1.00  0.00     0.192 C 
BRANCH  49  50
ATOM     50  C   UNL     1      -5.215   1.342 -10.933  1.00  0.00     0.047 C 
BRANCH  50  51
ATOM     51  C   UNL     1      -6.578   0.848 -11.436  1.00  0.00     0.103 C 
BRANCH  51  52
ATOM     52  C   UNL     1      -6.517  -0.595 -11.934  1.00  0.00     0.226 C 
ATOM     53  O   UNL     1      -6.079  -1.478 -11.194  1.00  0.00    -0.275 OA
BRANCH  52  54
ATOM     54  N   UNL     1      -7.049  -0.840 -13.213  1.00  0.00    -0.311 N 
ATOM     55  C   UNL     1      -8.500  -0.833 -13.443  1.00  0.00     0.153 C 
BRANCH  54  56
ATOM     56  C   UNL     1      -6.217  -1.093 -14.316  1.00  0.00     0.102 C 
ATOM     57  C   UNL     1      -6.476  -1.986 -15.285  1.00  0.00     0.043 C 
BRANCH  56  58
ATOM     58  C   UNL     1      -4.940  -0.311 -14.520  1.00  0.00     0.268 C 
ATOM     59  O   UNL     1      -4.901   0.911 -14.549  1.00  0.00    -0.268 OA
ATOM     60  N   UNL     1      -3.825  -1.110 -14.602  1.00  0.00    -0.339 N 
ATOM     61  H   UNL     1      -3.943  -2.116 -14.580  1.00  0.00     0.164 HD
BRANCH  60  62
ATOM     62  C   UNL     1      -2.478  -0.557 -14.736  1.00  0.00     0.168 CG0
ATOM     63  C   UNL     1      -2.111  -0.361 -16.202  1.00  0.00     0.041 C 
ATOM     64  G   UNL     1      -1.464  -1.488 -14.039  1.00  0.00     0.000 G0
ENDBRANCH  60  62
ENDBRANCH  56  58
ENDBRANCH  54  56
ENDBRANCH  52  54
ENDBRANCH  51  52
ENDBRANCH  50  51
ENDBRANCH  49  50
BRANCH  49  65
ATOM     65  C   UNL     1      -3.955   0.369  -9.002  1.00  0.00     0.326 C 
ATOM     66  O   UNL     1      -3.368   0.389  -7.930  1.00  0.00    -0.250 OA
BRANCH  65  67
ATOM     67  O   UNL     1      -3.556  -0.487  -9.968  1.00  0.00    -0.480 OA
ATOM     68  H   UNL     1      -2.676  -0.791  -9.660  1.00  0.00     0.296 HD
ENDBRANCH  65  67
ENDBRANCH  49  65
ENDBRANCH  47  49
ENDBRANCH  43  45
ENDBRANCH   1  43
BRANCH   1  69
ATOM     69  C   UNL     1      -8.834   2.380  -5.234  1.00  0.00    -0.001 C 
ATOM     70  C   UNL     1      -9.493   2.025  -4.117  1.00  0.00     0.001 C 
BRANCH  70  71
ATOM     71  C   UNL     1      -9.076   2.265  -2.734  1.00  0.00    -0.055 C 
ATOM     72  C   UNL     1      -7.829   1.887  -2.380  1.00  0.00    -0.018 C 
ATOM     73  C   UNL     1     -10.062   2.926  -1.808  1.00  0.00     0.044 C 
BRANCH  72  74
ATOM     74  C   UNL     1      -7.131   2.012  -1.034  1.00  0.00     0.038 C 
ATOM     75  C   UNL     1      -6.348   3.330  -1.051  1.00  0.00     0.015 C 
BRANCH  74  76
ATOM     76  C   UNL     1      -6.264   0.740  -0.799  1.00  0.00     0.128 C 
BRANCH  76  77
ATOM     77  O   UNL     1      -6.957  -0.174   0.067  1.00  0.00    -0.381 OA
ATOM     78  C   UNL     1      -7.671   0.464   1.117  1.00  0.00     0.195 C 
ENDBRANCH  76  77
BRANCH  76  79
ATOM     79  C   UNL     1      -5.765   0.069  -2.104  1.00  0.00     0.068 C 
BRANCH  79  80
ATOM     80  C   UNL     1      -4.791   0.835  -2.966  1.00  0.00    -0.045 A 
ATOM     81  C   UNL     1      -5.111   1.179  -4.286  1.00  0.00     0.004 A 
ATOM     82  C   UNL     1      -3.531   1.192  -2.462  1.00  0.00     0.004 A 
ATOM     83  C   UNL     1      -4.198   1.876  -5.081  1.00  0.00     0.000 A 
ATOM     84  C   UNL     1      -2.619   1.888  -3.259  1.00  0.00     0.000 A 
ATOM     85  C   UNL     1      -2.953   2.231  -4.567  1.00  0.00     0.000 A 
ENDBRANCH  79  80
ENDBRANCH  76  79
ENDBRANCH  74  76
ENDBRANCH  72  74
ENDBRANCH  70  71
ENDBRANCH   1  69
TORSDOF 17
ENDMDL
MODEL 33
REMARK VINA RESULT:    -7.541      3.160      7.542
REMARK INTER + INTRA:         -29.752
REMARK INTER:                 -24.963
REMARK INTRA:                  -4.789
REMARK UNBOUND:                -7.222
REMARK SMILES C=C1C(=O)N[C@H](C)C(=O)N[C@@H](CC(C)C)C(=O)N[C@@H](C(=O)O)[C@H](C)C(=O)N[C@@H](CCCN=C(N)N)C(=O)N[C@@H](/C=C/C(C)=C/[C@H](C)[C@H](Cc2ccccc2)OC)[C@H](C)C(=O)N[C@@H](C(=O)O)CCC(=O)N1C
REMARK SMILES IDX 39 1 38 2 37 3 36 4 28 6 27 7 25 8 26 9 23 11 24 12 19 13
REMARK SMILES IDX 18 14 16 15 17 16 11 18 10 19 8 20 9 21 12 24 13 25 14 26
REMARK SMILES IDX 15 27 20 28 21 29 22 30 29 32 30 33 31 34 32 35 33 36 34 37
REMARK SMILES IDX 35 38 57 43 58 44 59 45 60 46 61 47 62 49 66 50 67 51 68 52
REMARK SMILES IDX 69 53 70 54 71 55 2 56 1 57 3 58 4 59 5 60 6 62 7 63 63 65
REMARK SMILES IDX 64 66 65 67 40 69 41 70 42 71 44 72 43 73 45 74 46 75 47 76
REMARK SMILES IDX 55 77 56 78 48 79 49 80 50 81 54 82 51 83 53 84 52 85
REMARK H PARENT 38 5 27 10 18 17 10 22 22 31 34 39 34 40 35 41 35 42 61 48
REMARK H PARENT 5 61 65 68
REMARK Flexibility Score:  369.900
ROOT
ATOM      1  C   UNL     1     -10.083   1.183  -0.882  1.00  0.00     0.117 C 
ENDROOT
BRANCH   1   2
ATOM      2  N   UNL     1     -10.008   1.221  -2.343  1.00  0.00    -0.347 N 
ATOM      3  O   UNL     1      -8.368  -0.362  -2.613  1.00  0.00    -0.273 OA
ATOM      4  C   UNL     1      -9.218   0.377  -3.099  1.00  0.00     0.243 C 
ATOM      5  H   UNL     1     -10.598   1.862  -2.852  1.00  0.00     0.164 HD
BRANCH   4   6
ATOM      6  C   UNL     1      -9.388   0.566  -4.628  1.00  0.00     0.171 C 
BRANCH   6   7
ATOM      7  N   UNL     1      -8.159   1.119  -5.218  1.00  0.00    -0.344 N 
ATOM      8  C   UNL     1      -8.201   1.815  -6.406  1.00  0.00     0.226 C 
ATOM      9  O   UNL     1      -9.239   1.987  -7.034  1.00  0.00    -0.275 OA
ATOM     10  H   UNL     1      -7.273   0.940  -4.763  1.00  0.00     0.164 HD
BRANCH   8  11
ATOM     11  C   UNL     1      -6.860   2.369  -6.855  1.00  0.00     0.109 C 
ATOM     12  C   UNL     1      -6.369   3.425  -5.865  1.00  0.00     0.021 C 
BRANCH  11  13
ATOM     13  C   UNL     1      -5.876   1.209  -7.108  1.00  0.00     0.204 C 
BRANCH  13  14
ATOM     14  N   UNL     1      -6.022   0.644  -8.452  1.00  0.00    -0.340 N 
ATOM     15  C   UNL     1      -6.384   1.400  -9.546  1.00  0.00     0.243 C 
ATOM     16  O   UNL     1      -6.551   2.617  -9.483  1.00  0.00    -0.273 OA
ATOM     17  H   UNL     1      -6.047  -0.375  -8.545  1.00  0.00     0.164 HD
BRANCH  15  18
ATOM     18  C   UNL     1      -6.679   0.556 -10.811  1.00  0.00     0.171 C 
BRANCH  18  19
ATOM     19  N   UNL     1      -6.367  -0.830 -10.471  1.00  0.00    -0.343 N 
ATOM     20  C   UNL     1      -5.659  -1.650 -11.329  1.00  0.00     0.242 CG0
ATOM     21  O   UNL     1      -5.374  -1.293 -12.470  1.00  0.00    -0.273 OA
ATOM     22  H   UNL     1      -6.682  -1.208  -9.585  1.00  0.00     0.164 HD
ATOM     23  G   UNL     1      -5.358  -3.054 -10.766  1.00  0.00     0.000 G0
ENDBRANCH  18  19
BRANCH  18  24
ATOM     24  C   UNL     1      -8.143   0.715 -11.239  1.00  0.00     0.038 C 
BRANCH  24  25
ATOM     25  C   UNL     1      -8.353   0.927 -12.753  1.00  0.00    -0.015 C 
ATOM     26  C   UNL     1      -9.501   1.890 -13.055  1.00  0.00     0.007 C 
ATOM     27  C   UNL     1      -8.619  -0.420 -13.430  1.00  0.00     0.007 C 
ENDBRANCH  24  25
ENDBRANCH  18  24
ENDBRANCH  15  18
ENDBRANCH  13  14
BRANCH  13  28
ATOM     28  C   UNL     1      -4.408   1.617  -6.944  1.00  0.00     0.327 C 
ATOM     29  O   UNL     1      -3.623   1.176  -6.119  1.00  0.00    -0.250 OA
BRANCH  28  30
ATOM     30  O   UNL     1      -4.051   2.639  -7.748  1.00  0.00    -0.480 OA
ATOM     31  H   UNL     1      -3.072   2.596  -7.772  1.00  0.00     0.296 HD
ENDBRANCH  28  30
ENDBRANCH  13  28
ENDBRANCH  11  13
ENDBRANCH   8  11
ENDBRANCH   6   7
BRANCH   6  32
ATOM     32  C   UNL     1      -9.743  -0.782  -5.266  1.00  0.00     0.037 C 
BRANCH  32  33
ATOM     33  C   UNL     1     -11.028  -1.381  -4.677  1.00  0.00     0.026 C 
BRANCH  33  34
ATOM     34  C   UNL     1     -12.254  -1.111  -5.550  1.00  0.00     0.146 C 
BRANCH  34  35
ATOM     35  N   UNL     1     -13.279  -0.473  -4.736  1.00  0.00    -0.254 NA
ATOM     36  C   UNL     1     -13.894   0.546  -5.211  1.00  0.00     0.185 C 
ATOM     37  N   UNL     1     -14.844   1.139  -4.472  1.00  0.00    -0.370 N 
ATOM     38  N   UNL     1     -13.732   1.152  -6.400  1.00  0.00    -0.370 N 
ATOM     39  H   UNL     1     -15.032   0.733  -3.564  1.00  0.00     0.159 HD
ATOM     40  H   UNL     1     -15.484   1.824  -4.835  1.00  0.00     0.159 HD
ATOM     41  H   UNL     1     -14.179   2.031  -6.602  1.00  0.00     0.159 HD
ATOM     42  H   UNL     1     -13.039   0.822  -7.054  1.00  0.00     0.159 HD
ENDBRANCH  34  35
ENDBRANCH  33  34
ENDBRANCH  32  33
ENDBRANCH   6  32
ENDBRANCH   4   6
ENDBRANCH   1   2
BRANCH   1  43
ATOM     43  C   UNL     1     -11.304   2.034  -0.427  1.00  0.00     0.102 C 
ATOM     44  C   UNL     1     -11.412   2.180   1.101  1.00  0.00     0.020 C 
BRANCH  43  45
ATOM     45  C   UNL     1     -12.593   1.550  -1.097  1.00  0.00     0.225 C 
ATOM     46  O   UNL     1     -13.033   2.037  -2.135  1.00  0.00    -0.275 OA
ATOM     47  N   UNL     1     -13.291   0.584  -0.410  1.00  0.00    -0.342 N 
ATOM     48  H   UNL     1     -12.847   0.091   0.352  1.00  0.00     0.164 HD
BRANCH  47  49
ATOM     49  C   UNL     1     -14.524   0.001  -0.949  1.00  0.00     0.192 C 
BRANCH  49  50
ATOM     50  C   UNL     1     -15.734   0.764  -0.405  1.00  0.00     0.047 C 
BRANCH  50  51
ATOM     51  C   UNL     1     -16.817   0.976  -1.473  1.00  0.00     0.103 C 
BRANCH  51  52
ATOM     52  C   UNL     1     -16.974   2.448  -1.846  1.00  0.00     0.226 C 
ATOM     53  O   UNL     1     -16.085   3.014  -2.485  1.00  0.00    -0.275 OA
BRANCH  52  54
ATOM     54  N   UNL     1     -18.191   3.058  -1.491  1.00  0.00    -0.311 N 
ATOM     55  C   UNL     1     -19.441   2.710  -2.180  1.00  0.00     0.153 C 
BRANCH  54  56
ATOM     56  C   UNL     1     -18.259   4.015  -0.465  1.00  0.00     0.102 C 
ATOM     57  C   UNL     1     -18.743   5.260  -0.606  1.00  0.00     0.043 C 
BRANCH  56  58
ATOM     58  C   UNL     1     -17.814   3.679   0.939  1.00  0.00     0.268 C 
ATOM     59  O   UNL     1     -16.651   3.763   1.311  1.00  0.00    -0.268 OA
ATOM     60  N   UNL     1     -18.854   3.335   1.768  1.00  0.00    -0.339 N 
ATOM     61  H   UNL     1     -19.788   3.278   1.380  1.00  0.00     0.164 HD
BRANCH  60  62
ATOM     62  C   UNL     1     -18.655   3.032   3.185  1.00  0.00     0.168 CG0
ATOM     63  C   UNL     1     -18.589   1.528   3.419  1.00  0.00     0.041 C 
ATOM     64  G   UNL     1     -19.791   3.665   4.014  1.00  0.00     0.000 G0
ENDBRANCH  60  62
ENDBRANCH  56  58
ENDBRANCH  54  56
ENDBRANCH  52  54
ENDBRANCH  51  52
ENDBRANCH  50  51
ENDBRANCH  49  50
BRANCH  49  65
ATOM     65  C   UNL     1     -14.654  -1.486  -0.584  1.00  0.00     0.326 C 
ATOM     66  O   UNL     1     -14.243  -2.004   0.445  1.00  0.00    -0.250 OA
BRANCH  65  67
ATOM     67  O   UNL     1     -15.230  -2.252  -1.536  1.00  0.00    -0.480 OA
ATOM     68  H   UNL     1     -15.629  -2.992  -1.029  1.00  0.00     0.296 HD
ENDBRANCH  65  67
ENDBRANCH  49  65
ENDBRANCH  47  49
ENDBRANCH  43  45
ENDBRANCH   1  43
BRANCH   1  69
ATOM     69  C   UNL     1      -8.701   1.554  -0.377  1.00  0.00    -0.001 C 
ATOM     70  C   UNL     1      -8.119   1.167   0.772  1.00  0.00     0.001 C 
BRANCH  70  71
ATOM     71  C   UNL     1      -6.776   1.514   1.239  1.00  0.00    -0.055 C 
ATOM     72  C   UNL     1      -5.791   1.587   0.319  1.00  0.00    -0.018 C 
ATOM     73  C   UNL     1      -6.589   1.774   2.711  1.00  0.00     0.044 C 
BRANCH  72  74
ATOM     74  C   UNL     1      -4.319   1.925   0.508  1.00  0.00     0.038 C 
ATOM     75  C   UNL     1      -4.235   3.425   0.819  1.00  0.00     0.015 C 
BRANCH  74  76
ATOM     76  C   UNL     1      -3.535   1.476  -0.760  1.00  0.00     0.128 C 
BRANCH  76  77
ATOM     77  O   UNL     1      -4.134   0.293  -1.314  1.00  0.00    -0.381 OA
ATOM     78  C   UNL     1      -4.407   0.389  -2.706  1.00  0.00     0.195 C 
ENDBRANCH  76  77
BRANCH  76  79
ATOM     79  C   UNL     1      -3.341   2.598  -1.811  1.00  0.00     0.068 C 
BRANCH  79  80
ATOM     80  C   UNL     1      -1.930   3.016  -2.147  1.00  0.00    -0.045 A 
ATOM     81  C   UNL     1      -1.472   3.013  -3.471  1.00  0.00     0.004 A 
ATOM     82  C   UNL     1      -1.041   3.389  -1.128  1.00  0.00     0.004 A 
ATOM     83  C   UNL     1      -0.161   3.387  -3.773  1.00  0.00     0.000 A 
ATOM     84  C   UNL     1       0.271   3.762  -1.430  1.00  0.00     0.000 A 
ATOM     85  C   UNL     1       0.710   3.762  -2.752  1.00  0.00     0.000 A 
ENDBRANCH  79  80
ENDBRANCH  76  79
ENDBRANCH  74  76
ENDBRANCH  72  74
ENDBRANCH  70  71
ENDBRANCH   1  69
TORSDOF 17
ENDMDL
MODEL 34
REMARK VINA RESULT:    -7.530      4.678      9.790
REMARK INTER + INTRA:         -29.720
REMARK INTER:                 -23.371
REMARK INTRA:                  -6.349
REMARK UNBOUND:                -7.222
REMARK SMILES C=C1C(=O)N[C@H](C)C(=O)N[C@@H](CC(C)C)C(=O)N[C@@H](C(=O)O)[C@H](C)C(=O)N[C@@H](CCCN=C(N)N)C(=O)N[C@@H](/C=C/C(C)=C/[C@H](C)[C@H](Cc2ccccc2)OC)[C@H](C)C(=O)N[C@@H](C(=O)O)CCC(=O)N1C
REMARK SMILES IDX 39 1 38 2 37 3 36 4 28 6 27 7 25 8 26 9 23 11 24 12 19 13
REMARK SMILES IDX 18 14 16 15 17 16 11 18 10 19 8 20 9 21 12 24 13 25 14 26
REMARK SMILES IDX 15 27 20 28 21 29 22 30 29 32 30 33 31 34 32 35 33 36 34 37
REMARK SMILES IDX 35 38 57 43 58 44 59 45 60 46 61 47 62 49 66 50 67 51 68 52
REMARK SMILES IDX 69 53 70 54 71 55 2 56 1 57 3 58 4 59 5 60 6 62 7 63 63 65
REMARK SMILES IDX 64 66 65 67 40 69 41 70 42 71 44 72 43 73 45 74 46 75 47 76
REMARK SMILES IDX 55 77 56 78 48 79 49 80 50 81 54 82 51 83 53 84 52 85
REMARK H PARENT 38 5 27 10 18 17 10 22 22 31 34 39 34 40 35 41 35 42 61 48
REMARK H PARENT 5 61 65 68
REMARK Flexibility Score:  369.900
ROOT
ATOM      1  C   UNL     1      -8.945   1.483   3.868  1.00  0.00     0.117 C 
ENDROOT
BRANCH   1   2
ATOM      2  N   UNL     1      -8.025   1.679   2.747  1.00  0.00    -0.347 N 
ATOM      3  O   UNL     1      -6.347   2.738   3.900  1.00  0.00    -0.273 OA
ATOM      4  C   UNL     1      -6.756   2.211   2.871  1.00  0.00     0.243 C 
ATOM      5  H   UNL     1      -8.295   1.368   1.826  1.00  0.00     0.164 HD
BRANCH   4   6
ATOM      6  C   UNL     1      -5.955   2.229   1.545  1.00  0.00     0.171 C 
BRANCH   6   7
ATOM      7  N   UNL     1      -6.803   1.791   0.425  1.00  0.00    -0.344 N 
ATOM      8  C   UNL     1      -6.386   0.788  -0.423  1.00  0.00     0.226 C 
ATOM      9  O   UNL     1      -5.299   0.235  -0.306  1.00  0.00    -0.275 OA
ATOM     10  H   UNL     1      -7.679   2.270   0.256  1.00  0.00     0.164 HD
BRANCH   8  11
ATOM     11  C   UNL     1      -7.396   0.413  -1.493  1.00  0.00     0.109 C 
ATOM     12  C   UNL     1      -8.787   0.270  -0.877  1.00  0.00     0.021 C 
BRANCH  11  13
ATOM     13  C   UNL     1      -7.305   1.409  -2.667  1.00  0.00     0.204 C 
BRANCH  13  14
ATOM     14  N   UNL     1      -5.982   1.399  -3.298  1.00  0.00    -0.340 N 
ATOM     15  C   UNL     1      -5.054   2.399  -3.107  1.00  0.00     0.243 C 
ATOM     16  O   UNL     1      -5.248   3.343  -2.343  1.00  0.00    -0.273 OA
ATOM     17  H   UNL     1      -5.817   0.730  -4.056  1.00  0.00     0.164 HD
BRANCH  15  18
ATOM     18  C   UNL     1      -3.818   2.282  -4.033  1.00  0.00     0.171 C 
BRANCH  18  19
ATOM     19  N   UNL     1      -4.276   2.602  -5.384  1.00  0.00    -0.343 N 
ATOM     20  C   UNL     1      -4.043   1.757  -6.452  1.00  0.00     0.242 CG0
ATOM     21  O   UNL     1      -3.328   0.764  -6.342  1.00  0.00    -0.273 OA
ATOM     22  H   UNL     1      -4.773   3.470  -5.548  1.00  0.00     0.164 HD
ATOM     23  G   UNL     1      -4.669   2.225  -7.782  1.00  0.00     0.000 G0
ENDBRANCH  18  19
BRANCH  18  24
ATOM     24  C   UNL     1      -2.707   3.234  -3.576  1.00  0.00     0.038 C 
BRANCH  24  25
ATOM     25  C   UNL     1      -1.284   2.639  -3.635  1.00  0.00    -0.015 C 
ATOM     26  C   UNL     1      -0.356   3.235  -2.575  1.00  0.00     0.007 C 
ATOM     27  C   UNL     1      -0.688   2.866  -5.027  1.00  0.00     0.007 C 
ENDBRANCH  24  25
ENDBRANCH  18  24
ENDBRANCH  15  18
ENDBRANCH  13  14
BRANCH  13  28
ATOM     28  C   UNL     1      -8.336   1.139  -3.768  1.00  0.00     0.327 C 
ATOM     29  O   UNL     1      -8.622   0.049  -4.239  1.00  0.00    -0.250 OA
BRANCH  28  30
ATOM     30  O   UNL     1      -8.858   2.267  -4.291  1.00  0.00    -0.480 OA
ATOM     31  H   UNL     1      -9.280   1.973  -5.125  1.00  0.00     0.296 HD
ENDBRANCH  28  30
ENDBRANCH  13  28
ENDBRANCH  11  13
ENDBRANCH   8  11
ENDBRANCH   6   7
BRANCH   6  32
ATOM     32  C   UNL     1      -5.415   3.642   1.302  1.00  0.00     0.037 C 
BRANCH  32  33
ATOM     33  C   UNL     1      -3.921   3.757   1.636  1.00  0.00     0.026 C 
BRANCH  33  34
ATOM     34  C   UNL     1      -3.029   3.515   0.418  1.00  0.00     0.146 C 
BRANCH  34  35
ATOM     35  N   UNL     1      -1.901   2.686   0.819  1.00  0.00    -0.254 NA
ATOM     36  C   UNL     1      -1.788   1.514   0.312  1.00  0.00     0.185 C 
ATOM     37  N   UNL     1      -0.749   0.744   0.672  1.00  0.00    -0.370 N 
ATOM     38  N   UNL     1      -2.588   0.897  -0.574  1.00  0.00    -0.370 N 
ATOM     39  H   UNL     1      -0.093   1.144   1.330  1.00  0.00     0.159 HD
ATOM     40  H   UNL     1      -0.496  -0.105   0.196  1.00  0.00     0.159 HD
ATOM     41  H   UNL     1      -2.470  -0.079  -0.791  1.00  0.00     0.159 HD
ATOM     42  H   UNL     1      -3.418   1.353  -0.920  1.00  0.00     0.159 HD
ENDBRANCH  34  35
ENDBRANCH  33  34
ENDBRANCH  32  33
ENDBRANCH   6  32
ENDBRANCH   4   6
ENDBRANCH   1   2
BRANCH   1  43
ATOM     43  C   UNL     1      -8.815   0.015   4.365  1.00  0.00     0.102 C 
ATOM     44  C   UNL     1      -8.850  -1.021   3.229  1.00  0.00     0.020 C 
BRANCH  43  45
ATOM     45  C   UNL     1      -9.805  -0.272   5.498  1.00  0.00     0.225 C 
ATOM     46  O   UNL     1     -10.997   0.014   5.436  1.00  0.00    -0.275 OA
ATOM     47  N   UNL     1      -9.256  -0.793   6.647  1.00  0.00    -0.342 N 
ATOM     48  H   UNL     1      -8.315  -1.161   6.629  1.00  0.00     0.164 HD
BRANCH  47  49
ATOM     49  C   UNL     1     -10.087  -1.151   7.800  1.00  0.00     0.192 C 
BRANCH  49  50
ATOM     50  C   UNL     1     -10.118   0.014   8.793  1.00  0.00     0.047 C 
BRANCH  50  51
ATOM     51  C   UNL     1     -11.389   0.012   9.654  1.00  0.00     0.103 C 
BRANCH  51  52
ATOM     52  C   UNL     1     -12.498   0.864   9.042  1.00  0.00     0.226 C 
ATOM     53  O   UNL     1     -13.227   0.384   8.172  1.00  0.00    -0.275 OA
BRANCH  52  54
ATOM     54  N   UNL     1     -12.667   2.154   9.580  1.00  0.00    -0.311 N 
ATOM     55  C   UNL     1     -11.618   3.173   9.444  1.00  0.00     0.153 C 
BRANCH  54  56
ATOM     56  C   UNL     1     -13.842   2.516  10.258  1.00  0.00     0.102 C 
ATOM     57  C   UNL     1     -14.357   3.756  10.295  1.00  0.00     0.043 C 
BRANCH  56  58
ATOM     58  C   UNL     1     -14.667   1.481  10.987  1.00  0.00     0.268 C 
ATOM     59  O   UNL     1     -14.433   1.125  12.134  1.00  0.00    -0.268 OA
ATOM     60  N   UNL     1     -15.741   1.033  10.255  1.00  0.00    -0.339 N 
ATOM     61  H   UNL     1     -15.860   1.371   9.308  1.00  0.00     0.164 HD
BRANCH  60  62
ATOM     62  C   UNL     1     -16.706   0.076  10.795  1.00  0.00     0.168 CG0
ATOM     63  C   UNL     1     -17.357  -0.731   9.678  1.00  0.00     0.041 C 
ATOM     64  G   UNL     1     -17.772   0.825  11.620  1.00  0.00     0.000 G0
ENDBRANCH  60  62
ENDBRANCH  56  58
ENDBRANCH  54  56
ENDBRANCH  52  54
ENDBRANCH  51  52
ENDBRANCH  50  51
ENDBRANCH  49  50
BRANCH  49  65
ATOM     65  C   UNL     1      -9.563  -2.409   8.509  1.00  0.00     0.326 C 
ATOM     66  O   UNL     1     -10.253  -3.322   8.940  1.00  0.00    -0.250 OA
BRANCH  65  67
ATOM     67  O   UNL     1      -8.225  -2.435   8.695  1.00  0.00    -0.480 OA
ATOM     68  H   UNL     1      -8.042  -1.599   9.176  1.00  0.00     0.296 HD
ENDBRANCH  65  67
ENDBRANCH  49  65
ENDBRANCH  47  49
ENDBRANCH  43  45
ENDBRANCH   1  43
BRANCH   1  69
ATOM     69  C   UNL     1     -10.299   1.981   3.396  1.00  0.00    -0.001 C 
ATOM     70  C   UNL     1     -10.868   1.786   2.193  1.00  0.00     0.001 C 
BRANCH  70  71
ATOM     71  C   UNL     1     -12.185   2.253   1.757  1.00  0.00    -0.055 C 
ATOM     72  C   UNL     1     -13.270   1.606   2.233  1.00  0.00    -0.018 C 
ATOM     73  C   UNL     1     -12.237   3.427   0.814  1.00  0.00     0.044 C 
BRANCH  72  74
ATOM     74  C   UNL     1     -14.744   1.868   1.960  1.00  0.00     0.038 C 
ATOM     75  C   UNL     1     -15.505   1.563   3.256  1.00  0.00     0.015 C 
BRANCH  74  76
ATOM     76  C   UNL     1     -15.184   1.021   0.730  1.00  0.00     0.128 C 
BRANCH  76  77
ATOM     77  O   UNL     1     -15.396   1.877  -0.405  1.00  0.00    -0.381 OA
ATOM     78  C   UNL     1     -16.741   1.892  -0.865  1.00  0.00     0.195 C 
ENDBRANCH  76  77
BRANCH  76  79
ATOM     79  C   UNL     1     -14.242  -0.169   0.416  1.00  0.00     0.068 C 
BRANCH  79  80
ATOM     80  C   UNL     1     -13.703  -0.292  -0.989  1.00  0.00    -0.045 A 
ATOM     81  C   UNL     1     -12.498   0.320  -1.357  1.00  0.00     0.004 A 
ATOM     82  C   UNL     1     -14.422  -1.003  -1.962  1.00  0.00     0.004 A 
ATOM     83  C   UNL     1     -12.013   0.213  -2.662  1.00  0.00     0.000 A 
ATOM     84  C   UNL     1     -13.937  -1.109  -3.267  1.00  0.00     0.000 A 
ATOM     85  C   UNL     1     -12.733  -0.503  -3.617  1.00  0.00     0.000 A 
ENDBRANCH  79  80
ENDBRANCH  76  79
ENDBRANCH  74  76
ENDBRANCH  72  74
ENDBRANCH  70  71
ENDBRANCH   1  69
TORSDOF 17
ENDMDL
MODEL 35
REMARK VINA RESULT:    -7.520      4.937     14.513
REMARK INTER + INTRA:         -29.689
REMARK INTER:                 -24.874
REMARK INTRA:                  -4.815
REMARK UNBOUND:                -7.222
REMARK SMILES C=C1C(=O)N[C@H](C)C(=O)N[C@@H](CC(C)C)C(=O)N[C@@H](C(=O)O)[C@H](C)C(=O)N[C@@H](CCCN=C(N)N)C(=O)N[C@@H](/C=C/C(C)=C/[C@H](C)[C@H](Cc2ccccc2)OC)[C@H](C)C(=O)N[C@@H](C(=O)O)CCC(=O)N1C
REMARK SMILES IDX 39 1 38 2 37 3 36 4 28 6 27 7 25 8 26 9 23 11 24 12 19 13
REMARK SMILES IDX 18 14 16 15 17 16 11 18 10 19 8 20 9 21 12 24 13 25 14 26
REMARK SMILES IDX 15 27 20 28 21 29 22 30 29 32 30 33 31 34 32 35 33 36 34 37
REMARK SMILES IDX 35 38 57 43 58 44 59 45 60 46 61 47 62 49 66 50 67 51 68 52
REMARK SMILES IDX 69 53 70 54 71 55 2 56 1 57 3 58 4 59 5 60 6 62 7 63 63 65
REMARK SMILES IDX 64 66 65 67 40 69 41 70 42 71 44 72 43 73 45 74 46 75 47 76
REMARK SMILES IDX 55 77 56 78 48 79 49 80 50 81 54 82 51 83 53 84 52 85
REMARK H PARENT 38 5 27 10 18 17 10 22 22 31 34 39 34 40 35 41 35 42 61 48
REMARK H PARENT 5 61 65 68
REMARK Flexibility Score:  369.900
ROOT
ATOM      1  C   UNL     1      -1.111   2.627  -1.030  1.00  0.00     0.117 C 
ENDROOT
BRANCH   1   2
ATOM      2  N   UNL     1      -2.284   2.097  -1.726  1.00  0.00    -0.347 N 
ATOM      3  O   UNL     1      -3.863   3.446  -0.748  1.00  0.00    -0.273 OA
ATOM      4  C   UNL     1      -3.559   2.614  -1.595  1.00  0.00     0.243 C 
ATOM      5  H   UNL     1      -2.169   1.341  -2.383  1.00  0.00     0.164 HD
BRANCH   4   6
ATOM      6  C   UNL     1      -4.606   1.926  -2.508  1.00  0.00     0.171 C 
BRANCH   6   7
ATOM      7  N   UNL     1      -5.839   1.646  -1.755  1.00  0.00    -0.344 N 
ATOM      8  C   UNL     1      -6.368   0.374  -1.721  1.00  0.00     0.226 C 
ATOM      9  O   UNL     1      -5.863  -0.567  -2.322  1.00  0.00    -0.275 OA
ATOM     10  H   UNL     1      -6.322   2.412  -1.302  1.00  0.00     0.164 HD
BRANCH   8  11
ATOM     11  C   UNL     1      -7.610   0.236  -0.859  1.00  0.00     0.109 C 
ATOM     12  C   UNL     1      -7.672   1.373   0.161  1.00  0.00     0.021 C 
BRANCH  11  13
ATOM     13  C   UNL     1      -8.856   0.102  -1.757  1.00  0.00     0.204 C 
BRANCH  13  14
ATOM     14  N   UNL     1     -10.090   0.445  -1.043  1.00  0.00    -0.340 N 
ATOM     15  C   UNL     1     -11.335   0.016  -1.451  1.00  0.00     0.243 C 
ATOM     16  O   UNL     1     -11.492  -0.737  -2.410  1.00  0.00    -0.273 OA
ATOM     17  H   UNL     1     -10.047   1.183  -0.335  1.00  0.00     0.164 HD
BRANCH  15  18
ATOM     18  C   UNL     1     -12.501   0.670  -0.670  1.00  0.00     0.171 C 
BRANCH  18  19
ATOM     19  N   UNL     1     -13.017  -0.349   0.242  1.00  0.00    -0.343 N 
ATOM     20  C   UNL     1     -14.246  -0.949   0.045  1.00  0.00     0.242 CG0
ATOM     21  O   UNL     1     -15.018  -0.561  -0.829  1.00  0.00    -0.273 OA
ATOM     22  H   UNL     1     -12.465  -0.622   1.047  1.00  0.00     0.164 HD
ATOM     23  G   UNL     1     -14.585  -2.056   1.065  1.00  0.00     0.000 G0
ENDBRANCH  18  19
BRANCH  18  24
ATOM     24  C   UNL     1     -12.016   1.910   0.090  1.00  0.00     0.038 C 
BRANCH  24  25
ATOM     25  C   UNL     1     -12.244   1.862   1.616  1.00  0.00    -0.015 C 
ATOM     26  C   UNL     1     -13.116   3.014   2.114  1.00  0.00     0.007 C 
ATOM     27  C   UNL     1     -10.895   1.886   2.339  1.00  0.00     0.007 C 
ENDBRANCH  24  25
ENDBRANCH  18  24
ENDBRANCH  15  18
ENDBRANCH  13  14
BRANCH  13  28
ATOM     28  C   UNL     1      -8.796   0.984  -3.008  1.00  0.00     0.327 C 
ATOM     29  O   UNL     1      -8.753   2.205  -3.030  1.00  0.00    -0.250 OA
BRANCH  28  30
ATOM     30  O   UNL     1      -8.913   0.285  -4.154  1.00  0.00    -0.480 OA
ATOM     31  H   UNL     1      -9.452  -0.496  -3.907  1.00  0.00     0.296 HD
ENDBRANCH  28  30
ENDBRANCH  13  28
ENDBRANCH  11  13
ENDBRANCH   8  11
ENDBRANCH   6   7
BRANCH   6  32
ATOM     32  C   UNL     1      -4.893   2.828  -3.713  1.00  0.00     0.037 C 
BRANCH  32  33
ATOM     33  C   UNL     1      -5.709   2.107  -4.795  1.00  0.00     0.026 C 
BRANCH  33  34
ATOM     34  C   UNL     1      -6.370   3.078  -5.774  1.00  0.00     0.146 C 
BRANCH  34  35
ATOM     35  N   UNL     1      -6.950   2.317  -6.872  1.00  0.00    -0.254 NA
ATOM     36  C   UNL     1      -8.222   2.172  -6.915  1.00  0.00     0.185 C 
ATOM     37  N   UNL     1      -8.767   1.476  -7.925  1.00  0.00    -0.370 N 
ATOM     38  N   UNL     1      -9.154   2.632  -6.061  1.00  0.00    -0.370 N 
ATOM     39  H   UNL     1      -8.129   1.105  -8.617  1.00  0.00     0.159 HD
ATOM     40  H   UNL     1      -9.753   1.465  -8.124  1.00  0.00     0.159 HD
ATOM     41  H   UNL     1     -10.113   2.333  -6.127  1.00  0.00     0.159 HD
ATOM     42  H   UNL     1      -8.886   3.160  -5.245  1.00  0.00     0.159 HD
ENDBRANCH  34  35
ENDBRANCH  33  34
ENDBRANCH  32  33
ENDBRANCH   6  32
ENDBRANCH   4   6
ENDBRANCH   1   2
BRANCH   1  43
ATOM     43  C   UNL     1      -0.015   2.953  -2.084  1.00  0.00     0.102 C 
ATOM     44  C   UNL     1       0.882   4.139  -1.689  1.00  0.00     0.020 C 
BRANCH  43  45
ATOM     45  C   UNL     1      -0.619   3.072  -3.487  1.00  0.00     0.225 C 
ATOM     46  O   UNL     1      -1.593   3.775  -3.740  1.00  0.00    -0.275 OA
ATOM     47  N   UNL     1      -0.055   2.261  -4.445  1.00  0.00    -0.342 N 
ATOM     48  H   UNL     1       0.830   1.811  -4.262  1.00  0.00     0.164 HD
BRANCH  47  49
ATOM     49  C   UNL     1      -0.507   2.295  -5.839  1.00  0.00     0.192 C 
BRANCH  49  50
ATOM     50  C   UNL     1      -0.331   3.707  -6.404  1.00  0.00     0.047 C 
BRANCH  50  51
ATOM     51  C   UNL     1       0.326   3.701  -7.791  1.00  0.00     0.103 C 
BRANCH  51  52
ATOM     52  C   UNL     1       1.000   5.034  -8.112  1.00  0.00     0.226 C 
ATOM     53  O   UNL     1       0.743   6.027  -7.430  1.00  0.00    -0.275 OA
BRANCH  52  54
ATOM     54  N   UNL     1       1.953   5.021  -9.147  1.00  0.00    -0.311 N 
ATOM     55  C   UNL     1       3.349   4.646  -8.885  1.00  0.00     0.153 C 
BRANCH  54  56
ATOM     56  C   UNL     1       1.606   5.358 -10.466  1.00  0.00     0.102 C 
ATOM     57  C   UNL     1       0.380   5.733 -10.866  1.00  0.00     0.043 C 
BRANCH  56  58
ATOM     58  C   UNL     1       2.645   5.365 -11.563  1.00  0.00     0.268 C 
ATOM     59  O   UNL     1       2.985   4.358 -12.169  1.00  0.00    -0.268 OA
ATOM     60  N   UNL     1       3.117   6.623 -11.852  1.00  0.00    -0.339 N 
ATOM     61  H   UNL     1       2.792   7.405 -11.296  1.00  0.00     0.164 HD
BRANCH  60  62
ATOM     62  C   UNL     1       4.082   6.866 -12.923  1.00  0.00     0.168 CG0
ATOM     63  C   UNL     1       3.376   7.129 -14.248  1.00  0.00     0.041 C 
ATOM     64  G   UNL     1       5.035   5.658 -13.043  1.00  0.00     0.000 G0
ENDBRANCH  60  62
ENDBRANCH  56  58
ENDBRANCH  54  56
ENDBRANCH  52  54
ENDBRANCH  51  52
ENDBRANCH  50  51
ENDBRANCH  49  50
BRANCH  49  65
ATOM     65  C   UNL     1      -1.980   1.876  -5.968  1.00  0.00     0.326 C 
ATOM     66  O   UNL     1      -2.805   2.394  -6.707  1.00  0.00    -0.250 OA
BRANCH  65  67
ATOM     67  O   UNL     1      -2.359   0.884  -5.132  1.00  0.00    -0.480 OA
ATOM     68  H   UNL     1      -2.474   0.112  -5.726  1.00  0.00     0.296 HD
ENDBRANCH  65  67
ENDBRANCH  49  65
ENDBRANCH  47  49
ENDBRANCH  43  45
ENDBRANCH   1  43
BRANCH   1  69
ATOM     69  C   UNL     1      -0.792   1.638   0.077  1.00  0.00    -0.001 C 
ATOM     70  C   UNL     1       0.423   1.235   0.488  1.00  0.00     0.001 C 
BRANCH  70  71
ATOM     71  C   UNL     1       0.719   0.296   1.572  1.00  0.00    -0.055 C 
ATOM     72  C   UNL     1       0.605   0.745   2.839  1.00  0.00    -0.018 C 
ATOM     73  C   UNL     1       1.120  -1.107   1.196  1.00  0.00     0.044 C 
BRANCH  72  74
ATOM     74  C   UNL     1       0.842   0.005   4.148  1.00  0.00     0.038 C 
ATOM     75  C   UNL     1      -0.255   0.448   5.124  1.00  0.00     0.015 C 
BRANCH  74  76
ATOM     76  C   UNL     1       2.296   0.289   4.628  1.00  0.00     0.128 C 
BRANCH  76  77
ATOM     77  O   UNL     1       3.072  -0.921   4.587  1.00  0.00    -0.381 OA
ATOM     78  C   UNL     1       3.942  -1.004   3.466  1.00  0.00     0.195 C 
ENDBRANCH  76  77
BRANCH  76  79
ATOM     79  C   UNL     1       2.984   1.467   3.892  1.00  0.00     0.068 C 
BRANCH  79  80
ATOM     80  C   UNL     1       3.498   2.617   4.723  1.00  0.00    -0.045 A 
ATOM     81  C   UNL     1       4.871   2.790   4.945  1.00  0.00     0.004 A 
ATOM     82  C   UNL     1       2.601   3.519   5.314  1.00  0.00     0.004 A 
ATOM     83  C   UNL     1       5.338   3.848   5.728  1.00  0.00     0.000 A 
ATOM     84  C   UNL     1       3.069   4.577   6.097  1.00  0.00     0.000 A 
ATOM     85  C   UNL     1       4.437   4.742   6.302  1.00  0.00     0.000 A 
ENDBRANCH  79  80
ENDBRANCH  76  79
ENDBRANCH  74  76
ENDBRANCH  72  74
ENDBRANCH  70  71
ENDBRANCH   1  69
TORSDOF 17
ENDMDL
MODEL 36
REMARK VINA RESULT:    -7.504      3.282      8.151
REMARK INTER + INTRA:         -29.640
REMARK INTER:                 -23.904
REMARK INTRA:                  -5.736
REMARK UNBOUND:                -7.222
REMARK SMILES C=C1C(=O)N[C@H](C)C(=O)N[C@@H](CC(C)C)C(=O)N[C@@H](C(=O)O)[C@H](C)C(=O)N[C@@H](CCCN=C(N)N)C(=O)N[C@@H](/C=C/C(C)=C/[C@H](C)[C@H](Cc2ccccc2)OC)[C@H](C)C(=O)N[C@@H](C(=O)O)CCC(=O)N1C
REMARK SMILES IDX 39 1 38 2 37 3 36 4 28 6 27 7 25 8 26 9 23 11 24 12 19 13
REMARK SMILES IDX 18 14 16 15 17 16 11 18 10 19 8 20 9 21 12 24 13 25 14 26
REMARK SMILES IDX 15 27 20 28 21 29 22 30 29 32 30 33 31 34 32 35 33 36 34 37
REMARK SMILES IDX 35 38 57 43 58 44 59 45 60 46 61 47 62 49 66 50 67 51 68 52
REMARK SMILES IDX 69 53 70 54 71 55 2 56 1 57 3 58 4 59 5 60 6 62 7 63 63 65
REMARK SMILES IDX 64 66 65 67 40 69 41 70 42 71 44 72 43 73 45 74 46 75 47 76
REMARK SMILES IDX 55 77 56 78 48 79 49 80 50 81 54 82 51 83 53 84 52 85
REMARK H PARENT 38 5 27 10 18 17 10 22 22 31 34 39 34 40 35 41 35 42 61 48
REMARK H PARENT 5 61 65 68
REMARK Flexibility Score:  369.900
ROOT
ATOM      1  C   UNL     1     -11.072   0.314  -1.978  1.00  0.00     0.117 C 
ENDROOT
BRANCH   1   2
ATOM      2  N   UNL     1     -10.681   0.363  -3.387  1.00  0.00    -0.347 N 
ATOM      3  O   UNL     1      -9.750   2.462  -3.380  1.00  0.00    -0.273 OA
ATOM      4  C   UNL     1      -9.967   1.400  -3.955  1.00  0.00     0.243 C 
ATOM      5  H   UNL     1     -10.893  -0.420  -3.986  1.00  0.00     0.164 HD
BRANCH   4   6
ATOM      6  C   UNL     1      -9.606   1.166  -5.444  1.00  0.00     0.171 C 
BRANCH   6   7
ATOM      7  N   UNL     1      -8.217   1.573  -5.707  1.00  0.00    -0.344 N 
ATOM      8  C   UNL     1      -7.815   1.919  -6.979  1.00  0.00     0.226 C 
ATOM      9  O   UNL     1      -8.571   1.884  -7.943  1.00  0.00    -0.275 OA
ATOM     10  H   UNL     1      -7.547   1.550  -4.949  1.00  0.00     0.164 HD
BRANCH   8  11
ATOM     11  C   UNL     1      -6.367   2.368  -7.078  1.00  0.00     0.109 C 
ATOM     12  C   UNL     1      -5.860   2.810  -5.705  1.00  0.00     0.021 C 
BRANCH  11  13
ATOM     13  C   UNL     1      -5.525   1.270  -7.758  1.00  0.00     0.204 C 
BRANCH  13  14
ATOM     14  N   UNL     1      -5.808   1.168  -9.193  1.00  0.00    -0.340 N 
ATOM     15  C   UNL     1      -5.818  -0.032  -9.870  1.00  0.00     0.243 C 
ATOM     16  O   UNL     1      -5.649  -1.111  -9.304  1.00  0.00    -0.273 OA
ATOM     17  H   UNL     1      -5.806   2.030  -9.746  1.00  0.00     0.164 HD
BRANCH  15  18
ATOM     18  C   UNL     1      -5.933   0.125 -11.406  1.00  0.00     0.171 C 
BRANCH  18  19
ATOM     19  N   UNL     1      -4.598  -0.114 -11.952  1.00  0.00    -0.343 N 
ATOM     20  C   UNL     1      -3.566   0.787 -11.774  1.00  0.00     0.242 CG0
ATOM     21  O   UNL     1      -3.754   1.889 -11.265  1.00  0.00    -0.273 OA
ATOM     22  H   UNL     1      -4.422  -0.960 -12.483  1.00  0.00     0.164 HD
ATOM     23  G   UNL     1      -2.212   0.327 -12.354  1.00  0.00     0.000 G0
ENDBRANCH  18  19
BRANCH  18  24
ATOM     24  C   UNL     1      -6.958  -0.862 -11.976  1.00  0.00     0.038 C 
BRANCH  24  25
ATOM     25  C   UNL     1      -7.646  -0.397 -13.278  1.00  0.00    -0.015 C 
ATOM     26  C   UNL     1      -7.856   1.116 -13.320  1.00  0.00     0.007 C 
ATOM     27  C   UNL     1      -8.993  -1.109 -13.430  1.00  0.00     0.007 C 
ENDBRANCH  24  25
ENDBRANCH  18  24
ENDBRANCH  15  18
ENDBRANCH  13  14
BRANCH  13  28
ATOM     28  C   UNL     1      -4.017   1.487  -7.607  1.00  0.00     0.327 C 
ATOM     29  O   UNL     1      -3.250   0.799  -6.950  1.00  0.00    -0.250 OA
BRANCH  28  30
ATOM     30  O   UNL     1      -3.584   2.621  -8.194  1.00  0.00    -0.480 OA
ATOM     31  H   UNL     1      -2.708   2.382  -8.564  1.00  0.00     0.296 HD
ENDBRANCH  28  30
ENDBRANCH  13  28
ENDBRANCH  11  13
ENDBRANCH   8  11
ENDBRANCH   6   7
BRANCH   6  32
ATOM     32  C   UNL     1      -9.817  -0.313  -5.786  1.00  0.00     0.037 C 
BRANCH  32  33
ATOM     33  C   UNL     1     -11.208  -0.578  -6.379  1.00  0.00     0.026 C 
BRANCH  33  34
ATOM     34  C   UNL     1     -11.309  -0.160  -7.846  1.00  0.00     0.146 C 
BRANCH  34  35
ATOM     35  N   UNL     1     -12.131   1.039  -7.938  1.00  0.00    -0.254 NA
ATOM     36  C   UNL     1     -11.852   1.908  -8.836  1.00  0.00     0.185 C 
ATOM     37  N   UNL     1     -12.606   3.014  -8.933  1.00  0.00    -0.370 N 
ATOM     38  N   UNL     1     -10.869   1.889  -9.753  1.00  0.00    -0.370 N 
ATOM     39  H   UNL     1     -13.376   3.096  -8.281  1.00  0.00     0.159 HD
ATOM     40  H   UNL     1     -12.563   3.650  -9.710  1.00  0.00     0.159 HD
ATOM     41  H   UNL     1     -10.666   2.699 -10.316  1.00  0.00     0.159 HD
ATOM     42  H   UNL     1     -10.214   1.124  -9.787  1.00  0.00     0.159 HD
ENDBRANCH  34  35
ENDBRANCH  33  34
ENDBRANCH  32  33
ENDBRANCH   6  32
ENDBRANCH   4   6
ENDBRANCH   1   2
BRANCH   1  43
ATOM     43  C   UNL     1     -12.191   1.368  -1.737  1.00  0.00     0.102 C 
ATOM     44  C   UNL     1     -11.746   2.542  -0.849  1.00  0.00     0.020 C 
BRANCH  43  45
ATOM     45  C   UNL     1     -13.489   0.697  -1.276  1.00  0.00     0.225 C 
ATOM     46  O   UNL     1     -13.656  -0.519  -1.288  1.00  0.00    -0.275 OA
ATOM     47  N   UNL     1     -14.507   1.555  -0.928  1.00  0.00    -0.342 N 
ATOM     48  H   UNL     1     -14.308   2.534  -0.778  1.00  0.00     0.164 HD
BRANCH  47  49
ATOM     49  C   UNL     1     -15.794   1.055  -0.433  1.00  0.00     0.192 C 
BRANCH  49  50
ATOM     50  C   UNL     1     -16.819   1.058  -1.570  1.00  0.00     0.047 C 
BRANCH  50  51
ATOM     51  C   UNL     1     -17.102  -0.353  -2.103  1.00  0.00     0.103 C 
BRANCH  51  52
ATOM     52  C   UNL     1     -16.816  -0.470  -3.598  1.00  0.00     0.226 C 
ATOM     53  O   UNL     1     -15.650  -0.480  -3.998  1.00  0.00    -0.275 OA
BRANCH  52  54
ATOM     54  N   UNL     1     -17.932  -0.637  -4.439  1.00  0.00    -0.311 N 
ATOM     55  C   UNL     1     -18.743  -1.861  -4.385  1.00  0.00     0.153 C 
BRANCH  54  56
ATOM     56  C   UNL     1     -18.316   0.358  -5.353  1.00  0.00     0.102 C 
ATOM     57  C   UNL     1     -17.714   0.593  -6.531  1.00  0.00     0.043 C 
BRANCH  56  58
ATOM     58  C   UNL     1     -19.513   1.239  -5.083  1.00  0.00     0.268 C 
ATOM     59  O   UNL     1     -20.429   1.389  -5.880  1.00  0.00    -0.268 OA
ATOM     60  N   UNL     1     -19.498   1.800  -3.828  1.00  0.00    -0.339 N 
ATOM     61  H   UNL     1     -18.696   1.636  -3.230  1.00  0.00     0.164 HD
BRANCH  60  62
ATOM     62  C   UNL     1     -20.590   2.638  -3.336  1.00  0.00     0.168 CG0
ATOM     63  C   UNL     1     -20.179   3.390  -2.076  1.00  0.00     0.041 C 
ATOM     64  G   UNL     1     -21.832   1.763  -3.068  1.00  0.00     0.000 G0
ENDBRANCH  60  62
ENDBRANCH  56  58
ENDBRANCH  54  56
ENDBRANCH  52  54
ENDBRANCH  51  52
ENDBRANCH  50  51
ENDBRANCH  49  50
BRANCH  49  65
ATOM     65  C   UNL     1     -16.323   1.907   0.732  1.00  0.00     0.326 C 
ATOM     66  O   UNL     1     -15.633   2.506   1.544  1.00  0.00    -0.250 OA
BRANCH  65  67
ATOM     67  O   UNL     1     -17.668   1.917   0.857  1.00  0.00    -0.480 OA
ATOM     68  H   UNL     1     -17.982   1.512   0.020  1.00  0.00     0.296 HD
ENDBRANCH  65  67
ENDBRANCH  49  65
ENDBRANCH  47  49
ENDBRANCH  43  45
ENDBRANCH   1  43
BRANCH   1  69
ATOM     69  C   UNL     1      -9.787   0.414  -1.177  1.00  0.00    -0.001 C 
ATOM     70  C   UNL     1      -9.590   0.047   0.101  1.00  0.00     0.001 C 
BRANCH  70  71
ATOM     71  C   UNL     1      -8.338   0.128   0.857  1.00  0.00    -0.055 C 
ATOM     72  C   UNL     1      -7.690   1.312   0.872  1.00  0.00    -0.018 C 
ATOM     73  C   UNL     1      -7.867  -1.112   1.572  1.00  0.00     0.044 C 
BRANCH  72  74
ATOM     74  C   UNL     1      -6.388   1.688   1.565  1.00  0.00     0.038 C 
ATOM     75  C   UNL     1      -6.748   2.162   2.978  1.00  0.00     0.015 C 
BRANCH  74  76
ATOM     76  C   UNL     1      -5.642   2.741   0.693  1.00  0.00     0.128 C 
BRANCH  76  77
ATOM     77  O   UNL     1      -4.224   2.639   0.905  1.00  0.00    -0.381 OA
ATOM     78  C   UNL     1      -3.664   3.764   1.570  1.00  0.00     0.195 C 
ENDBRANCH  76  77
BRANCH  76  79
ATOM     79  C   UNL     1      -6.028   2.703  -0.807  1.00  0.00     0.068 C 
BRANCH  79  80
ATOM     80  C   UNL     1      -4.946   2.377  -1.808  1.00  0.00    -0.045 A 
ATOM     81  C   UNL     1      -4.156   3.388  -2.372  1.00  0.00     0.004 A 
ATOM     82  C   UNL     1      -4.732   1.050  -2.211  1.00  0.00     0.004 A 
ATOM     83  C   UNL     1      -3.166   3.079  -3.307  1.00  0.00     0.000 A 
ATOM     84  C   UNL     1      -3.742   0.743  -3.147  1.00  0.00     0.000 A 
ATOM     85  C   UNL     1      -2.958   1.757  -3.694  1.00  0.00     0.000 A 
ENDBRANCH  79  80
ENDBRANCH  76  79
ENDBRANCH  74  76
ENDBRANCH  72  74
ENDBRANCH  70  71
ENDBRANCH   1  69
TORSDOF 17
ENDMDL
MODEL 37
REMARK VINA RESULT:    -7.497      4.487     10.215
REMARK INTER + INTRA:         -29.620
REMARK INTER:                 -23.320
REMARK INTRA:                  -6.300
REMARK UNBOUND:                -7.222
REMARK SMILES C=C1C(=O)N[C@H](C)C(=O)N[C@@H](CC(C)C)C(=O)N[C@@H](C(=O)O)[C@H](C)C(=O)N[C@@H](CCCN=C(N)N)C(=O)N[C@@H](/C=C/C(C)=C/[C@H](C)[C@H](Cc2ccccc2)OC)[C@H](C)C(=O)N[C@@H](C(=O)O)CCC(=O)N1C
REMARK SMILES IDX 39 1 38 2 37 3 36 4 28 6 27 7 25 8 26 9 23 11 24 12 19 13
REMARK SMILES IDX 18 14 16 15 17 16 11 18 10 19 8 20 9 21 12 24 13 25 14 26
REMARK SMILES IDX 15 27 20 28 21 29 22 30 29 32 30 33 31 34 32 35 33 36 34 37
REMARK SMILES IDX 35 38 57 43 58 44 59 45 60 46 61 47 62 49 66 50 67 51 68 52
REMARK SMILES IDX 69 53 70 54 71 55 2 56 1 57 3 58 4 59 5 60 6 62 7 63 63 65
REMARK SMILES IDX 64 66 65 67 40 69 41 70 42 71 44 72 43 73 45 74 46 75 47 76
REMARK SMILES IDX 55 77 56 78 48 79 49 80 50 81 54 82 51 83 53 84 52 85
REMARK H PARENT 38 5 27 10 18 17 10 22 22 31 34 39 34 40 35 41 35 42 61 48
REMARK H PARENT 5 61 65 68
REMARK Flexibility Score:  369.900
ROOT
ATOM      1  C   UNL     1      -0.807   2.637  -4.521  1.00  0.00     0.117 C 
ENDROOT
BRANCH   1   2
ATOM      2  N   UNL     1      -2.083   2.661  -5.238  1.00  0.00    -0.347 N 
ATOM      3  O   UNL     1      -2.993   0.763  -4.321  1.00  0.00    -0.273 OA
ATOM      4  C   UNL     1      -3.114   1.769  -5.012  1.00  0.00     0.243 C 
ATOM      5  H   UNL     1      -2.260   3.394  -5.908  1.00  0.00     0.164 HD
BRANCH   4   6
ATOM      6  C   UNL     1      -4.388   2.066  -5.842  1.00  0.00     0.171 C 
BRANCH   6   7
ATOM      7  N   UNL     1      -4.287   1.455  -7.177  1.00  0.00    -0.344 N 
ATOM      8  C   UNL     1      -4.294   2.237  -8.311  1.00  0.00     0.226 C 
ATOM      9  O   UNL     1      -4.407   3.457  -8.271  1.00  0.00    -0.275 OA
ATOM     10  H   UNL     1      -4.260   0.446  -7.254  1.00  0.00     0.164 HD
BRANCH   8  11
ATOM     11  C   UNL     1      -4.127   1.463  -9.607  1.00  0.00     0.109 C 
ATOM     12  C   UNL     1      -3.743   0.014  -9.308  1.00  0.00     0.021 C 
BRANCH  11  13
ATOM     13  C   UNL     1      -5.385   1.633 -10.482  1.00  0.00     0.204 C 
BRANCH  13  14
ATOM     14  N   UNL     1      -5.325   0.817 -11.698  1.00  0.00    -0.340 N 
ATOM     15  C   UNL     1      -5.499   1.341 -12.961  1.00  0.00     0.243 C 
ATOM     16  O   UNL     1      -5.658   2.544 -13.160  1.00  0.00    -0.273 OA
ATOM     17  H   UNL     1      -5.348  -0.202 -11.595  1.00  0.00     0.164 HD
BRANCH  15  18
ATOM     18  C   UNL     1      -5.602   0.264 -14.069  1.00  0.00     0.171 C 
BRANCH  18  19
ATOM     19  N   UNL     1      -4.388   0.376 -14.875  1.00  0.00    -0.343 N 
ATOM     20  C   UNL     1      -4.436   0.613 -16.236  1.00  0.00     0.242 CG0
ATOM     21  O   UNL     1      -5.499   0.608 -16.853  1.00  0.00    -0.273 OA
ATOM     22  H   UNL     1      -3.484   0.273 -14.430  1.00  0.00     0.164 HD
ATOM     23  G   UNL     1      -3.055   0.779 -16.902  1.00  0.00     0.000 G0
ENDBRANCH  18  19
BRANCH  18  24
ATOM     24  C   UNL     1      -5.741  -1.134 -13.455  1.00  0.00     0.038 C 
BRANCH  24  25
ATOM     25  C   UNL     1      -7.047  -1.871 -13.819  1.00  0.00    -0.015 C 
ATOM     26  C   UNL     1      -7.118  -2.236 -15.302  1.00  0.00     0.007 C 
ATOM     27  C   UNL     1      -8.250  -1.003 -13.444  1.00  0.00     0.007 C 
ENDBRANCH  24  25
ENDBRANCH  18  24
ENDBRANCH  15  18
ENDBRANCH  13  14
BRANCH  13  28
ATOM     28  C   UNL     1      -6.681   1.267  -9.753  1.00  0.00     0.327 C 
ATOM     29  O   UNL     1      -7.326   0.239  -9.898  1.00  0.00    -0.250 OA
BRANCH  28  30
ATOM     30  O   UNL     1      -7.151   2.264  -8.976  1.00  0.00    -0.480 OA
ATOM     31  H   UNL     1      -7.622   1.803  -8.251  1.00  0.00     0.296 HD
ENDBRANCH  28  30
ENDBRANCH  13  28
ENDBRANCH  11  13
ENDBRANCH   8  11
ENDBRANCH   6   7
BRANCH   6  32
ATOM     32  C   UNL     1      -5.614   1.537  -5.090  1.00  0.00     0.037 C 
BRANCH  32  33
ATOM     33  C   UNL     1      -6.917   2.186  -5.577  1.00  0.00     0.026 C 
BRANCH  33  34
ATOM     34  C   UNL     1      -8.133   1.281  -5.372  1.00  0.00     0.146 C 
BRANCH  34  35
ATOM     35  N   UNL     1      -8.491   0.679  -6.650  1.00  0.00    -0.254 NA
ATOM     36  C   UNL     1      -9.595   1.021  -7.202  1.00  0.00     0.185 C 
ATOM     37  N   UNL     1      -9.932   0.477  -8.381  1.00  0.00    -0.370 N 
ATOM     38  N   UNL     1     -10.525   1.889  -6.765  1.00  0.00    -0.370 N 
ATOM     39  H   UNL     1      -9.276  -0.181  -8.782  1.00  0.00     0.159 HD
ATOM     40  H   UNL     1     -10.684   0.816  -8.956  1.00  0.00     0.159 HD
ATOM     41  H   UNL     1     -11.418   1.969  -7.223  1.00  0.00     0.159 HD
ATOM     42  H   UNL     1     -10.410   2.362  -5.883  1.00  0.00     0.159 HD
ENDBRANCH  34  35
ENDBRANCH  33  34
ENDBRANCH  32  33
ENDBRANCH   6  32
ENDBRANCH   4   6
ENDBRANCH   1   2
BRANCH   1  43
ATOM     43  C   UNL     1      -0.937   3.526  -3.251  1.00  0.00     0.102 C 
ATOM     44  C   UNL     1       0.368   4.247  -2.873  1.00  0.00     0.020 C 
BRANCH  43  45
ATOM     45  C   UNL     1      -1.574   2.747  -2.097  1.00  0.00     0.225 C 
ATOM     46  O   UNL     1      -0.974   1.889  -1.455  1.00  0.00    -0.275 OA
ATOM     47  N   UNL     1      -2.908   3.001  -1.875  1.00  0.00    -0.342 N 
ATOM     48  H   UNL     1      -3.341   3.807  -2.303  1.00  0.00     0.164 HD
BRANCH  47  49
ATOM     49  C   UNL     1      -3.639   2.355  -0.781  1.00  0.00     0.192 C 
BRANCH  49  50
ATOM     50  C   UNL     1      -5.109   2.782  -0.822  1.00  0.00     0.047 C 
BRANCH  50  51
ATOM     51  C   UNL     1      -6.012   1.836  -0.019  1.00  0.00     0.103 C 
BRANCH  51  52
ATOM     52  C   UNL     1      -6.915   1.000  -0.924  1.00  0.00     0.226 C 
ATOM     53  O   UNL     1      -6.454   0.014  -1.503  1.00  0.00    -0.275 OA
BRANCH  52  54
ATOM     54  N   UNL     1      -8.270   1.377  -0.979  1.00  0.00    -0.311 N 
ATOM     55  C   UNL     1      -8.706   2.510  -1.806  1.00  0.00     0.153 C 
BRANCH  54  56
ATOM     56  C   UNL     1      -9.253   0.684  -0.253  1.00  0.00     0.102 C 
ATOM     57  C   UNL     1     -10.554   0.629  -0.581  1.00  0.00     0.043 C 
BRANCH  56  58
ATOM     58  C   UNL     1      -8.889  -0.118   0.974  1.00  0.00     0.268 C 
ATOM     59  O   UNL     1      -8.777  -1.337   0.968  1.00  0.00    -0.268 OA
ATOM     60  N   UNL     1      -8.633   0.664   2.075  1.00  0.00    -0.339 N 
ATOM     61  H   UNL     1      -8.759   1.666   2.000  1.00  0.00     0.164 HD
BRANCH  60  62
ATOM     62  C   UNL     1      -8.203   0.095   3.351  1.00  0.00     0.168 CG0
ATOM     63  C   UNL     1      -9.367   0.007   4.331  1.00  0.00     0.041 C 
ATOM     64  G   UNL     1      -7.060   0.948   3.938  1.00  0.00     0.000 G0
ENDBRANCH  60  62
ENDBRANCH  56  58
ENDBRANCH  54  56
ENDBRANCH  52  54
ENDBRANCH  51  52
ENDBRANCH  50  51
ENDBRANCH  49  50
BRANCH  49  65
ATOM     65  C   UNL     1      -3.043   2.714   0.589  1.00  0.00     0.326 C 
ATOM     66  O   UNL     1      -3.106   3.810   1.126  1.00  0.00    -0.250 OA
BRANCH  65  67
ATOM     67  O   UNL     1      -2.355   1.715   1.184  1.00  0.00    -0.480 OA
ATOM     68  H   UNL     1      -1.416   1.962   1.038  1.00  0.00     0.296 HD
ENDBRANCH  65  67
ENDBRANCH  49  65
ENDBRANCH  47  49
ENDBRANCH  43  45
ENDBRANCH   1  43
BRANCH   1  69
ATOM     69  C   UNL     1       0.261   2.973  -5.546  1.00  0.00    -0.001 C 
ATOM     70  C   UNL     1       0.220   3.936  -6.484  1.00  0.00     0.001 C 
BRANCH  70  71
ATOM     71  C   UNL     1       1.267   4.264  -7.453  1.00  0.00    -0.055 C 
ATOM     72  C   UNL     1       1.133   5.407  -8.158  1.00  0.00    -0.018 C 
ATOM     73  C   UNL     1       2.423   3.308  -7.590  1.00  0.00     0.044 C 
BRANCH  72  74
ATOM     74  C   UNL     1       2.052   5.999  -9.218  1.00  0.00     0.038 C 
ATOM     75  C   UNL     1       2.138   7.507  -8.951  1.00  0.00     0.015 C 
BRANCH  74  76
ATOM     76  C   UNL     1       1.507   5.615 -10.625  1.00  0.00     0.128 C 
BRANCH  76  77
ATOM     77  O   UNL     1       2.262   4.514 -11.160  1.00  0.00    -0.381 OA
ATOM     78  C   UNL     1       3.666   4.646 -10.984  1.00  0.00     0.195 C 
ENDBRANCH  76  77
BRANCH  76  79
ATOM     79  C   UNL     1      -0.022   5.367 -10.662  1.00  0.00     0.068 C 
BRANCH  79  80
ATOM     80  C   UNL     1      -0.557   4.401 -11.691  1.00  0.00    -0.045 A 
ATOM     81  C   UNL     1      -0.137   4.462 -13.026  1.00  0.00     0.004 A 
ATOM     82  C   UNL     1      -1.512   3.439 -11.328  1.00  0.00     0.004 A 
ATOM     83  C   UNL     1      -0.648   3.574 -13.974  1.00  0.00     0.000 A 
ATOM     84  C   UNL     1      -2.022   2.551 -12.277  1.00  0.00     0.000 A 
ATOM     85  C   UNL     1      -1.589   2.618 -13.600  1.00  0.00     0.000 A 
ENDBRANCH  79  80
ENDBRANCH  76  79
ENDBRANCH  74  76
ENDBRANCH  72  74
ENDBRANCH  70  71
ENDBRANCH   1  69
TORSDOF 17
ENDMDL
MODEL 38
REMARK VINA RESULT:    -7.475      5.062     14.892
REMARK INTER + INTRA:         -29.555
REMARK INTER:                 -24.433
REMARK INTRA:                  -5.122
REMARK UNBOUND:                -7.222
REMARK SMILES C=C1C(=O)N[C@H](C)C(=O)N[C@@H](CC(C)C)C(=O)N[C@@H](C(=O)O)[C@H](C)C(=O)N[C@@H](CCCN=C(N)N)C(=O)N[C@@H](/C=C/C(C)=C/[C@H](C)[C@H](Cc2ccccc2)OC)[C@H](C)C(=O)N[C@@H](C(=O)O)CCC(=O)N1C
REMARK SMILES IDX 39 1 38 2 37 3 36 4 28 6 27 7 25 8 26 9 23 11 24 12 19 13
REMARK SMILES IDX 18 14 16 15 17 16 11 18 10 19 8 20 9 21 12 24 13 25 14 26
REMARK SMILES IDX 15 27 20 28 21 29 22 30 29 32 30 33 31 34 32 35 33 36 34 37
REMARK SMILES IDX 35 38 57 43 58 44 59 45 60 46 61 47 62 49 66 50 67 51 68 52
REMARK SMILES IDX 69 53 70 54 71 55 2 56 1 57 3 58 4 59 5 60 6 62 7 63 63 65
REMARK SMILES IDX 64 66 65 67 40 69 41 70 42 71 44 72 43 73 45 74 46 75 47 76
REMARK SMILES IDX 55 77 56 78 48 79 49 80 50 81 54 82 51 83 53 84 52 85
REMARK H PARENT 38 5 27 10 18 17 10 22 22 31 34 39 34 40 35 41 35 42 61 48
REMARK H PARENT 5 61 65 68
REMARK Flexibility Score:  369.900
ROOT
ATOM      1  C   UNL     1      -1.957   2.402  -5.257  1.00  0.00     0.117 C 
ENDROOT
BRANCH   1   2
ATOM      2  N   UNL     1      -2.871   1.585  -6.055  1.00  0.00    -0.347 N 
ATOM      3  O   UNL     1      -4.698   2.970  -5.955  1.00  0.00    -0.273 OA
ATOM      4  C   UNL     1      -4.144   1.979  -6.418  1.00  0.00     0.243 C 
ATOM      5  H   UNL     1      -2.554   0.697  -6.415  1.00  0.00     0.164 HD
BRANCH   4   6
ATOM      6  C   UNL     1      -4.872   0.966  -7.338  1.00  0.00     0.171 C 
BRANCH   6   7
ATOM      7  N   UNL     1      -6.115   1.551  -7.865  1.00  0.00    -0.344 N 
ATOM      8  C   UNL     1      -7.293   0.836  -7.842  1.00  0.00     0.226 C 
ATOM      9  O   UNL     1      -7.362  -0.309  -7.411  1.00  0.00    -0.275 OA
ATOM     10  H   UNL     1      -6.083   2.469  -8.291  1.00  0.00     0.164 HD
BRANCH   8  11
ATOM     11  C   UNL     1      -8.496   1.596  -8.371  1.00  0.00     0.109 C 
ATOM     12  C   UNL     1      -9.220   0.764  -9.430  1.00  0.00     0.021 C 
BRANCH  11  13
ATOM     13  C   UNL     1      -9.379   2.059  -7.195  1.00  0.00     0.204 C 
BRANCH  13  14
ATOM     14  N   UNL     1     -10.281   1.000  -6.732  1.00  0.00    -0.340 N 
ATOM     15  C   UNL     1     -11.638   1.014  -6.973  1.00  0.00     0.243 C 
ATOM     16  O   UNL     1     -12.180   1.889  -7.647  1.00  0.00    -0.273 OA
ATOM     17  H   UNL     1      -9.924   0.331  -6.045  1.00  0.00     0.164 HD
BRANCH  15  18
ATOM     18  C   UNL     1     -12.413  -0.091  -6.214  1.00  0.00     0.171 C 
BRANCH  18  19
ATOM     19  N   UNL     1     -13.123  -0.873  -7.225  1.00  0.00    -0.343 N 
ATOM     20  C   UNL     1     -14.482  -0.736  -7.430  1.00  0.00     0.242 CG0
ATOM     21  O   UNL     1     -15.179  -0.051  -6.685  1.00  0.00    -0.273 OA
ATOM     22  H   UNL     1     -12.609  -1.540  -7.789  1.00  0.00     0.164 HD
ATOM     23  G   UNL     1     -15.040  -1.585  -8.591  1.00  0.00     0.000 G0
ENDBRANCH  18  19
BRANCH  18  24
ATOM     24  C   UNL     1     -11.451  -0.965  -5.401  1.00  0.00     0.038 C 
BRANCH  24  25
ATOM     25  C   UNL     1     -11.714  -0.970  -3.880  1.00  0.00    -0.015 C 
ATOM     26  C   UNL     1     -13.153  -1.355  -3.536  1.00  0.00     0.007 C 
ATOM     27  C   UNL     1     -11.397   0.411  -3.299  1.00  0.00     0.007 C 
ENDBRANCH  24  25
ENDBRANCH  18  24
ENDBRANCH  15  18
ENDBRANCH  13  14
BRANCH  13  28
ATOM     28  C   UNL     1      -8.571   2.529  -5.982  1.00  0.00     0.327 C 
ATOM     29  O   UNL     1      -8.808   2.271  -4.811  1.00  0.00    -0.250 OA
BRANCH  28  30
ATOM     30  O   UNL     1      -7.584   3.389  -6.305  1.00  0.00    -0.480 OA
ATOM     31  H   UNL     1      -7.497   3.302  -7.277  1.00  0.00     0.296 HD
ENDBRANCH  28  30
ENDBRANCH  13  28
ENDBRANCH  11  13
ENDBRANCH   8  11
ENDBRANCH   6   7
BRANCH   6  32
ATOM     32  C   UNL     1      -3.933   0.556  -8.478  1.00  0.00     0.037 C 
BRANCH  32  33
ATOM     33  C   UNL     1      -4.131   1.421  -9.731  1.00  0.00     0.026 C 
BRANCH  33  34
ATOM     34  C   UNL     1      -4.669   0.618 -10.916  1.00  0.00     0.146 C 
BRANCH  34  35
ATOM     35  N   UNL     1      -4.796  -0.777 -10.520  1.00  0.00    -0.254 NA
ATOM     36  C   UNL     1      -5.863  -1.412 -10.839  1.00  0.00     0.185 C 
ATOM     37  N   UNL     1      -5.988  -2.699 -10.483  1.00  0.00    -0.370 N 
ATOM     38  N   UNL     1      -6.939  -0.970 -11.513  1.00  0.00    -0.370 N 
ATOM     39  H   UNL     1      -5.212  -3.109  -9.979  1.00  0.00     0.159 HD
ATOM     40  H   UNL     1      -6.705  -3.308 -10.840  1.00  0.00     0.159 HD
ATOM     41  H   UNL     1      -7.776  -1.525 -11.581  1.00  0.00     0.159 HD
ATOM     42  H   UNL     1      -6.988  -0.014 -11.830  1.00  0.00     0.159 HD
ENDBRANCH  34  35
ENDBRANCH  33  34
ENDBRANCH  32  33
ENDBRANCH   6  32
ENDBRANCH   4   6
ENDBRANCH   1   2
BRANCH   1  43
ATOM     43  C   UNL     1      -0.524   2.262  -5.846  1.00  0.00     0.102 C 
ATOM     44  C   UNL     1       0.588   2.391  -4.790  1.00  0.00     0.020 C 
BRANCH  43  45
ATOM     45  C   UNL     1      -0.336   3.177  -7.060  1.00  0.00     0.225 C 
ATOM     46  O   UNL     1      -1.222   3.389  -7.883  1.00  0.00    -0.275 OA
ATOM     47  N   UNL     1       0.932   3.683  -7.230  1.00  0.00    -0.342 N 
ATOM     48  H   UNL     1       1.599   3.626  -6.474  1.00  0.00     0.164 HD
BRANCH  47  49
ATOM     49  C   UNL     1       1.249   4.602  -8.328  1.00  0.00     0.192 C 
BRANCH  49  50
ATOM     50  C   UNL     1       2.763   4.629  -8.554  1.00  0.00     0.047 C 
BRANCH  50  51
ATOM     51  C   UNL     1       3.128   4.737 -10.041  1.00  0.00     0.103 C 
BRANCH  51  52
ATOM     52  C   UNL     1       4.616   5.009 -10.249  1.00  0.00     0.226 C 
ATOM     53  O   UNL     1       5.446   4.429  -9.545  1.00  0.00    -0.275 OA
BRANCH  52  54
ATOM     54  N   UNL     1       4.955   5.869 -11.309  1.00  0.00    -0.311 N 
ATOM     55  C   UNL     1       5.382   5.335 -12.609  1.00  0.00     0.153 C 
BRANCH  54  56
ATOM     56  C   UNL     1       4.891   7.265 -11.168  1.00  0.00     0.102 C 
ATOM     57  C   UNL     1       4.882   8.141 -12.186  1.00  0.00     0.043 C 
BRANCH  56  58
ATOM     58  C   UNL     1       4.779   7.902  -9.803  1.00  0.00     0.268 C 
ATOM     59  O   UNL     1       5.631   7.777  -8.934  1.00  0.00    -0.268 OA
ATOM     60  N   UNL     1       3.659   8.686  -9.663  1.00  0.00    -0.339 N 
ATOM     61  H   UNL     1       2.996   8.729 -10.427  1.00  0.00     0.164 HD
BRANCH  60  62
ATOM     62  C   UNL     1       3.387   9.445  -8.442  1.00  0.00     0.168 CG0
ATOM     63  C   UNL     1       3.846  10.891  -8.583  1.00  0.00     0.041 C 
ATOM     64  G   UNL     1       4.083   8.765  -7.245  1.00  0.00     0.000 G0
ENDBRANCH  60  62
ENDBRANCH  56  58
ENDBRANCH  54  56
ENDBRANCH  52  54
ENDBRANCH  51  52
ENDBRANCH  50  51
ENDBRANCH  49  50
BRANCH  49  65
ATOM     65  C   UNL     1       0.752   6.026  -8.037  1.00  0.00     0.326 C 
ATOM     66  O   UNL     1       1.151   7.044  -8.584  1.00  0.00    -0.250 OA
BRANCH  65  67
ATOM     67  O   UNL     1      -0.162   6.113  -7.045  1.00  0.00    -0.480 OA
ATOM     68  H   UNL     1      -0.991   6.347  -7.515  1.00  0.00     0.296 HD
ENDBRANCH  65  67
ENDBRANCH  49  65
ENDBRANCH  47  49
ENDBRANCH  43  45
ENDBRANCH   1  43
BRANCH   1  69
ATOM     69  C   UNL     1      -2.195   2.014  -3.809  1.00  0.00    -0.001 C 
ATOM     70  C   UNL     1      -2.993   2.630  -2.918  1.00  0.00     0.001 C 
BRANCH  70  71
ATOM     71  C   UNL     1      -3.232   2.233  -1.529  1.00  0.00    -0.055 C 
ATOM     72  C   UNL     1      -3.220   3.201  -0.589  1.00  0.00    -0.018 C 
ATOM     73  C   UNL     1      -3.481   0.774  -1.249  1.00  0.00     0.044 C 
BRANCH  72  74
ATOM     74  C   UNL     1      -3.438   3.087   0.913  1.00  0.00     0.038 C 
ATOM     75  C   UNL     1      -2.613   1.890   1.400  1.00  0.00     0.015 C 
BRANCH  74  76
ATOM     76  C   UNL     1      -4.966   2.984   1.192  1.00  0.00     0.128 C 
BRANCH  76  77
ATOM     77  O   UNL     1      -5.324   3.842   2.289  1.00  0.00    -0.381 OA
ATOM     78  C   UNL     1      -5.991   3.167   3.347  1.00  0.00     0.195 C 
ENDBRANCH  76  77
BRANCH  76  79
ATOM     79  C   UNL     1      -5.851   3.211  -0.060  1.00  0.00     0.068 C 
BRANCH  79  80
ATOM     80  C   UNL     1      -6.758   2.087  -0.498  1.00  0.00    -0.045 A 
ATOM     81  C   UNL     1      -6.902   1.761  -1.853  1.00  0.00     0.004 A 
ATOM     82  C   UNL     1      -7.498   1.365   0.450  1.00  0.00     0.004 A 
ATOM     83  C   UNL     1      -7.754   0.729  -2.251  1.00  0.00     0.000 A 
ATOM     84  C   UNL     1      -8.350   0.333   0.051  1.00  0.00     0.000 A 
ATOM     85  C   UNL     1      -8.477   0.015  -1.299  1.00  0.00     0.000 A 
ENDBRANCH  79  80
ENDBRANCH  76  79
ENDBRANCH  74  76
ENDBRANCH  72  74
ENDBRANCH  70  71
ENDBRANCH   1  69
TORSDOF 17
ENDMDL
MODEL 39
REMARK VINA RESULT:    -7.473      3.385      8.926
REMARK INTER + INTRA:         -29.549
REMARK INTER:                 -23.925
REMARK INTRA:                  -5.624
REMARK UNBOUND:                -7.222
REMARK SMILES C=C1C(=O)N[C@H](C)C(=O)N[C@@H](CC(C)C)C(=O)N[C@@H](C(=O)O)[C@H](C)C(=O)N[C@@H](CCCN=C(N)N)C(=O)N[C@@H](/C=C/C(C)=C/[C@H](C)[C@H](Cc2ccccc2)OC)[C@H](C)C(=O)N[C@@H](C(=O)O)CCC(=O)N1C
REMARK SMILES IDX 39 1 38 2 37 3 36 4 28 6 27 7 25 8 26 9 23 11 24 12 19 13
REMARK SMILES IDX 18 14 16 15 17 16 11 18 10 19 8 20 9 21 12 24 13 25 14 26
REMARK SMILES IDX 15 27 20 28 21 29 22 30 29 32 30 33 31 34 32 35 33 36 34 37
REMARK SMILES IDX 35 38 57 43 58 44 59 45 60 46 61 47 62 49 66 50 67 51 68 52
REMARK SMILES IDX 69 53 70 54 71 55 2 56 1 57 3 58 4 59 5 60 6 62 7 63 63 65
REMARK SMILES IDX 64 66 65 67 40 69 41 70 42 71 44 72 43 73 45 74 46 75 47 76
REMARK SMILES IDX 55 77 56 78 48 79 49 80 50 81 54 82 51 83 53 84 52 85
REMARK H PARENT 38 5 27 10 18 17 10 22 22 31 34 39 34 40 35 41 35 42 61 48
REMARK H PARENT 5 61 65 68
REMARK Flexibility Score:  369.900
ROOT
ATOM      1  C   UNL     1      -9.855  -0.303  -5.085  1.00  0.00     0.117 C 
ENDROOT
BRANCH   1   2
ATOM      2  N   UNL     1     -10.151   0.308  -6.380  1.00  0.00    -0.347 N 
ATOM      3  O   UNL     1      -8.003   0.391  -7.186  1.00  0.00    -0.273 OA
ATOM      4  C   UNL     1      -9.208   0.523  -7.368  1.00  0.00     0.243 C 
ATOM      5  H   UNL     1     -11.103   0.551  -6.607  1.00  0.00     0.164 HD
BRANCH   4   6
ATOM      6  C   UNL     1      -9.799   1.105  -8.677  1.00  0.00     0.171 C 
BRANCH   6   7
ATOM      7  N   UNL     1      -9.308   0.352  -9.842  1.00  0.00    -0.344 N 
ATOM      8  C   UNL     1      -8.220   0.800 -10.560  1.00  0.00     0.226 C 
ATOM      9  O   UNL     1      -7.630   1.839 -10.286  1.00  0.00    -0.275 OA
ATOM     10  H   UNL     1      -9.810  -0.474 -10.140  1.00  0.00     0.164 HD
BRANCH   8  11
ATOM     11  C   UNL     1      -7.802  -0.114 -11.698  1.00  0.00     0.109 C 
ATOM     12  C   UNL     1      -9.035  -0.603 -12.460  1.00  0.00     0.021 C 
BRANCH  11  13
ATOM     13  C   UNL     1      -6.739   0.587 -12.568  1.00  0.00     0.204 C 
BRANCH  13  14
ATOM     14  N   UNL     1      -5.420   0.592 -11.929  1.00  0.00    -0.340 N 
ATOM     15  C   UNL     1      -4.450   1.526 -12.221  1.00  0.00     0.243 C 
ATOM     16  O   UNL     1      -4.646   2.460 -12.996  1.00  0.00    -0.273 OA
ATOM     17  H   UNL     1      -5.141  -0.236 -11.395  1.00  0.00     0.164 HD
BRANCH  15  18
ATOM     18  C   UNL     1      -3.075   1.210 -11.584  1.00  0.00     0.171 C 
BRANCH  18  19
ATOM     19  N   UNL     1      -2.104   1.182 -12.676  1.00  0.00    -0.343 N 
ATOM     20  C   UNL     1      -2.147   0.218 -13.665  1.00  0.00     0.242 CG0
ATOM     21  O   UNL     1      -2.919  -0.736 -13.600  1.00  0.00    -0.273 OA
ATOM     22  H   UNL     1      -1.373   1.884 -12.710  1.00  0.00     0.164 HD
ATOM     23  G   UNL     1      -1.091   0.397 -14.775  1.00  0.00     0.000 G0
ENDBRANCH  18  19
BRANCH  18  24
ATOM     24  C   UNL     1      -2.709   2.267 -10.534  1.00  0.00     0.038 C 
BRANCH  24  25
ATOM     25  C   UNL     1      -3.052   1.877  -9.081  1.00  0.00    -0.015 C 
ATOM     26  C   UNL     1      -3.369   0.388  -8.933  1.00  0.00     0.007 C 
ATOM     27  C   UNL     1      -4.242   2.707  -8.593  1.00  0.00     0.007 C 
ENDBRANCH  24  25
ENDBRANCH  18  24
ENDBRANCH  15  18
ENDBRANCH  13  14
BRANCH  13  28
ATOM     28  C   UNL     1      -6.572  -0.052 -13.950  1.00  0.00     0.327 C 
ATOM     29  O   UNL     1      -6.125  -1.165 -14.182  1.00  0.00    -0.250 OA
BRANCH  28  30
ATOM     30  O   UNL     1      -6.865   0.790 -14.961  1.00  0.00    -0.480 OA
ATOM     31  H   UNL     1      -6.307   0.479 -15.703  1.00  0.00     0.296 HD
ENDBRANCH  28  30
ENDBRANCH  13  28
ENDBRANCH  11  13
ENDBRANCH   8  11
ENDBRANCH   6   7
BRANCH   6  32
ATOM     32  C   UNL     1     -11.329   1.061  -8.602  1.00  0.00     0.037 C 
BRANCH  32  33
ATOM     33  C   UNL     1     -11.971   2.364  -9.098  1.00  0.00     0.026 C 
BRANCH  33  34
ATOM     34  C   UNL     1     -13.487   2.384  -8.895  1.00  0.00     0.146 C 
BRANCH  34  35
ATOM     35  N   UNL     1     -13.772   2.264  -7.471  1.00  0.00    -0.254 NA
ATOM     36  C   UNL     1     -14.994   2.216  -7.091  1.00  0.00     0.185 C 
ATOM     37  N   UNL     1     -15.268   2.101  -5.783  1.00  0.00    -0.370 N 
ATOM     38  N   UNL     1     -16.113   2.263  -7.836  1.00  0.00    -0.370 N 
ATOM     39  H   UNL     1     -14.475   2.048  -5.156  1.00  0.00     0.159 HD
ATOM     40  H   UNL     1     -16.181   1.883  -5.423  1.00  0.00     0.159 HD
ATOM     41  H   UNL     1     -17.020   2.357  -7.409  1.00  0.00     0.159 HD
ATOM     42  H   UNL     1     -16.058   2.365  -8.838  1.00  0.00     0.159 HD
ENDBRANCH  34  35
ENDBRANCH  33  34
ENDBRANCH  32  33
ENDBRANCH   6  32
ENDBRANCH   4   6
ENDBRANCH   1   2
BRANCH   1  43
ATOM     43  C   UNL     1     -11.163  -0.929  -4.522  1.00  0.00     0.102 C 
ATOM     44  C   UNL     1     -12.415  -0.569  -5.340  1.00  0.00     0.020 C 
BRANCH  43  45
ATOM     45  C   UNL     1     -11.302  -0.658  -3.021  1.00  0.00     0.225 C 
ATOM     46  O   UNL     1     -10.544  -1.134  -2.180  1.00  0.00    -0.275 OA
ATOM     47  N   UNL     1     -12.398   0.088  -2.653  1.00  0.00    -0.342 N 
ATOM     48  H   UNL     1     -12.919   0.594  -3.356  1.00  0.00     0.164 HD
BRANCH  47  49
ATOM     49  C   UNL     1     -12.640   0.457  -1.255  1.00  0.00     0.192 C 
BRANCH  49  50
ATOM     50  C   UNL     1     -14.135   0.701  -1.038  1.00  0.00     0.047 C 
BRANCH  50  51
ATOM     51  C   UNL     1     -14.906   0.802  -2.361  1.00  0.00     0.103 C 
BRANCH  51  52
ATOM     52  C   UNL     1     -15.992   1.875  -2.313  1.00  0.00     0.226 C 
ATOM     53  O   UNL     1     -15.743   3.014  -2.712  1.00  0.00    -0.275 OA
BRANCH  52  54
ATOM     54  N   UNL     1     -17.263   1.461  -1.872  1.00  0.00    -0.311 N 
ATOM     55  C   UNL     1     -18.002   0.407  -2.581  1.00  0.00     0.153 C 
BRANCH  54  56
ATOM     56  C   UNL     1     -17.868   2.032  -0.741  1.00  0.00     0.102 C 
ATOM     57  C   UNL     1     -17.428   1.890   0.520  1.00  0.00     0.043 C 
BRANCH  56  58
ATOM     58  C   UNL     1     -19.082   2.921  -0.877  1.00  0.00     0.268 C 
ATOM     59  O   UNL     1     -19.055   4.011  -1.432  1.00  0.00    -0.268 OA
ATOM     60  N   UNL     1     -20.228   2.352  -0.373  1.00  0.00    -0.339 N 
ATOM     61  H   UNL     1     -20.164   1.449   0.081  1.00  0.00     0.164 HD
BRANCH  60  62
ATOM     62  C   UNL     1     -21.529   3.014  -0.458  1.00  0.00     0.168 CG0
ATOM     63  C   UNL     1     -22.250   2.641  -1.747  1.00  0.00     0.041 C 
ATOM     64  G   UNL     1     -21.338   4.542  -0.361  1.00  0.00     0.000 G0
ENDBRANCH  60  62
ENDBRANCH  56  58
ENDBRANCH  54  56
ENDBRANCH  52  54
ENDBRANCH  51  52
ENDBRANCH  50  51
ENDBRANCH  49  50
BRANCH  49  65
ATOM     65  C   UNL     1     -11.855   1.716  -0.857  1.00  0.00     0.326 C 
ATOM     66  O   UNL     1     -10.888   1.745  -0.109  1.00  0.00    -0.250 OA
BRANCH  65  67
ATOM     67  O   UNL     1     -12.348   2.870  -1.359  1.00  0.00    -0.480 OA
ATOM     68  H   UNL     1     -12.228   3.511  -0.626  1.00  0.00     0.296 HD
ENDBRANCH  65  67
ENDBRANCH  49  65
ENDBRANCH  47  49
ENDBRANCH  43  45
ENDBRANCH   1  43
BRANCH   1  69
ATOM     69  C   UNL     1      -9.139   0.758  -4.268  1.00  0.00    -0.001 C 
ATOM     70  C   UNL     1      -7.944   0.654  -3.662  1.00  0.00     0.001 C 
BRANCH  70  71
ATOM     71  C   UNL     1      -7.253   1.692  -2.895  1.00  0.00    -0.055 C 
ATOM     72  C   UNL     1      -5.940   1.885  -3.139  1.00  0.00    -0.018 C 
ATOM     73  C   UNL     1      -8.059   2.478  -1.893  1.00  0.00     0.044 C 
BRANCH  72  74
ATOM     74  C   UNL     1      -4.978   2.880  -2.506  1.00  0.00     0.038 C 
ATOM     75  C   UNL     1      -4.055   3.389  -3.620  1.00  0.00     0.015 C 
BRANCH  74  76
ATOM     76  C   UNL     1      -4.248   2.186  -1.319  1.00  0.00     0.128 C 
BRANCH  76  77
ATOM     77  O   UNL     1      -2.929   1.780  -1.723  1.00  0.00    -0.381 OA
ATOM     78  C   UNL     1      -1.937   1.992  -0.728  1.00  0.00     0.195 C 
ENDBRANCH  76  77
BRANCH  76  79
ATOM     79  C   UNL     1      -4.246   3.015  -0.010  1.00  0.00     0.068 C 
BRANCH  79  80
ATOM     80  C   UNL     1      -5.250   2.654   1.058  1.00  0.00    -0.045 A 
ATOM     81  C   UNL     1      -5.250   3.304   2.299  1.00  0.00     0.004 A 
ATOM     82  C   UNL     1      -6.188   1.635   0.831  1.00  0.00     0.004 A 
ATOM     83  C   UNL     1      -6.174   2.955   3.286  1.00  0.00     0.000 A 
ATOM     84  C   UNL     1      -7.111   1.286   1.819  1.00  0.00     0.000 A 
ATOM     85  C   UNL     1      -7.105   1.946   3.045  1.00  0.00     0.000 A 
ENDBRANCH  79  80
ENDBRANCH  76  79
ENDBRANCH  74  76
ENDBRANCH  72  74
ENDBRANCH  70  71
ENDBRANCH   1  69
TORSDOF 17
ENDMDL
MODEL 40
REMARK VINA RESULT:    -7.460      3.506     12.857
REMARK INTER + INTRA:         -29.510
REMARK INTER:                 -23.681
REMARK INTRA:                  -5.829
REMARK UNBOUND:                -7.222
REMARK SMILES C=C1C(=O)N[C@H](C)C(=O)N[C@@H](CC(C)C)C(=O)N[C@@H](C(=O)O)[C@H](C)C(=O)N[C@@H](CCCN=C(N)N)C(=O)N[C@@H](/C=C/C(C)=C/[C@H](C)[C@H](Cc2ccccc2)OC)[C@H](C)C(=O)N[C@@H](C(=O)O)CCC(=O)N1C
REMARK SMILES IDX 39 1 38 2 37 3 36 4 28 6 27 7 25 8 26 9 23 11 24 12 19 13
REMARK SMILES IDX 18 14 16 15 17 16 11 18 10 19 8 20 9 21 12 24 13 25 14 26
REMARK SMILES IDX 15 27 20 28 21 29 22 30 29 32 30 33 31 34 32 35 33 36 34 37
REMARK SMILES IDX 35 38 57 43 58 44 59 45 60 46 61 47 62 49 66 50 67 51 68 52
REMARK SMILES IDX 69 53 70 54 71 55 2 56 1 57 3 58 4 59 5 60 6 62 7 63 63 65
REMARK SMILES IDX 64 66 65 67 40 69 41 70 42 71 44 72 43 73 45 74 46 75 47 76
REMARK SMILES IDX 55 77 56 78 48 79 49 80 50 81 54 82 51 83 53 84 52 85
REMARK H PARENT 38 5 27 10 18 17 10 22 22 31 34 39 34 40 35 41 35 42 61 48
REMARK H PARENT 5 61 65 68
REMARK Flexibility Score:  369.900
ROOT
ATOM      1  C   UNL     1      -5.756   1.891  -5.416  1.00  0.00     0.117 C 
ENDROOT
BRANCH   1   2
ATOM      2  N   UNL     1      -6.724   1.003  -4.771  1.00  0.00    -0.347 N 
ATOM      3  O   UNL     1      -8.476   2.481  -4.655  1.00  0.00    -0.273 OA
ATOM      4  C   UNL     1      -8.040   1.342  -4.524  1.00  0.00     0.243 C 
ATOM      5  H   UNL     1      -6.447   0.064  -4.527  1.00  0.00     0.164 HD
BRANCH   4   6
ATOM      6  C   UNL     1      -8.876   0.191  -3.909  1.00  0.00     0.171 C 
BRANCH   6   7
ATOM      7  N   UNL     1      -9.893   0.728  -2.992  1.00  0.00    -0.344 N 
ATOM      8  C   UNL     1     -10.243   0.039  -1.850  1.00  0.00     0.226 C 
ATOM      9  O   UNL     1      -9.752  -1.044  -1.556  1.00  0.00    -0.275 OA
ATOM     10  H   UNL     1     -10.370   1.587  -3.235  1.00  0.00     0.164 HD
BRANCH   8  11
ATOM     11  C   UNL     1     -11.266   0.749  -0.980  1.00  0.00     0.109 C 
ATOM     12  C   UNL     1     -11.174   2.261  -1.188  1.00  0.00     0.021 C 
BRANCH  11  13
ATOM     13  C   UNL     1     -12.664   0.145  -1.220  1.00  0.00     0.204 C 
BRANCH  13  14
ATOM     14  N   UNL     1     -13.732   1.000  -0.693  1.00  0.00    -0.340 N 
ATOM     15  C   UNL     1     -15.018   0.550  -0.487  1.00  0.00     0.243 C 
ATOM     16  O   UNL     1     -15.346  -0.621  -0.675  1.00  0.00    -0.273 OA
ATOM     17  H   UNL     1     -13.567   2.010  -0.661  1.00  0.00     0.164 HD
BRANCH  15  18
ATOM     18  C   UNL     1     -16.017   1.676  -0.126  1.00  0.00     0.171 C 
BRANCH  18  19
ATOM     19  N   UNL     1     -17.115   1.586  -1.087  1.00  0.00    -0.343 N 
ATOM     20  C   UNL     1     -17.612   2.702  -1.732  1.00  0.00     0.242 CG0
ATOM     21  O   UNL     1     -17.247   3.836  -1.430  1.00  0.00    -0.273 OA
ATOM     22  H   UNL     1     -17.530   0.682  -1.286  1.00  0.00     0.164 HD
ATOM     23  G   UNL     1     -18.715   2.400  -2.768  1.00  0.00     0.000 G0
ENDBRANCH  18  19
BRANCH  18  24
ATOM     24  C   UNL     1     -16.518   1.514   1.314  1.00  0.00     0.038 C 
BRANCH  24  25
ATOM     25  C   UNL     1     -15.619   2.168   2.386  1.00  0.00    -0.015 C 
ATOM     26  C   UNL     1     -14.950   1.139   3.296  1.00  0.00     0.007 C 
ATOM     27  C   UNL     1     -16.449   3.140   3.229  1.00  0.00     0.007 C 
ENDBRANCH  24  25
ENDBRANCH  18  24
ENDBRANCH  15  18
ENDBRANCH  13  14
BRANCH  13  28
ATOM     28  C   UNL     1     -12.969  -0.101  -2.701  1.00  0.00     0.327 C 
ATOM     29  O   UNL     1     -13.023   0.747  -3.578  1.00  0.00    -0.250 OA
BRANCH  28  30
ATOM     30  O   UNL     1     -13.303  -1.381  -2.966  1.00  0.00    -0.480 OA
ATOM     31  H   UNL     1     -14.244  -1.444  -2.702  1.00  0.00     0.296 HD
ENDBRANCH  28  30
ENDBRANCH  13  28
ENDBRANCH  11  13
ENDBRANCH   8  11
ENDBRANCH   6   7
BRANCH   6  32
ATOM     32  C   UNL     1      -9.528  -0.616  -5.038  1.00  0.00     0.037 C 
BRANCH  32  33
ATOM     33  C   UNL     1      -9.461   0.116  -6.386  1.00  0.00     0.026 C 
BRANCH  33  34
ATOM     34  C   UNL     1     -10.600  -0.285  -7.325  1.00  0.00     0.146 C 
BRANCH  34  35
ATOM     35  N   UNL     1     -11.698   0.657  -7.160  1.00  0.00    -0.254 NA
ATOM     36  C   UNL     1     -12.798   0.236  -6.655  1.00  0.00     0.185 C 
ATOM     37  N   UNL     1     -13.815   1.096  -6.494  1.00  0.00    -0.370 N 
ATOM     38  N   UNL     1     -13.115  -1.002  -6.235  1.00  0.00    -0.370 N 
ATOM     39  H   UNL     1     -13.650   2.053  -6.778  1.00  0.00     0.159 HD
ATOM     40  H   UNL     1     -14.637   0.890  -5.952  1.00  0.00     0.159 HD
ATOM     41  H   UNL     1     -14.061  -1.240  -5.985  1.00  0.00     0.159 HD
ATOM     42  H   UNL     1     -12.450  -1.755  -6.311  1.00  0.00     0.159 HD
ENDBRANCH  34  35
ENDBRANCH  33  34
ENDBRANCH  32  33
ENDBRANCH   6  32
ENDBRANCH   4   6
ENDBRANCH   1   2
BRANCH   1  43
ATOM     43  C   UNL     1      -5.443   1.334  -6.835  1.00  0.00     0.102 C 
ATOM     44  C   UNL     1      -3.997   1.596  -7.290  1.00  0.00     0.020 C 
BRANCH  43  45
ATOM     45  C   UNL     1      -6.503   1.779  -7.847  1.00  0.00     0.225 C 
ATOM     46  O   UNL     1      -7.231   2.753  -7.672  1.00  0.00    -0.275 OA
ATOM     47  N   UNL     1      -6.661   0.958  -8.939  1.00  0.00    -0.342 N 
ATOM     48  H   UNL     1      -5.963   0.257  -9.144  1.00  0.00     0.164 HD
BRANCH  47  49
ATOM     49  C   UNL     1      -7.614   1.277 -10.007  1.00  0.00     0.192 C 
BRANCH  49  50
ATOM     50  C   UNL     1      -8.311  -0.003 -10.474  1.00  0.00     0.047 C 
BRANCH  50  51
ATOM     51  C   UNL     1      -7.401  -0.875 -11.350  1.00  0.00     0.103 C 
BRANCH  51  52
ATOM     52  C   UNL     1      -7.873  -0.920 -12.802  1.00  0.00     0.226 C 
ATOM     53  O   UNL     1      -9.065  -1.111 -13.050  1.00  0.00    -0.275 OA
BRANCH  52  54
ATOM     54  N   UNL     1      -6.902  -0.657 -13.785  1.00  0.00    -0.311 N 
ATOM     55  C   UNL     1      -7.046   0.477 -14.707  1.00  0.00     0.153 C 
BRANCH  54  56
ATOM     56  C   UNL     1      -5.759  -1.464 -13.919  1.00  0.00     0.102 C 
ATOM     57  C   UNL     1      -5.775  -2.781 -14.180  1.00  0.00     0.043 C 
BRANCH  56  58
ATOM     58  C   UNL     1      -4.374  -0.868 -13.820  1.00  0.00     0.268 C 
ATOM     59  O   UNL     1      -3.969  -0.279 -12.827  1.00  0.00    -0.268 OA
ATOM     60  N   UNL     1      -3.600  -1.114 -14.928  1.00  0.00    -0.339 N 
ATOM     61  H   UNL     1      -4.014  -1.601 -15.714  1.00  0.00     0.164 HD
BRANCH  60  62
ATOM     62  C   UNL     1      -2.206  -0.681 -15.016  1.00  0.00     0.168 CG0
ATOM     63  C   UNL     1      -1.858  -0.241 -16.433  1.00  0.00     0.041 C 
ATOM     64  G   UNL     1      -1.279  -1.826 -14.556  1.00  0.00     0.000 G0
ENDBRANCH  60  62
ENDBRANCH  56  58
ENDBRANCH  54  56
ENDBRANCH  52  54
ENDBRANCH  51  52
ENDBRANCH  50  51
ENDBRANCH  49  50
BRANCH  49  65
ATOM     65  C   UNL     1      -6.920   1.945 -11.204  1.00  0.00     0.326 C 
ATOM     66  O   UNL     1      -7.466   2.654 -12.037  1.00  0.00    -0.250 OA
BRANCH  65  67
ATOM     67  O   UNL     1      -5.608   1.647 -11.334  1.00  0.00    -0.480 OA
ATOM     68  H   UNL     1      -5.213   1.975 -10.498  1.00  0.00     0.296 HD
ENDBRANCH  65  67
ENDBRANCH  49  65
ENDBRANCH  47  49
ENDBRANCH  43  45
ENDBRANCH   1  43
BRANCH   1  69
ATOM     69  C   UNL     1      -4.616   2.065  -4.429  1.00  0.00    -0.001 C 
ATOM     70  C   UNL     1      -4.690   2.531  -3.170  1.00  0.00     0.001 C 
BRANCH  70  71
ATOM     71  C   UNL     1      -3.586   2.675  -2.219  1.00  0.00    -0.055 C 
ATOM     72  C   UNL     1      -3.858   2.490  -0.910  1.00  0.00    -0.018 C 
ATOM     73  C   UNL     1      -2.225   3.010  -2.769  1.00  0.00     0.044 C 
BRANCH  72  74
ATOM     74  C   UNL     1      -2.923   2.570   0.289  1.00  0.00     0.038 C 
ATOM     75  C   UNL     1      -1.828   1.517   0.080  1.00  0.00     0.015 C 
BRANCH  74  76
ATOM     76  C   UNL     1      -3.759   2.394   1.590  1.00  0.00     0.128 C 
BRANCH  76  77
ATOM     77  O   UNL     1      -2.993   2.824   2.728  1.00  0.00    -0.381 OA
ATOM     78  C   UNL     1      -2.987   1.889   3.798  1.00  0.00     0.195 C 
ENDBRANCH  76  77
BRANCH  76  79
ATOM     79  C   UNL     1      -5.162   3.049   1.529  1.00  0.00     0.068 C 
BRANCH  79  80
ATOM     80  C   UNL     1      -6.360   2.184   1.838  1.00  0.00    -0.045 A 
ATOM     81  C   UNL     1      -7.020   1.475   0.825  1.00  0.00     0.004 A 
ATOM     82  C   UNL     1      -6.852   2.099   3.150  1.00  0.00     0.004 A 
ATOM     83  C   UNL     1      -8.136   0.688   1.117  1.00  0.00     0.000 A 
ATOM     84  C   UNL     1      -7.968   1.312   3.441  1.00  0.00     0.000 A 
ATOM     85  C   UNL     1      -8.609   0.606   2.425  1.00  0.00     0.000 A 
ENDBRANCH  79  80
ENDBRANCH  76  79
ENDBRANCH  74  76
ENDBRANCH  72  74
ENDBRANCH  70  71
ENDBRANCH   1  69
TORSDOF 17
ENDMDL
MODEL 41
REMARK VINA RESULT:    -7.444      3.920     13.647
REMARK INTER + INTRA:         -29.462
REMARK INTER:                 -24.446
REMARK INTRA:                  -5.016
REMARK UNBOUND:                -7.222
REMARK SMILES C=C1C(=O)N[C@H](C)C(=O)N[C@@H](CC(C)C)C(=O)N[C@@H](C(=O)O)[C@H](C)C(=O)N[C@@H](CCCN=C(N)N)C(=O)N[C@@H](/C=C/C(C)=C/[C@H](C)[C@H](Cc2ccccc2)OC)[C@H](C)C(=O)N[C@@H](C(=O)O)CCC(=O)N1C
REMARK SMILES IDX 39 1 38 2 37 3 36 4 28 6 27 7 25 8 26 9 23 11 24 12 19 13
REMARK SMILES IDX 18 14 16 15 17 16 11 18 10 19 8 20 9 21 12 24 13 25 14 26
REMARK SMILES IDX 15 27 20 28 21 29 22 30 29 32 30 33 31 34 32 35 33 36 34 37
REMARK SMILES IDX 35 38 57 43 58 44 59 45 60 46 61 47 62 49 66 50 67 51 68 52
REMARK SMILES IDX 69 53 70 54 71 55 2 56 1 57 3 58 4 59 5 60 6 62 7 63 63 65
REMARK SMILES IDX 64 66 65 67 40 69 41 70 42 71 44 72 43 73 45 74 46 75 47 76
REMARK SMILES IDX 55 77 56 78 48 79 49 80 50 81 54 82 51 83 53 84 52 85
REMARK H PARENT 38 5 27 10 18 17 10 22 22 31 34 39 34 40 35 41 35 42 61 48
REMARK H PARENT 5 61 65 68
REMARK Flexibility Score:  369.900
ROOT
ATOM      1  C   UNL     1     -11.243   0.376  -4.032  1.00  0.00     0.117 C 
ENDROOT
BRANCH   1   2
ATOM      2  N   UNL     1     -12.628   0.271  -4.492  1.00  0.00    -0.347 N 
ATOM      3  O   UNL     1     -13.260  -1.504  -3.181  1.00  0.00    -0.273 OA
ATOM      4  C   UNL     1     -13.555  -0.605  -3.962  1.00  0.00     0.243 C 
ATOM      5  H   UNL     1     -12.961   0.901  -5.206  1.00  0.00     0.164 HD
BRANCH   4   6
ATOM      6  C   UNL     1     -14.973  -0.455  -4.568  1.00  0.00     0.171 C 
BRANCH   6   7
ATOM      7  N   UNL     1     -15.832   0.342  -3.677  1.00  0.00    -0.344 N 
ATOM      8  C   UNL     1     -16.687  -0.274  -2.789  1.00  0.00     0.226 C 
ATOM      9  O   UNL     1     -16.792  -1.492  -2.712  1.00  0.00    -0.275 OA
ATOM     10  H   UNL     1     -15.821   1.351  -3.759  1.00  0.00     0.164 HD
BRANCH   8  11
ATOM     11  C   UNL     1     -17.464   0.683  -1.902  1.00  0.00     0.109 C 
ATOM     12  C   UNL     1     -16.620   1.921  -1.598  1.00  0.00     0.021 C 
BRANCH  11  13
ATOM     13  C   UNL     1     -18.841   0.975  -2.532  1.00  0.00     0.204 C 
BRANCH  13  14
ATOM     14  N   UNL     1     -19.293  -0.115  -3.401  1.00  0.00    -0.340 N 
ATOM     15  C   UNL     1     -19.393   0.011  -4.770  1.00  0.00     0.243 C 
ATOM     16  O   UNL     1     -19.052   1.032  -5.365  1.00  0.00    -0.273 OA
ATOM     17  H   UNL     1     -19.732  -0.929  -2.962  1.00  0.00     0.164 HD
BRANCH  15  18
ATOM     18  C   UNL     1     -20.087  -1.192  -5.453  1.00  0.00     0.171 C 
BRANCH  18  19
ATOM     19  N   UNL     1     -20.805  -0.661  -6.610  1.00  0.00    -0.343 N 
ATOM     20  C   UNL     1     -22.022  -1.176  -7.013  1.00  0.00     0.242 CG0
ATOM     21  O   UNL     1     -22.493  -2.188  -6.501  1.00  0.00    -0.273 OA
ATOM     22  H   UNL     1     -20.399   0.104  -7.139  1.00  0.00     0.164 HD
ATOM     23  G   UNL     1     -22.664  -0.435  -8.204  1.00  0.00     0.000 G0
ENDBRANCH  18  19
BRANCH  18  24
ATOM     24  C   UNL     1     -19.055  -2.248  -5.868  1.00  0.00     0.038 C 
BRANCH  24  25
ATOM     25  C   UNL     1     -18.897  -2.430  -7.393  1.00  0.00    -0.015 C 
ATOM     26  C   UNL     1     -18.804  -3.901  -7.800  1.00  0.00     0.007 C 
ATOM     27  C   UNL     1     -17.651  -1.683  -7.874  1.00  0.00     0.007 C 
ENDBRANCH  24  25
ENDBRANCH  18  24
ENDBRANCH  15  18
ENDBRANCH  13  14
BRANCH  13  28
ATOM     28  C   UNL     1     -19.941   1.213  -1.493  1.00  0.00     0.327 C 
ATOM     29  O   UNL     1     -21.094   1.544  -1.724  1.00  0.00    -0.250 OA
BRANCH  28  30
ATOM     30  O   UNL     1     -19.494   1.137  -0.223  1.00  0.00    -0.480 OA
ATOM     31  H   UNL     1     -19.741   1.999   0.172  1.00  0.00     0.296 HD
ENDBRANCH  28  30
ENDBRANCH  13  28
ENDBRANCH  11  13
ENDBRANCH   8  11
ENDBRANCH   6   7
BRANCH   6  32
ATOM     32  C   UNL     1     -14.863   0.199  -5.950  1.00  0.00     0.037 C 
BRANCH  32  33
ATOM     33  C   UNL     1     -14.218  -0.736  -6.983  1.00  0.00     0.026 C 
BRANCH  33  34
ATOM     34  C   UNL     1     -13.646   0.022  -8.182  1.00  0.00     0.146 C 
BRANCH  34  35
ATOM     35  N   UNL     1     -12.300   0.472  -7.854  1.00  0.00    -0.254 NA
ATOM     36  C   UNL     1     -11.996   1.700  -8.060  1.00  0.00     0.185 C 
ATOM     37  N   UNL     1     -10.760   2.126  -7.757  1.00  0.00    -0.370 N 
ATOM     38  N   UNL     1     -12.760   2.687  -8.560  1.00  0.00    -0.370 N 
ATOM     39  H   UNL     1     -10.127   1.441  -7.364  1.00  0.00     0.159 HD
ATOM     40  H   UNL     1     -10.499   3.097  -7.725  1.00  0.00     0.159 HD
ATOM     41  H   UNL     1     -12.363   3.579  -8.804  1.00  0.00     0.159 HD
ATOM     42  H   UNL     1     -13.709   2.506  -8.847  1.00  0.00     0.159 HD
ENDBRANCH  34  35
ENDBRANCH  33  34
ENDBRANCH  32  33
ENDBRANCH   6  32
ENDBRANCH   4   6
ENDBRANCH   1   2
BRANCH   1  43
ATOM     43  C   UNL     1     -10.364  -0.587  -4.881  1.00  0.00     0.102 C 
ATOM     44  C   UNL     1      -9.951  -1.863  -4.128  1.00  0.00     0.020 C 
BRANCH  43  45
ATOM     45  C   UNL     1      -9.193   0.161  -5.526  1.00  0.00     0.225 C 
ATOM     46  O   UNL     1      -8.965   0.137  -6.732  1.00  0.00    -0.275 OA
ATOM     47  N   UNL     1      -8.342   0.796  -4.651  1.00  0.00    -0.342 N 
ATOM     48  H   UNL     1      -8.623   0.933  -3.690  1.00  0.00     0.164 HD
BRANCH  47  49
ATOM     49  C   UNL     1      -7.199   1.580  -5.127  1.00  0.00     0.192 C 
BRANCH  49  50
ATOM     50  C   UNL     1      -6.299   1.948  -3.945  1.00  0.00     0.047 C 
BRANCH  50  51
ATOM     51  C   UNL     1      -4.829   1.587  -4.199  1.00  0.00     0.103 C 
BRANCH  51  52
ATOM     52  C   UNL     1      -3.886   2.730  -3.829  1.00  0.00     0.226 C 
ATOM     53  O   UNL     1      -4.220   3.895  -4.054  1.00  0.00    -0.275 OA
BRANCH  52  54
ATOM     54  N   UNL     1      -2.696   2.372  -3.168  1.00  0.00    -0.311 N 
ATOM     55  C   UNL     1      -2.721   1.505  -1.982  1.00  0.00     0.153 C 
BRANCH  54  56
ATOM     56  C   UNL     1      -1.444   2.823  -3.618  1.00  0.00     0.102 C 
ATOM     57  C   UNL     1      -0.515   3.410  -2.846  1.00  0.00     0.043 C 
BRANCH  56  58
ATOM     58  C   UNL     1      -1.021   2.628  -5.055  1.00  0.00     0.268 C 
ATOM     59  O   UNL     1      -1.617   1.898  -5.835  1.00  0.00    -0.268 OA
ATOM     60  N   UNL     1       0.057   3.404  -5.411  1.00  0.00    -0.339 N 
ATOM     61  H   UNL     1       0.501   3.975  -4.703  1.00  0.00     0.164 HD
BRANCH  60  62
ATOM     62  C   UNL     1       0.591   3.417  -6.772  1.00  0.00     0.168 CG0
ATOM     63  C   UNL     1       0.382   4.776  -7.429  1.00  0.00     0.041 C 
ATOM     64  G   UNL     1      -0.079   2.302  -7.602  1.00  0.00     0.000 G0
ENDBRANCH  60  62
ENDBRANCH  56  58
ENDBRANCH  54  56
ENDBRANCH  52  54
ENDBRANCH  51  52
ENDBRANCH  50  51
ENDBRANCH  49  50
BRANCH  49  65
ATOM     65  C   UNL     1      -7.651   2.864  -5.841  1.00  0.00     0.326 C 
ATOM     66  O   UNL     1      -6.920   3.636  -6.445  1.00  0.00    -0.250 OA
BRANCH  65  67
ATOM     67  O   UNL     1      -8.966   3.146  -5.714  1.00  0.00    -0.480 OA
ATOM     68  H   UNL     1      -9.349   2.858  -6.571  1.00  0.00     0.296 HD
ENDBRANCH  65  67
ENDBRANCH  49  65
ENDBRANCH  47  49
ENDBRANCH  43  45
ENDBRANCH   1  43
BRANCH   1  69
ATOM     69  C   UNL     1     -11.282   0.197  -2.525  1.00  0.00    -0.001 C 
ATOM     70  C   UNL     1     -11.532   1.137  -1.597  1.00  0.00     0.001 C 
BRANCH  70  71
ATOM     71  C   UNL     1     -11.588   0.947  -0.146  1.00  0.00    -0.055 C 
ATOM     72  C   UNL     1     -10.422   0.953   0.534  1.00  0.00    -0.018 C 
ATOM     73  C   UNL     1     -12.943   0.767   0.487  1.00  0.00     0.044 C 
BRANCH  72  74
ATOM     74  C   UNL     1     -10.176   0.785   2.026  1.00  0.00     0.038 C 
ATOM     75  C   UNL     1     -10.895   1.939   2.736  1.00  0.00     0.015 C 
BRANCH  74  76
ATOM     76  C   UNL     1      -8.641   0.719   2.277  1.00  0.00     0.128 C 
BRANCH  76  77
ATOM     77  O   UNL     1      -8.334  -0.373   3.160  1.00  0.00    -0.381 OA
ATOM     78  C   UNL     1      -8.181   0.018   4.518  1.00  0.00     0.195 C 
ENDBRANCH  76  77
BRANCH  76  79
ATOM     79  C   UNL     1      -7.792   0.699   0.981  1.00  0.00     0.068 C 
BRANCH  79  80
ATOM     80  C   UNL     1      -6.733   1.761   0.812  1.00  0.00    -0.045 A 
ATOM     81  C   UNL     1      -5.987   2.218   1.907  1.00  0.00     0.004 A 
ATOM     82  C   UNL     1      -6.498   2.332  -0.448  1.00  0.00     0.004 A 
ATOM     83  C   UNL     1      -5.019   3.211   1.746  1.00  0.00     0.000 A 
ATOM     84  C   UNL     1      -5.530   3.326  -0.608  1.00  0.00     0.000 A 
ATOM     85  C   UNL     1      -4.790   3.764   0.488  1.00  0.00     0.000 A 
ENDBRANCH  79  80
ENDBRANCH  76  79
ENDBRANCH  74  76
ENDBRANCH  72  74
ENDBRANCH  70  71
ENDBRANCH   1  69
TORSDOF 17
ENDMDL
MODEL 42
REMARK VINA RESULT:    -7.432      3.303     12.976
REMARK INTER + INTRA:         -29.425
REMARK INTER:                 -23.059
REMARK INTRA:                  -6.366
REMARK UNBOUND:                -7.222
REMARK SMILES C=C1C(=O)N[C@H](C)C(=O)N[C@@H](CC(C)C)C(=O)N[C@@H](C(=O)O)[C@H](C)C(=O)N[C@@H](CCCN=C(N)N)C(=O)N[C@@H](/C=C/C(C)=C/[C@H](C)[C@H](Cc2ccccc2)OC)[C@H](C)C(=O)N[C@@H](C(=O)O)CCC(=O)N1C
REMARK SMILES IDX 39 1 38 2 37 3 36 4 28 6 27 7 25 8 26 9 23 11 24 12 19 13
REMARK SMILES IDX 18 14 16 15 17 16 11 18 10 19 8 20 9 21 12 24 13 25 14 26
REMARK SMILES IDX 15 27 20 28 21 29 22 30 29 32 30 33 31 34 32 35 33 36 34 37
REMARK SMILES IDX 35 38 57 43 58 44 59 45 60 46 61 47 62 49 66 50 67 51 68 52
REMARK SMILES IDX 69 53 70 54 71 55 2 56 1 57 3 58 4 59 5 60 6 62 7 63 63 65
REMARK SMILES IDX 64 66 65 67 40 69 41 70 42 71 44 72 43 73 45 74 46 75 47 76
REMARK SMILES IDX 55 77 56 78 48 79 49 80 50 81 54 82 51 83 53 84 52 85
REMARK H PARENT 38 5 27 10 18 17 10 22 22 31 34 39 34 40 35 41 35 42 61 48
REMARK H PARENT 5 61 65 68
REMARK Flexibility Score:  369.900
ROOT
ATOM      1  C   UNL     1     -10.307   0.591  -2.807  1.00  0.00     0.117 C 
ENDROOT
BRANCH   1   2
ATOM      2  N   UNL     1     -11.616   0.615  -2.153  1.00  0.00    -0.347 N 
ATOM      3  O   UNL     1     -11.740   2.877  -1.783  1.00  0.00    -0.273 OA
ATOM      4  C   UNL     1     -12.270   1.771  -1.775  1.00  0.00     0.243 C 
ATOM      5  H   UNL     1     -12.111  -0.252  -2.004  1.00  0.00     0.164 HD
BRANCH   4   6
ATOM      6  C   UNL     1     -13.681   1.524  -1.182  1.00  0.00     0.171 C 
BRANCH   6   7
ATOM      7  N   UNL     1     -14.552   0.881  -2.179  1.00  0.00    -0.344 N 
ATOM      8  C   UNL     1     -15.549   1.597  -2.806  1.00  0.00     0.226 C 
ATOM      9  O   UNL     1     -15.774   2.775  -2.556  1.00  0.00    -0.275 OA
ATOM     10  H   UNL     1     -14.441  -0.108  -2.363  1.00  0.00     0.164 HD
BRANCH   8  11
ATOM     11  C   UNL     1     -16.325   0.808  -3.847  1.00  0.00     0.109 C 
ATOM     12  C   UNL     1     -15.431  -0.267  -4.466  1.00  0.00     0.021 C 
BRANCH  11  13
ATOM     13  C   UNL     1     -17.638   0.285  -3.232  1.00  0.00     0.204 C 
BRANCH  13  14
ATOM     14  N   UNL     1     -18.673   1.322  -3.178  1.00  0.00    -0.340 N 
ATOM     15  C   UNL     1     -19.537   1.462  -2.113  1.00  0.00     0.243 C 
ATOM     16  O   UNL     1     -19.459   0.764  -1.104  1.00  0.00    -0.273 OA
ATOM     17  H   UNL     1     -18.889   1.831  -4.039  1.00  0.00     0.164 HD
BRANCH  15  18
ATOM     18  C   UNL     1     -20.672   2.484  -2.368  1.00  0.00     0.171 C 
BRANCH  18  19
ATOM     19  N   UNL     1     -21.587   1.863  -3.324  1.00  0.00    -0.343 N 
ATOM     20  C   UNL     1     -21.446   2.040  -4.687  1.00  0.00     0.242 CG0
ATOM     21  O   UNL     1     -20.630   2.832  -5.152  1.00  0.00    -0.273 OA
ATOM     22  H   UNL     1     -22.351   1.291  -2.982  1.00  0.00     0.164 HD
ATOM     23  G   UNL     1     -22.456   1.244  -5.540  1.00  0.00     0.000 G0
ENDBRANCH  18  19
BRANCH  18  24
ATOM     24  C   UNL     1     -21.385   2.839  -1.057  1.00  0.00     0.038 C 
BRANCH  24  25
ATOM     25  C   UNL     1     -21.519   4.352  -0.786  1.00  0.00    -0.015 C 
ATOM     26  C   UNL     1     -20.514   5.181  -1.586  1.00  0.00     0.007 C 
ATOM     27  C   UNL     1     -21.337   4.625   0.710  1.00  0.00     0.007 C 
ENDBRANCH  24  25
ENDBRANCH  18  24
ENDBRANCH  15  18
ENDBRANCH  13  14
BRANCH  13  28
ATOM     28  C   UNL     1     -18.228  -0.906  -3.994  1.00  0.00     0.327 C 
ATOM     29  O   UNL     1     -18.812  -0.861  -5.066  1.00  0.00    -0.250 OA
BRANCH  28  30
ATOM     30  O   UNL     1     -18.154  -2.063  -3.305  1.00  0.00    -0.480 OA
ATOM     31  H   UNL     1     -17.879  -1.791  -2.406  1.00  0.00     0.296 HD
ENDBRANCH  28  30
ENDBRANCH  13  28
ENDBRANCH  11  13
ENDBRANCH   8  11
ENDBRANCH   6   7
BRANCH   6  32
ATOM     32  C   UNL     1     -13.554   0.656   0.075  1.00  0.00     0.037 C 
BRANCH  32  33
ATOM     33  C   UNL     1     -14.915   0.386   0.732  1.00  0.00     0.026 C 
BRANCH  33  34
ATOM     34  C   UNL     1     -15.350   1.518   1.663  1.00  0.00     0.146 C 
BRANCH  34  35
ATOM     35  N   UNL     1     -15.864   2.617   0.858  1.00  0.00    -0.254 NA
ATOM     36  C   UNL     1     -17.132   2.735   0.717  1.00  0.00     0.185 C 
ATOM     37  N   UNL     1     -17.616   3.747  -0.019  1.00  0.00    -0.370 N 
ATOM     38  N   UNL     1     -18.113   1.963   1.217  1.00  0.00    -0.370 N 
ATOM     39  H   UNL     1     -16.938   4.381  -0.423  1.00  0.00     0.159 HD
ATOM     40  H   UNL     1     -18.587   4.008  -0.035  1.00  0.00     0.159 HD
ATOM     41  H   UNL     1     -19.068   2.077   0.920  1.00  0.00     0.159 HD
ATOM     42  H   UNL     1     -17.893   1.155   1.778  1.00  0.00     0.159 HD
ENDBRANCH  34  35
ENDBRANCH  33  34
ENDBRANCH  32  33
ENDBRANCH   6  32
ENDBRANCH   4   6
ENDBRANCH   1   2
BRANCH   1  43
ATOM     43  C   UNL     1     -10.376  -0.385  -4.017  1.00  0.00     0.102 C 
ATOM     44  C   UNL     1      -9.230  -1.411  -4.041  1.00  0.00     0.020 C 
BRANCH  43  45
ATOM     45  C   UNL     1     -10.552   0.381  -5.331  1.00  0.00     0.225 C 
ATOM     46  O   UNL     1     -11.018   1.515  -5.390  1.00  0.00    -0.275 OA
ATOM     47  N   UNL     1     -10.241  -0.322  -6.473  1.00  0.00    -0.342 N 
ATOM     48  H   UNL     1      -9.723  -1.187  -6.402  1.00  0.00     0.164 HD
BRANCH  47  49
ATOM     49  C   UNL     1     -10.328   0.294  -7.800  1.00  0.00     0.192 C 
BRANCH  49  50
ATOM     50  C   UNL     1      -9.255   1.378  -7.934  1.00  0.00     0.047 C 
BRANCH  50  51
ATOM     51  C   UNL     1      -7.854   0.788  -8.145  1.00  0.00     0.103 C 
BRANCH  51  52
ATOM     52  C   UNL     1      -7.145   1.409  -9.346  1.00  0.00     0.226 C 
ATOM     53  O   UNL     1      -6.742   2.572  -9.283  1.00  0.00    -0.275 OA
BRANCH  52  54
ATOM     54  N   UNL     1      -6.925   0.564 -10.450  1.00  0.00    -0.311 N 
ATOM     55  C   UNL     1      -7.804   0.613 -11.626  1.00  0.00     0.153 C 
BRANCH  54  56
ATOM     56  C   UNL     1      -5.859  -0.350 -10.473  1.00  0.00     0.102 C 
ATOM     57  C   UNL     1      -5.988  -1.676 -10.645  1.00  0.00     0.043 C 
BRANCH  56  58
ATOM     58  C   UNL     1      -4.430   0.122 -10.343  1.00  0.00     0.268 C 
ATOM     59  O   UNL     1      -3.780   0.013  -9.313  1.00  0.00    -0.268 OA
ATOM     60  N   UNL     1      -3.919   0.623 -11.516  1.00  0.00    -0.339 N 
ATOM     61  H   UNL     1      -4.527   0.690 -12.324  1.00  0.00     0.164 HD
BRANCH  60  62
ATOM     62  C   UNL     1      -2.534   1.079 -11.631  1.00  0.00     0.168 CG0
ATOM     63  C   UNL     1      -1.666   0.025 -12.307  1.00  0.00     0.041 C 
ATOM     64  G   UNL     1      -1.985   1.421 -10.230  1.00  0.00     0.000 G0
ENDBRANCH  60  62
ENDBRANCH  56  58
ENDBRANCH  54  56
ENDBRANCH  52  54
ENDBRANCH  51  52
ENDBRANCH  50  51
ENDBRANCH  49  50
BRANCH  49  65
ATOM     65  C   UNL     1     -11.712   0.914  -8.047  1.00  0.00     0.326 C 
ATOM     66  O   UNL     1     -12.756   0.293  -8.178  1.00  0.00    -0.250 OA
BRANCH  65  67
ATOM     67  O   UNL     1     -11.712   2.259  -8.178  1.00  0.00    -0.480 OA
ATOM     68  H   UNL     1     -11.436   2.578  -7.291  1.00  0.00     0.296 HD
ENDBRANCH  65  67
ENDBRANCH  49  65
ENDBRANCH  47  49
ENDBRANCH  43  45
ENDBRANCH   1  43
BRANCH   1  69
ATOM     69  C   UNL     1      -9.291   0.329  -1.710  1.00  0.00    -0.001 C 
ATOM     70  C   UNL     1      -9.241   0.893  -0.491  1.00  0.00     0.001 C 
BRANCH  70  71
ATOM     71  C   UNL     1      -8.267   0.617   0.567  1.00  0.00    -0.055 C 
ATOM     72  C   UNL     1      -7.481   1.634   0.979  1.00  0.00    -0.018 C 
ATOM     73  C   UNL     1      -8.216  -0.781   1.127  1.00  0.00     0.044 C 
BRANCH  72  74
ATOM     74  C   UNL     1      -6.398   1.643   2.047  1.00  0.00     0.038 C 
ATOM     75  C   UNL     1      -7.058   2.087   3.358  1.00  0.00     0.015 C 
BRANCH  74  76
ATOM     76  C   UNL     1      -5.227   2.550   1.566  1.00  0.00     0.128 C 
BRANCH  76  77
ATOM     77  O   UNL     1      -4.495   3.049   2.699  1.00  0.00    -0.381 OA
ATOM     78  C   UNL     1      -3.359   2.264   3.036  1.00  0.00     0.195 C 
ENDBRANCH  76  77
BRANCH  76  79
ATOM     79  C   UNL     1      -4.312   1.887   0.506  1.00  0.00     0.068 C 
BRANCH  79  80
ATOM     80  C   UNL     1      -4.912   1.558  -0.839  1.00  0.00    -0.045 A 
ATOM     81  C   UNL     1      -5.412   2.567  -1.673  1.00  0.00     0.004 A 
ATOM     82  C   UNL     1      -5.004   0.224  -1.265  1.00  0.00     0.004 A 
ATOM     83  C   UNL     1      -5.978   2.253  -2.910  1.00  0.00     0.000 A 
ATOM     84  C   UNL     1      -5.572  -0.089  -2.503  1.00  0.00     0.000 A 
ATOM     85  C   UNL     1      -6.057   0.925  -3.325  1.00  0.00     0.000 A 
ENDBRANCH  79  80
ENDBRANCH  76  79
ENDBRANCH  74  76
ENDBRANCH  72  74
ENDBRANCH  70  71
ENDBRANCH   1  69
TORSDOF 17
ENDMDL
MODEL 43
REMARK VINA RESULT:    -7.402      3.705      9.466
REMARK INTER + INTRA:         -29.337
REMARK INTER:                 -23.866
REMARK INTRA:                  -5.471
REMARK UNBOUND:                -7.222
REMARK SMILES C=C1C(=O)N[C@H](C)C(=O)N[C@@H](CC(C)C)C(=O)N[C@@H](C(=O)O)[C@H](C)C(=O)N[C@@H](CCCN=C(N)N)C(=O)N[C@@H](/C=C/C(C)=C/[C@H](C)[C@H](Cc2ccccc2)OC)[C@H](C)C(=O)N[C@@H](C(=O)O)CCC(=O)N1C
REMARK SMILES IDX 39 1 38 2 37 3 36 4 28 6 27 7 25 8 26 9 23 11 24 12 19 13
REMARK SMILES IDX 18 14 16 15 17 16 11 18 10 19 8 20 9 21 12 24 13 25 14 26
REMARK SMILES IDX 15 27 20 28 21 29 22 30 29 32 30 33 31 34 32 35 33 36 34 37
REMARK SMILES IDX 35 38 57 43 58 44 59 45 60 46 61 47 62 49 66 50 67 51 68 52
REMARK SMILES IDX 69 53 70 54 71 55 2 56 1 57 3 58 4 59 5 60 6 62 7 63 63 65
REMARK SMILES IDX 64 66 65 67 40 69 41 70 42 71 44 72 43 73 45 74 46 75 47 76
REMARK SMILES IDX 55 77 56 78 48 79 49 80 50 81 54 82 51 83 53 84 52 85
REMARK H PARENT 38 5 27 10 18 17 10 22 22 31 34 39 34 40 35 41 35 42 61 48
REMARK H PARENT 5 61 65 68
REMARK Flexibility Score:  369.900
ROOT
ATOM      1  C   UNL     1      -9.799  -0.394  -5.405  1.00  0.00     0.117 C 
ENDROOT
BRANCH   1   2
ATOM      2  N   UNL     1     -10.066   0.263  -6.685  1.00  0.00    -0.347 N 
ATOM      3  O   UNL     1      -7.898   0.388  -7.430  1.00  0.00    -0.273 OA
ATOM      4  C   UNL     1      -9.099   0.519  -7.638  1.00  0.00     0.243 C 
ATOM      5  H   UNL     1     -11.014   0.507  -6.927  1.00  0.00     0.164 HD
BRANCH   4   6
ATOM      6  C   UNL     1      -9.660   1.145  -8.941  1.00  0.00     0.171 C 
BRANCH   6   7
ATOM      7  N   UNL     1      -9.199   0.387 -10.115  1.00  0.00    -0.344 N 
ATOM      8  C   UNL     1      -8.136   0.837 -10.869  1.00  0.00     0.226 C 
ATOM      9  O   UNL     1      -7.546   1.882 -10.620  1.00  0.00    -0.275 OA
ATOM     10  H   UNL     1      -9.704  -0.445 -10.392  1.00  0.00     0.164 HD
BRANCH   8  11
ATOM     11  C   UNL     1      -7.747  -0.082 -12.013  1.00  0.00     0.109 C 
ATOM     12  C   UNL     1      -8.994  -0.525 -12.779  1.00  0.00     0.021 C 
BRANCH  11  13
ATOM     13  C   UNL     1      -6.660   0.590 -12.876  1.00  0.00     0.204 C 
BRANCH  13  14
ATOM     14  N   UNL     1      -5.311   0.323 -12.369  1.00  0.00    -0.340 N 
ATOM     15  C   UNL     1      -4.253   1.185 -12.567  1.00  0.00     0.243 C 
ATOM     16  O   UNL     1      -4.382   2.269 -13.132  1.00  0.00    -0.273 OA
ATOM     17  H   UNL     1      -5.103  -0.619 -12.028  1.00  0.00     0.164 HD
BRANCH  15  18
ATOM     18  C   UNL     1      -2.888   0.600 -12.127  1.00  0.00     0.171 C 
BRANCH  18  19
ATOM     19  N   UNL     1      -1.978   0.767 -13.258  1.00  0.00    -0.343 N 
ATOM     20  C   UNL     1      -2.012  -0.076 -14.352  1.00  0.00     0.242 CG0
ATOM     21  O   UNL     1      -2.716  -1.082 -14.367  1.00  0.00    -0.273 OA
ATOM     22  H   UNL     1      -1.296   1.517 -13.241  1.00  0.00     0.164 HD
ATOM     23  G   UNL     1      -1.030   0.305 -15.479  1.00  0.00     0.000 G0
ENDBRANCH  18  19
BRANCH  18  24
ATOM     24  C   UNL     1      -2.369   1.320 -10.876  1.00  0.00     0.038 C 
BRANCH  24  25
ATOM     25  C   UNL     1      -3.447   1.626  -9.815  1.00  0.00    -0.015 C 
ATOM     26  C   UNL     1      -3.076   2.816  -8.930  1.00  0.00     0.007 C 
ATOM     27  C   UNL     1      -3.679   0.389  -8.944  1.00  0.00     0.007 C 
ENDBRANCH  24  25
ENDBRANCH  18  24
ENDBRANCH  15  18
ENDBRANCH  13  14
BRANCH  13  28
ATOM     28  C   UNL     1      -6.691   0.144 -14.341  1.00  0.00     0.327 C 
ATOM     29  O   UNL     1      -7.116   0.792 -15.285  1.00  0.00    -0.250 OA
BRANCH  28  30
ATOM     30  O   UNL     1      -6.297  -1.134 -14.513  1.00  0.00    -0.480 OA
ATOM     31  H   UNL     1      -6.709  -1.617 -13.767  1.00  0.00     0.296 HD
ENDBRANCH  28  30
ENDBRANCH  13  28
ENDBRANCH  11  13
ENDBRANCH   8  11
ENDBRANCH   6   7
BRANCH   6  32
ATOM     32  C   UNL     1     -11.191   1.167  -8.870  1.00  0.00     0.037 C 
BRANCH  32  33
ATOM     33  C   UNL     1     -11.772   2.510  -9.334  1.00  0.00     0.026 C 
BRANCH  33  34
ATOM     34  C   UNL     1     -13.261   2.646  -9.009  1.00  0.00     0.146 C 
BRANCH  34  35
ATOM     35  N   UNL     1     -13.838   1.315  -8.886  1.00  0.00    -0.254 NA
ATOM     36  C   UNL     1     -14.965   1.187  -8.289  1.00  0.00     0.185 C 
ATOM     37  N   UNL     1     -15.509  -0.034  -8.174  1.00  0.00    -0.370 N 
ATOM     38  N   UNL     1     -15.736   2.135  -7.728  1.00  0.00    -0.370 N 
ATOM     39  H   UNL     1     -14.991  -0.802  -8.582  1.00  0.00     0.159 HD
ATOM     40  H   UNL     1     -16.457  -0.195  -7.880  1.00  0.00     0.159 HD
ATOM     41  H   UNL     1     -16.535   1.891  -7.165  1.00  0.00     0.159 HD
ATOM     42  H   UNL     1     -15.443   3.100  -7.726  1.00  0.00     0.159 HD
ENDBRANCH  34  35
ENDBRANCH  33  34
ENDBRANCH  32  33
ENDBRANCH   6  32
ENDBRANCH   4   6
ENDBRANCH   1   2
BRANCH   1  43
ATOM     43  C   UNL     1     -11.069  -1.187  -4.981  1.00  0.00     0.102 C 
ATOM     44  C   UNL     1     -12.261  -0.988  -5.933  1.00  0.00     0.020 C 
BRANCH  43  45
ATOM     45  C   UNL     1     -11.404  -0.941  -3.506  1.00  0.00     0.225 C 
ATOM     46  O   UNL     1     -10.780  -1.456  -2.582  1.00  0.00    -0.275 OA
ATOM     47  N   UNL     1     -12.521  -0.172  -3.273  1.00  0.00    -0.342 N 
ATOM     48  H   UNL     1     -12.927   0.362  -4.028  1.00  0.00     0.164 HD
BRANCH  47  49
ATOM     49  C   UNL     1     -12.941   0.175  -1.912  1.00  0.00     0.192 C 
BRANCH  49  50
ATOM     50  C   UNL     1     -14.115  -0.714  -1.494  1.00  0.00     0.047 C 
BRANCH  50  51
ATOM     51  C   UNL     1     -14.696  -1.504  -2.674  1.00  0.00     0.103 C 
BRANCH  51  52
ATOM     52  C   UNL     1     -16.219  -1.402  -2.738  1.00  0.00     0.226 C 
ATOM     53  O   UNL     1     -16.899  -1.833  -1.805  1.00  0.00    -0.275 OA
BRANCH  52  54
ATOM     54  N   UNL     1     -16.756  -0.736  -3.856  1.00  0.00    -0.311 N 
ATOM     55  C   UNL     1     -15.962   0.248  -4.604  1.00  0.00     0.153 C 
BRANCH  54  56
ATOM     56  C   UNL     1     -18.064  -0.991  -4.301  1.00  0.00     0.102 C 
ATOM     57  C   UNL     1     -18.379  -1.551  -5.480  1.00  0.00     0.043 C 
BRANCH  56  58
ATOM     58  C   UNL     1     -19.255  -0.678  -3.426  1.00  0.00     0.268 C 
ATOM     59  O   UNL     1     -20.214  -1.428  -3.307  1.00  0.00    -0.268 OA
ATOM     60  N   UNL     1     -19.120   0.500  -2.730  1.00  0.00    -0.339 N 
ATOM     61  H   UNL     1     -18.298   1.071  -2.893  1.00  0.00     0.164 HD
BRANCH  60  62
ATOM     62  C   UNL     1     -20.128   0.963  -1.778  1.00  0.00     0.168 CG0
ATOM     63  C   UNL     1     -19.497   1.812  -0.681  1.00  0.00     0.041 C 
ATOM     64  G   UNL     1     -20.864  -0.251  -1.174  1.00  0.00     0.000 G0
ENDBRANCH  60  62
ENDBRANCH  56  58
ENDBRANCH  54  56
ENDBRANCH  52  54
ENDBRANCH  51  52
ENDBRANCH  50  51
ENDBRANCH  49  50
BRANCH  49  65
ATOM     65  C   UNL     1     -13.356   1.650  -1.806  1.00  0.00     0.326 C 
ATOM     66  O   UNL     1     -14.461   2.099  -2.078  1.00  0.00    -0.250 OA
BRANCH  65  67
ATOM     67  O   UNL     1     -12.367   2.489  -1.428  1.00  0.00    -0.480 OA
ATOM     68  H   UNL     1     -12.525   3.293  -1.969  1.00  0.00     0.296 HD
ENDBRANCH  65  67
ENDBRANCH  49  65
ENDBRANCH  47  49
ENDBRANCH  43  45
ENDBRANCH   1  43
BRANCH   1  69
ATOM     69  C   UNL     1      -9.264   0.683  -4.479  1.00  0.00    -0.001 C 
ATOM     70  C   UNL     1      -8.178   0.616  -3.688  1.00  0.00     0.001 C 
BRANCH  70  71
ATOM     71  C   UNL     1      -7.659   1.670  -2.815  1.00  0.00    -0.055 C 
ATOM     72  C   UNL     1      -6.322   1.853  -2.779  1.00  0.00    -0.018 C 
ATOM     73  C   UNL     1      -8.653   2.481  -2.026  1.00  0.00     0.044 C 
BRANCH  72  74
ATOM     74  C   UNL     1      -5.510   2.861  -1.978  1.00  0.00     0.038 C 
ATOM     75  C   UNL     1      -4.406   3.389  -2.902  1.00  0.00     0.015 C 
BRANCH  74  76
ATOM     76  C   UNL     1      -4.999   2.172  -0.678  1.00  0.00     0.128 C 
BRANCH  76  77
ATOM     77  O   UNL     1      -3.584   2.382  -0.534  1.00  0.00    -0.381 OA
ATOM     78  C   UNL     1      -3.223   3.026   0.681  1.00  0.00     0.195 C 
ENDBRANCH  76  77
BRANCH  76  79
ATOM     79  C   UNL     1      -5.795   2.560   0.594  1.00  0.00     0.068 C 
BRANCH  79  80
ATOM     80  C   UNL     1      -6.692   1.515   1.212  1.00  0.00    -0.045 A 
ATOM     81  C   UNL     1      -7.120   1.626   2.542  1.00  0.00     0.004 A 
ATOM     82  C   UNL     1      -7.091   0.394   0.468  1.00  0.00     0.004 A 
ATOM     83  C   UNL     1      -7.939   0.648   3.111  1.00  0.00     0.000 A 
ATOM     84  C   UNL     1      -7.909  -0.583   1.038  1.00  0.00     0.000 A 
ATOM     85  C   UNL     1      -8.334  -0.456   2.358  1.00  0.00     0.000 A 
ENDBRANCH  79  80
ENDBRANCH  76  79
ENDBRANCH  74  76
ENDBRANCH  72  74
ENDBRANCH  70  71
ENDBRANCH   1  69
TORSDOF 17
ENDMDL
MODEL 44
REMARK VINA RESULT:    -7.385      4.530      9.492
REMARK INTER + INTRA:         -29.286
REMARK INTER:                 -22.726
REMARK INTRA:                  -6.561
REMARK UNBOUND:                -7.222
REMARK SMILES C=C1C(=O)N[C@H](C)C(=O)N[C@@H](CC(C)C)C(=O)N[C@@H](C(=O)O)[C@H](C)C(=O)N[C@@H](CCCN=C(N)N)C(=O)N[C@@H](/C=C/C(C)=C/[C@H](C)[C@H](Cc2ccccc2)OC)[C@H](C)C(=O)N[C@@H](C(=O)O)CCC(=O)N1C
REMARK SMILES IDX 39 1 38 2 37 3 36 4 28 6 27 7 25 8 26 9 23 11 24 12 19 13
REMARK SMILES IDX 18 14 16 15 17 16 11 18 10 19 8 20 9 21 12 24 13 25 14 26
REMARK SMILES IDX 15 27 20 28 21 29 22 30 29 32 30 33 31 34 32 35 33 36 34 37
REMARK SMILES IDX 35 38 57 43 58 44 59 45 60 46 61 47 62 49 66 50 67 51 68 52
REMARK SMILES IDX 69 53 70 54 71 55 2 56 1 57 3 58 4 59 5 60 6 62 7 63 63 65
REMARK SMILES IDX 64 66 65 67 40 69 41 70 42 71 44 72 43 73 45 74 46 75 47 76
REMARK SMILES IDX 55 77 56 78 48 79 49 80 50 81 54 82 51 83 53 84 52 85
REMARK H PARENT 38 5 27 10 18 17 10 22 22 31 34 39 34 40 35 41 35 42 61 48
REMARK H PARENT 5 61 65 68
REMARK Flexibility Score:  369.900
ROOT
ATOM      1  C   UNL     1     -12.357  -1.027  -5.542  1.00  0.00     0.117 C 
ENDROOT
BRANCH   1   2
ATOM      2  N   UNL     1     -11.407  -0.077  -4.964  1.00  0.00    -0.347 N 
ATOM      3  O   UNL     1      -9.817  -1.591  -4.296  1.00  0.00    -0.273 OA
ATOM      4  C   UNL     1     -10.167  -0.428  -4.467  1.00  0.00     0.243 C 
ATOM      5  H   UNL     1     -11.630   0.907  -4.962  1.00  0.00     0.164 HD
BRANCH   4   6
ATOM      6  C   UNL     1      -9.320   0.780  -3.992  1.00  0.00     0.171 C 
BRANCH   6   7
ATOM      7  N   UNL     1      -9.066   0.692  -2.545  1.00  0.00    -0.344 N 
ATOM      8  C   UNL     1      -9.279   1.781  -1.727  1.00  0.00     0.226 C 
ATOM      9  O   UNL     1      -9.661   2.864  -2.155  1.00  0.00    -0.275 OA
ATOM     10  H   UNL     1      -8.686  -0.165  -2.164  1.00  0.00     0.164 HD
BRANCH   8  11
ATOM     11  C   UNL     1      -9.024   1.516  -0.253  1.00  0.00     0.109 C 
ATOM     12  C   UNL     1     -10.307   1.031   0.423  1.00  0.00     0.021 C 
BRANCH  11  13
ATOM     13  C   UNL     1      -7.812   0.576  -0.095  1.00  0.00     0.204 C 
BRANCH  13  14
ATOM     14  N   UNL     1      -6.554   1.233  -0.461  1.00  0.00    -0.340 N 
ATOM     15  C   UNL     1      -5.726   0.762  -1.456  1.00  0.00     0.243 C 
ATOM     16  O   UNL     1      -6.015  -0.211  -2.150  1.00  0.00    -0.273 OA
ATOM     17  H   UNL     1      -6.184   1.949   0.171  1.00  0.00     0.164 HD
BRANCH  15  18
ATOM     18  C   UNL     1      -4.361   1.491  -1.523  1.00  0.00     0.171 C 
BRANCH  18  19
ATOM     19  N   UNL     1      -3.637   1.138  -0.304  1.00  0.00    -0.343 N 
ATOM     20  C   UNL     1      -3.075   2.099   0.514  1.00  0.00     0.242 CG0
ATOM     21  O   UNL     1      -3.042   3.283   0.187  1.00  0.00    -0.273 OA
ATOM     22  H   UNL     1      -3.537   0.162  -0.050  1.00  0.00     0.164 HD
ATOM     23  G   UNL     1      -2.421   1.542   1.795  1.00  0.00     0.000 G0
ENDBRANCH  18  19
BRANCH  18  24
ATOM     24  C   UNL     1      -3.585   1.074  -2.778  1.00  0.00     0.038 C 
BRANCH  24  25
ATOM     25  C   UNL     1      -3.319   2.216  -3.781  1.00  0.00    -0.015 C 
ATOM     26  C   UNL     1      -1.849   2.636  -3.814  1.00  0.00     0.007 C 
ATOM     27  C   UNL     1      -4.192   3.423  -3.430  1.00  0.00     0.007 C 
ENDBRANCH  24  25
ENDBRANCH  18  24
ENDBRANCH  15  18
ENDBRANCH  13  14
BRANCH  13  28
ATOM     28  C   UNL     1      -7.647   0.041   1.331  1.00  0.00     0.327 C 
ATOM     29  O   UNL     1      -7.873  -1.100   1.705  1.00  0.00    -0.250 OA
BRANCH  28  30
ATOM     30  O   UNL     1      -7.322   0.999   2.222  1.00  0.00    -0.480 OA
ATOM     31  H   UNL     1      -6.669   1.557   1.749  1.00  0.00     0.296 HD
ENDBRANCH  28  30
ENDBRANCH  13  28
ENDBRANCH  11  13
ENDBRANCH   8  11
ENDBRANCH   6   7
BRANCH   6  32
ATOM     32  C   UNL     1      -8.004   0.813  -4.777  1.00  0.00     0.037 C 
BRANCH  32  33
ATOM     33  C   UNL     1      -7.610   2.238  -5.188  1.00  0.00     0.026 C 
BRANCH  33  34
ATOM     34  C   UNL     1      -6.973   2.292  -6.577  1.00  0.00     0.146 C 
BRANCH  34  35
ATOM     35  N   UNL     1      -7.709   1.403  -7.465  1.00  0.00    -0.254 NA
ATOM     36  C   UNL     1      -7.534   1.515  -8.730  1.00  0.00     0.185 C 
ATOM     37  N   UNL     1      -8.203   0.698  -9.557  1.00  0.00    -0.370 N 
ATOM     38  N   UNL     1      -6.742   2.370  -9.400  1.00  0.00    -0.370 N 
ATOM     39  H   UNL     1      -8.815   0.016  -9.126  1.00  0.00     0.159 HD
ATOM     40  H   UNL     1      -7.994   0.605 -10.536  1.00  0.00     0.159 HD
ATOM     41  H   UNL     1      -6.796   2.454 -10.402  1.00  0.00     0.159 HD
ATOM     42  H   UNL     1      -6.191   3.054  -8.905  1.00  0.00     0.159 HD
ENDBRANCH  34  35
ENDBRANCH  33  34
ENDBRANCH  32  33
ENDBRANCH   6  32
ENDBRANCH   4   6
ENDBRANCH   1   2
BRANCH   1  43
ATOM     43  C   UNL     1     -12.473  -0.745  -7.068  1.00  0.00     0.102 C 
ATOM     44  C   UNL     1     -11.289   0.057  -7.633  1.00  0.00     0.020 C 
BRANCH  43  45
ATOM     45  C   UNL     1     -13.844  -0.159  -7.417  1.00  0.00     0.225 C 
ATOM     46  O   UNL     1     -14.057   1.048  -7.496  1.00  0.00    -0.275 OA
ATOM     47  N   UNL     1     -14.864  -1.074  -7.548  1.00  0.00    -0.342 N 
ATOM     48  H   UNL     1     -14.646  -2.057  -7.631  1.00  0.00     0.164 HD
BRANCH  47  49
ATOM     49  C   UNL     1     -16.221  -0.660  -7.915  1.00  0.00     0.192 C 
BRANCH  49  50
ATOM     50  C   UNL     1     -16.950  -0.132  -6.677  1.00  0.00     0.047 C 
BRANCH  50  51
ATOM     51  C   UNL     1     -18.242   0.615  -7.036  1.00  0.00     0.103 C 
BRANCH  51  52
ATOM     52  C   UNL     1     -17.997   1.729  -8.052  1.00  0.00     0.226 C 
ATOM     53  O   UNL     1     -17.069   2.521  -7.876  1.00  0.00    -0.275 OA
BRANCH  52  54
ATOM     54  N   UNL     1     -18.823   1.732  -9.191  1.00  0.00    -0.311 N 
ATOM     55  C   UNL     1     -20.068   2.510  -9.220  1.00  0.00     0.153 C 
BRANCH  54  56
ATOM     56  C   UNL     1     -18.486   0.999 -10.341  1.00  0.00     0.102 C 
ATOM     57  C   UNL     1     -17.318   1.091 -10.996  1.00  0.00     0.043 C 
BRANCH  56  58
ATOM     58  C   UNL     1     -19.442  -0.019 -10.918  1.00  0.00     0.268 C 
ATOM     59  O   UNL     1     -19.843   0.020 -12.073  1.00  0.00    -0.268 OA
ATOM     60  N   UNL     1     -19.758  -1.024 -10.036  1.00  0.00    -0.339 N 
ATOM     61  H   UNL     1     -19.392  -0.977  -9.092  1.00  0.00     0.164 HD
BRANCH  60  62
ATOM     62  C   UNL     1     -20.618  -2.146 -10.409  1.00  0.00     0.168 CG0
ATOM     63  C   UNL     1     -22.058  -1.898  -9.979  1.00  0.00     0.041 C 
ATOM     64  G   UNL     1     -20.075  -3.445  -9.777  1.00  0.00     0.000 G0
ENDBRANCH  60  62
ENDBRANCH  56  58
ENDBRANCH  54  56
ENDBRANCH  52  54
ENDBRANCH  51  52
ENDBRANCH  50  51
ENDBRANCH  49  50
BRANCH  49  65
ATOM     65  C   UNL     1     -17.023  -1.822  -8.520  1.00  0.00     0.326 C 
ATOM     66  O   UNL     1     -16.921  -2.235  -9.666  1.00  0.00    -0.250 OA
BRANCH  65  67
ATOM     67  O   UNL     1     -17.944  -2.364  -7.693  1.00  0.00    -0.480 OA
ATOM     68  H   UNL     1     -18.608  -1.648  -7.586  1.00  0.00     0.296 HD
ENDBRANCH  65  67
ENDBRANCH  49  65
ENDBRANCH  47  49
ENDBRANCH  43  45
ENDBRANCH   1  43
BRANCH   1  69
ATOM     69  C   UNL     1     -13.608  -0.951  -4.685  1.00  0.00    -0.001 C 
ATOM     70  C   UNL     1     -13.799  -1.490  -3.469  1.00  0.00     0.001 C 
BRANCH  70  71
ATOM     71  C   UNL     1     -15.003  -1.392  -2.642  1.00  0.00    -0.055 C 
ATOM     72  C   UNL     1     -16.041  -0.678  -3.127  1.00  0.00    -0.018 C 
ATOM     73  C   UNL     1     -15.002  -2.101  -1.312  1.00  0.00     0.044 C 
BRANCH  72  74
ATOM     74  C   UNL     1     -17.401  -0.409  -2.500  1.00  0.00     0.038 C 
ATOM     75  C   UNL     1     -18.436  -1.206  -3.305  1.00  0.00     0.015 C 
BRANCH  74  76
ATOM     76  C   UNL     1     -17.643   1.129  -2.468  1.00  0.00     0.128 C 
BRANCH  76  77
ATOM     77  O   UNL     1     -18.873   1.419  -1.784  1.00  0.00    -0.381 OA
ATOM     78  C   UNL     1     -19.469   2.648  -2.175  1.00  0.00     0.195 C 
ENDBRANCH  76  77
BRANCH  76  79
ATOM     79  C   UNL     1     -16.445   1.943  -1.918  1.00  0.00     0.068 C 
BRANCH  79  80
ATOM     80  C   UNL     1     -15.980   1.653  -0.511  1.00  0.00    -0.045 A 
ATOM     81  C   UNL     1     -16.813   1.897   0.589  1.00  0.00     0.004 A 
ATOM     82  C   UNL     1     -14.687   1.159  -0.281  1.00  0.00     0.004 A 
ATOM     83  C   UNL     1     -16.370   1.640   1.888  1.00  0.00     0.000 A 
ATOM     84  C   UNL     1     -14.245   0.903   1.019  1.00  0.00     0.000 A 
ATOM     85  C   UNL     1     -15.087   1.141   2.102  1.00  0.00     0.000 A 
ENDBRANCH  79  80
ENDBRANCH  76  79
ENDBRANCH  74  76
ENDBRANCH  72  74
ENDBRANCH  70  71
ENDBRANCH   1  69
TORSDOF 17
ENDMDL
MODEL 45
REMARK VINA RESULT:    -7.384      2.906     12.373
REMARK INTER + INTRA:         -29.282
REMARK INTER:                 -23.307
REMARK INTRA:                  -5.975
REMARK UNBOUND:                -7.222
REMARK SMILES C=C1C(=O)N[C@H](C)C(=O)N[C@@H](CC(C)C)C(=O)N[C@@H](C(=O)O)[C@H](C)C(=O)N[C@@H](CCCN=C(N)N)C(=O)N[C@@H](/C=C/C(C)=C/[C@H](C)[C@H](Cc2ccccc2)OC)[C@H](C)C(=O)N[C@@H](C(=O)O)CCC(=O)N1C
REMARK SMILES IDX 39 1 38 2 37 3 36 4 28 6 27 7 25 8 26 9 23 11 24 12 19 13
REMARK SMILES IDX 18 14 16 15 17 16 11 18 10 19 8 20 9 21 12 24 13 25 14 26
REMARK SMILES IDX 15 27 20 28 21 29 22 30 29 32 30 33 31 34 32 35 33 36 34 37
REMARK SMILES IDX 35 38 57 43 58 44 59 45 60 46 61 47 62 49 66 50 67 51 68 52
REMARK SMILES IDX 69 53 70 54 71 55 2 56 1 57 3 58 4 59 5 60 6 62 7 63 63 65
REMARK SMILES IDX 64 66 65 67 40 69 41 70 42 71 44 72 43 73 45 74 46 75 47 76
REMARK SMILES IDX 55 77 56 78 48 79 49 80 50 81 54 82 51 83 53 84 52 85
REMARK H PARENT 38 5 27 10 18 17 10 22 22 31 34 39 34 40 35 41 35 42 61 48
REMARK H PARENT 5 61 65 68
REMARK Flexibility Score:  369.900
ROOT
ATOM      1  C   UNL     1      -9.617   1.397  -3.774  1.00  0.00     0.117 C 
ENDROOT
BRANCH   1   2
ATOM      2  N   UNL     1     -10.710   1.236  -2.815  1.00  0.00    -0.347 N 
ATOM      3  O   UNL     1     -10.788   3.403  -2.062  1.00  0.00    -0.273 OA
ATOM      4  C   UNL     1     -11.271   2.276  -2.100  1.00  0.00     0.243 C 
ATOM      5  H   UNL     1     -11.128   0.326  -2.690  1.00  0.00     0.164 HD
BRANCH   4   6
ATOM      6  C   UNL     1     -12.472   1.850  -1.218  1.00  0.00     0.171 C 
BRANCH   6   7
ATOM      7  N   UNL     1     -13.381   0.974  -1.975  1.00  0.00    -0.344 N 
ATOM      8  C   UNL     1     -14.602   1.439  -2.413  1.00  0.00     0.226 C 
ATOM      9  O   UNL     1     -14.998   2.575  -2.180  1.00  0.00    -0.275 OA
ATOM     10  H   UNL     1     -13.118   0.009  -2.128  1.00  0.00     0.164 HD
BRANCH   8  11
ATOM     11  C   UNL     1     -15.399   0.434  -3.225  1.00  0.00     0.109 C 
ATOM     12  C   UNL     1     -14.456  -0.552  -3.914  1.00  0.00     0.021 C 
BRANCH  11  13
ATOM     13  C   UNL     1     -16.479  -0.216  -2.337  1.00  0.00     0.204 C 
BRANCH  13  14
ATOM     14  N   UNL     1     -17.683   0.615  -2.236  1.00  0.00    -0.340 N 
ATOM     15  C   UNL     1     -18.031   1.292  -1.087  1.00  0.00     0.243 C 
ATOM     16  O   UNL     1     -17.322   1.296  -0.082  1.00  0.00    -0.273 OA
ATOM     17  H   UNL     1     -18.386   0.534  -2.975  1.00  0.00     0.164 HD
BRANCH  15  18
ATOM     18  C   UNL     1     -19.441   1.930  -1.147  1.00  0.00     0.171 C 
BRANCH  18  19
ATOM     19  N   UNL     1     -20.374   0.852  -1.470  1.00  0.00    -0.343 N 
ATOM     20  C   UNL     1     -21.231   0.930  -2.551  1.00  0.00     0.242 CG0
ATOM     21  O   UNL     1     -21.343   1.960  -3.211  1.00  0.00    -0.273 OA
ATOM     22  H   UNL     1     -20.401   0.026  -0.884  1.00  0.00     0.164 HD
ATOM     23  G   UNL     1     -22.084  -0.335  -2.778  1.00  0.00     0.000 G0
ENDBRANCH  18  19
BRANCH  18  24
ATOM     24  C   UNL     1     -19.791   2.596   0.189  1.00  0.00     0.038 C 
BRANCH  24  25
ATOM     25  C   UNL     1     -20.076   4.110   0.099  1.00  0.00    -0.015 C 
ATOM     26  C   UNL     1     -21.343   4.421  -0.698  1.00  0.00     0.007 C 
ATOM     27  C   UNL     1     -18.879   4.822  -0.538  1.00  0.00     0.007 C 
ENDBRANCH  24  25
ENDBRANCH  18  24
ENDBRANCH  15  18
ENDBRANCH  13  14
BRANCH  13  28
ATOM     28  C   UNL     1     -16.921  -1.595  -2.835  1.00  0.00     0.327 C 
ATOM     29  O   UNL     1     -17.784  -1.821  -3.669  1.00  0.00    -0.250 OA
BRANCH  28  30
ATOM     30  O   UNL     1     -16.335  -2.610  -2.168  1.00  0.00    -0.480 OA
ATOM     31  H   UNL     1     -15.415  -2.306  -2.024  1.00  0.00     0.296 HD
ENDBRANCH  28  30
ENDBRANCH  13  28
ENDBRANCH  11  13
ENDBRANCH   8  11
ENDBRANCH   6   7
BRANCH   6  32
ATOM     32  C   UNL     1     -11.949   1.142   0.037  1.00  0.00     0.037 C 
BRANCH  32  33
ATOM     33  C   UNL     1     -12.432   1.819   1.327  1.00  0.00     0.026 C 
BRANCH  33  34
ATOM     34  C   UNL     1     -13.937   1.662   1.543  1.00  0.00     0.146 C 
BRANCH  34  35
ATOM     35  N   UNL     1     -14.490   2.945   1.952  1.00  0.00    -0.254 NA
ATOM     36  C   UNL     1     -15.651   2.970   2.493  1.00  0.00     0.185 C 
ATOM     37  N   UNL     1     -16.168   4.147   2.879  1.00  0.00    -0.370 N 
ATOM     38  N   UNL     1     -16.484   1.947   2.753  1.00  0.00    -0.370 N 
ATOM     39  H   UNL     1     -15.594   4.967   2.726  1.00  0.00     0.159 HD
ATOM     40  H   UNL     1     -16.983   4.232   3.461  1.00  0.00     0.159 HD
ATOM     41  H   UNL     1     -17.431   2.109   3.054  1.00  0.00     0.159 HD
ATOM     42  H   UNL     1     -16.232   1.004   2.501  1.00  0.00     0.159 HD
ENDBRANCH  34  35
ENDBRANCH  33  34
ENDBRANCH  32  33
ENDBRANCH   6  32
ENDBRANCH   4   6
ENDBRANCH   1   2
BRANCH   1  43
ATOM     43  C   UNL     1      -9.949   0.567  -5.048  1.00  0.00     0.102 C 
ATOM     44  C   UNL     1      -9.537  -0.911  -4.940  1.00  0.00     0.020 C 
BRANCH  43  45
ATOM     45  C   UNL     1      -9.432   1.265  -6.309  1.00  0.00     0.225 C 
ATOM     46  O   UNL     1     -10.173   1.752  -7.159  1.00  0.00    -0.275 OA
ATOM     47  N   UNL     1      -8.067   1.235  -6.487  1.00  0.00    -0.342 N 
ATOM     48  H   UNL     1      -7.469   0.971  -5.717  1.00  0.00     0.164 HD
BRANCH  47  49
ATOM     49  C   UNL     1      -7.428   1.893  -7.630  1.00  0.00     0.192 C 
BRANCH  49  50
ATOM     50  C   UNL     1      -6.770   0.842  -8.527  1.00  0.00     0.047 C 
BRANCH  50  51
ATOM     51  C   UNL     1      -7.660   0.451  -9.715  1.00  0.00     0.103 C 
BRANCH  51  52
ATOM     52  C   UNL     1      -6.855  -0.166 -10.857  1.00  0.00     0.226 C 
ATOM     53  O   UNL     1      -7.070  -1.331 -11.196  1.00  0.00    -0.275 OA
BRANCH  52  54
ATOM     54  N   UNL     1      -5.947   0.685 -11.514  1.00  0.00    -0.311 N 
ATOM     55  C   UNL     1      -6.411   1.889 -12.216  1.00  0.00     0.153 C 
BRANCH  54  56
ATOM     56  C   UNL     1      -4.567   0.420 -11.519  1.00  0.00     0.102 C 
ATOM     57  C   UNL     1      -3.891  -0.110 -12.552  1.00  0.00     0.043 C 
BRANCH  56  58
ATOM     58  C   UNL     1      -3.706   0.769 -10.329  1.00  0.00     0.268 C 
ATOM     59  O   UNL     1      -3.473  -0.014  -9.418  1.00  0.00    -0.268 OA
ATOM     60  N   UNL     1      -3.161   2.029 -10.407  1.00  0.00    -0.339 N 
ATOM     61  H   UNL     1      -3.413   2.620 -11.190  1.00  0.00     0.164 HD
BRANCH  60  62
ATOM     62  C   UNL     1      -2.246   2.546  -9.391  1.00  0.00     0.168 CG0
ATOM     63  C   UNL     1      -1.490   3.765  -9.906  1.00  0.00     0.041 C 
ATOM     64  G   UNL     1      -1.265   1.435  -8.965  1.00  0.00     0.000 G0
ENDBRANCH  60  62
ENDBRANCH  56  58
ENDBRANCH  54  56
ENDBRANCH  52  54
ENDBRANCH  51  52
ENDBRANCH  50  51
ENDBRANCH  49  50
BRANCH  49  65
ATOM     65  C   UNL     1      -6.369   2.911  -7.178  1.00  0.00     0.326 C 
ATOM     66  O   UNL     1      -5.228   2.988  -7.610  1.00  0.00    -0.250 OA
BRANCH  65  67
ATOM     67  O   UNL     1      -6.766   3.731  -6.180  1.00  0.00    -0.480 OA
ATOM     68  H   UNL     1      -7.738   3.787  -6.299  1.00  0.00     0.296 HD
ENDBRANCH  65  67
ENDBRANCH  49  65
ENDBRANCH  47  49
ENDBRANCH  43  45
ENDBRANCH   1  43
BRANCH   1  69
ATOM     69  C   UNL     1      -8.338   1.094  -3.014  1.00  0.00    -0.001 C 
ATOM     70  C   UNL     1      -7.823   1.777  -1.977  1.00  0.00     0.001 C 
BRANCH  70  71
ATOM     71  C   UNL     1      -6.599   1.462  -1.237  1.00  0.00    -0.055 C 
ATOM     72  C   UNL     1      -6.014   2.458  -0.539  1.00  0.00    -0.018 C 
ATOM     73  C   UNL     1      -6.083   0.048  -1.302  1.00  0.00     0.044 C 
BRANCH  72  74
ATOM     74  C   UNL     1      -4.754   2.425   0.314  1.00  0.00     0.038 C 
ATOM     75  C   UNL     1      -4.963   3.413   1.469  1.00  0.00     0.015 C 
BRANCH  74  76
ATOM     76  C   UNL     1      -3.527   2.732  -0.593  1.00  0.00     0.128 C 
BRANCH  76  77
ATOM     77  O   UNL     1      -2.724   1.549  -0.750  1.00  0.00    -0.381 OA
ATOM     78  C   UNL     1      -1.588   1.513   0.103  1.00  0.00     0.195 C 
ENDBRANCH  76  77
BRANCH  76  79
ATOM     79  C   UNL     1      -3.894   3.390  -1.947  1.00  0.00     0.068 C 
BRANCH  79  80
ATOM     80  C   UNL     1      -3.231   2.859  -3.195  1.00  0.00    -0.045 A 
ATOM     81  C   UNL     1      -1.920   3.225  -3.527  1.00  0.00     0.004 A 
ATOM     82  C   UNL     1      -3.933   2.007  -4.061  1.00  0.00     0.004 A 
ATOM     83  C   UNL     1      -1.318   2.740  -4.691  1.00  0.00     0.000 A 
ATOM     84  C   UNL     1      -3.331   1.523  -5.224  1.00  0.00     0.000 A 
ATOM     85  C   UNL     1      -2.024   1.888  -5.538  1.00  0.00     0.000 A 
ENDBRANCH  79  80
ENDBRANCH  76  79
ENDBRANCH  74  76
ENDBRANCH  72  74
ENDBRANCH  70  71
ENDBRANCH   1  69
TORSDOF 17
ENDMDL
MODEL 46
REMARK VINA RESULT:    -7.366      3.294     12.540
REMARK INTER + INTRA:         -29.230
REMARK INTER:                 -23.096
REMARK INTRA:                  -6.134
REMARK UNBOUND:                -7.222
REMARK SMILES C=C1C(=O)N[C@H](C)C(=O)N[C@@H](CC(C)C)C(=O)N[C@@H](C(=O)O)[C@H](C)C(=O)N[C@@H](CCCN=C(N)N)C(=O)N[C@@H](/C=C/C(C)=C/[C@H](C)[C@H](Cc2ccccc2)OC)[C@H](C)C(=O)N[C@@H](C(=O)O)CCC(=O)N1C
REMARK SMILES IDX 39 1 38 2 37 3 36 4 28 6 27 7 25 8 26 9 23 11 24 12 19 13
REMARK SMILES IDX 18 14 16 15 17 16 11 18 10 19 8 20 9 21 12 24 13 25 14 26
REMARK SMILES IDX 15 27 20 28 21 29 22 30 29 32 30 33 31 34 32 35 33 36 34 37
REMARK SMILES IDX 35 38 57 43 58 44 59 45 60 46 61 47 62 49 66 50 67 51 68 52
REMARK SMILES IDX 69 53 70 54 71 55 2 56 1 57 3 58 4 59 5 60 6 62 7 63 63 65
REMARK SMILES IDX 64 66 65 67 40 69 41 70 42 71 44 72 43 73 45 74 46 75 47 76
REMARK SMILES IDX 55 77 56 78 48 79 49 80 50 81 54 82 51 83 53 84 52 85
REMARK H PARENT 38 5 27 10 18 17 10 22 22 31 34 39 34 40 35 41 35 42 61 48
REMARK H PARENT 5 61 65 68
REMARK Flexibility Score:  369.900
ROOT
ATOM      1  C   UNL     1      -9.544   1.364  -3.968  1.00  0.00     0.117 C 
ENDROOT
BRANCH   1   2
ATOM      2  N   UNL     1     -10.592   1.161  -2.967  1.00  0.00    -0.347 N 
ATOM      3  O   UNL     1     -10.631   3.294  -2.117  1.00  0.00    -0.273 OA
ATOM      4  C   UNL     1     -11.117   2.169  -2.181  1.00  0.00     0.243 C 
ATOM      5  H   UNL     1     -11.005   0.247  -2.862  1.00  0.00     0.164 HD
BRANCH   4   6
ATOM      6  C   UNL     1     -12.277   1.705  -1.264  1.00  0.00     0.171 C 
BRANCH   6   7
ATOM      7  N   UNL     1     -13.209   0.844  -2.009  1.00  0.00    -0.344 N 
ATOM      8  C   UNL     1     -14.433   1.326  -2.422  1.00  0.00     0.226 C 
ATOM      9  O   UNL     1     -14.811   2.465  -2.175  1.00  0.00    -0.275 OA
ATOM     10  H   UNL     1     -12.960  -0.123  -2.173  1.00  0.00     0.164 HD
BRANCH   8  11
ATOM     11  C   UNL     1     -15.257   0.335  -3.225  1.00  0.00     0.109 C 
ATOM     12  C   UNL     1     -14.347  -0.732  -3.835  1.00  0.00     0.021 C 
BRANCH  11  13
ATOM     13  C   UNL     1     -16.407  -0.213  -2.357  1.00  0.00     0.204 C 
BRANCH  13  14
ATOM     14  N   UNL     1     -17.541   0.714  -2.295  1.00  0.00    -0.340 N 
ATOM     15  C   UNL     1     -17.896   1.386  -1.145  1.00  0.00     0.243 C 
ATOM     16  O   UNL     1     -17.248   1.301  -0.103  1.00  0.00    -0.273 OA
ATOM     17  H   UNL     1     -18.205   0.714  -3.073  1.00  0.00     0.164 HD
BRANCH  15  18
ATOM     18  C   UNL     1     -19.242   2.143  -1.261  1.00  0.00     0.171 C 
BRANCH  18  19
ATOM     19  N   UNL     1     -19.064   3.421  -0.576  1.00  0.00    -0.343 N 
ATOM     20  C   UNL     1     -19.770   3.738   0.569  1.00  0.00     0.242 CG0
ATOM     21  O   UNL     1     -20.674   3.019   0.988  1.00  0.00    -0.273 OA
ATOM     22  H   UNL     1     -18.411   4.100  -0.950  1.00  0.00     0.164 HD
ATOM     23  G   UNL     1     -19.391   5.097   1.194  1.00  0.00     0.000 G0
ENDBRANCH  18  19
BRANCH  18  24
ATOM     24  C   UNL     1     -19.625   2.343  -2.733  1.00  0.00     0.038 C 
BRANCH  24  25
ATOM     25  C   UNL     1     -21.015   1.793  -3.117  1.00  0.00    -0.015 C 
ATOM     26  C   UNL     1     -22.119   2.288  -2.183  1.00  0.00     0.007 C 
ATOM     27  C   UNL     1     -20.983   0.262  -3.111  1.00  0.00     0.007 C 
ENDBRANCH  24  25
ENDBRANCH  18  24
ENDBRANCH  15  18
ENDBRANCH  13  14
BRANCH  13  28
ATOM     28  C   UNL     1     -16.947  -1.559  -2.850  1.00  0.00     0.327 C 
ATOM     29  O   UNL     1     -17.824  -1.723  -3.684  1.00  0.00    -0.250 OA
BRANCH  28  30
ATOM     30  O   UNL     1     -16.436  -2.611  -2.180  1.00  0.00    -0.480 OA
ATOM     31  H   UNL     1     -15.496  -2.374  -2.038  1.00  0.00     0.296 HD
ENDBRANCH  28  30
ENDBRANCH  13  28
ENDBRANCH  11  13
ENDBRANCH   8  11
ENDBRANCH   6   7
BRANCH   6  32
ATOM     32  C   UNL     1     -11.696   0.964  -0.055  1.00  0.00     0.037 C 
BRANCH  32  33
ATOM     33  C   UNL     1     -12.189   1.550   1.276  1.00  0.00     0.026 C 
BRANCH  33  34
ATOM     34  C   UNL     1     -13.713   1.514   1.402  1.00  0.00     0.146 C 
BRANCH  34  35
ATOM     35  N   UNL     1     -14.182   2.831   1.807  1.00  0.00    -0.254 NA
ATOM     36  C   UNL     1     -15.351   2.937   2.319  1.00  0.00     0.185 C 
ATOM     37  N   UNL     1     -15.792   4.146   2.700  1.00  0.00    -0.370 N 
ATOM     38  N   UNL     1     -16.261   1.974   2.552  1.00  0.00    -0.370 N 
ATOM     39  H   UNL     1     -15.157   4.923   2.567  1.00  0.00     0.159 HD
ATOM     40  H   UNL     1     -16.613   4.286   3.263  1.00  0.00     0.159 HD
ATOM     41  H   UNL     1     -17.201   2.203   2.832  1.00  0.00     0.159 HD
ATOM     42  H   UNL     1     -16.071   1.017   2.300  1.00  0.00     0.159 HD
ENDBRANCH  34  35
ENDBRANCH  33  34
ENDBRANCH  32  33
ENDBRANCH   6  32
ENDBRANCH   4   6
ENDBRANCH   1   2
BRANCH   1  43
ATOM     43  C   UNL     1      -9.946   0.607  -5.266  1.00  0.00     0.102 C 
ATOM     44  C   UNL     1      -9.766  -0.917  -5.167  1.00  0.00     0.020 C 
BRANCH  43  45
ATOM     45  C   UNL     1      -9.281   1.233  -6.496  1.00  0.00     0.225 C 
ATOM     46  O   UNL     1      -9.915   1.758  -7.407  1.00  0.00    -0.275 OA
ATOM     47  N   UNL     1      -7.915   1.088  -6.568  1.00  0.00    -0.342 N 
ATOM     48  H   UNL     1      -7.399   0.795  -5.751  1.00  0.00     0.164 HD
BRANCH  47  49
ATOM     49  C   UNL     1      -7.140   1.667  -7.670  1.00  0.00     0.192 C 
BRANCH  49  50
ATOM     50  C   UNL     1      -6.048   0.686  -8.103  1.00  0.00     0.047 C 
BRANCH  50  51
ATOM     51  C   UNL     1      -6.524  -0.262  -9.212  1.00  0.00     0.103 C 
BRANCH  51  52
ATOM     52  C   UNL     1      -5.526  -0.343 -10.365  1.00  0.00     0.226 C 
ATOM     53  O   UNL     1      -5.233  -1.440 -10.843  1.00  0.00    -0.275 OA
BRANCH  52  54
ATOM     54  N   UNL     1      -5.050   0.882 -10.869  1.00  0.00    -0.311 N 
ATOM     55  C   UNL     1      -5.970   1.872 -11.445  1.00  0.00     0.153 C 
BRANCH  54  56
ATOM     56  C   UNL     1      -3.683   1.207 -10.834  1.00  0.00     0.102 C 
ATOM     57  C   UNL     1      -3.070   1.841  -9.821  1.00  0.00     0.043 C 
BRANCH  56  58
ATOM     58  C   UNL     1      -2.763   0.808 -11.963  1.00  0.00     0.268 C 
ATOM     59  O   UNL     1      -1.553   0.990 -11.937  1.00  0.00    -0.268 OA
ATOM     60  N   UNL     1      -3.413   0.163 -12.988  1.00  0.00    -0.339 N 
ATOM     61  H   UNL     1      -4.420   0.061 -12.938  1.00  0.00     0.164 HD
BRANCH  60  62
ATOM     62  C   UNL     1      -2.703  -0.364 -14.152  1.00  0.00     0.168 CG0
ATOM     63  C   UNL     1      -3.394   0.046 -15.447  1.00  0.00     0.041 C 
ATOM     64  G   UNL     1      -2.607  -1.900 -14.047  1.00  0.00     0.000 G0
ENDBRANCH  60  62
ENDBRANCH  56  58
ENDBRANCH  54  56
ENDBRANCH  52  54
ENDBRANCH  51  52
ENDBRANCH  50  51
ENDBRANCH  49  50
BRANCH  49  65
ATOM     65  C   UNL     1      -6.494   3.003  -7.269  1.00  0.00     0.326 C 
ATOM     66  O   UNL     1      -6.674   3.590  -6.212  1.00  0.00    -0.250 OA
BRANCH  65  67
ATOM     67  O   UNL     1      -5.714   3.560  -8.221  1.00  0.00    -0.480 OA
ATOM     68  H   UNL     1      -5.391   2.789  -8.736  1.00  0.00     0.296 HD
ENDBRANCH  65  67
ENDBRANCH  49  65
ENDBRANCH  47  49
ENDBRANCH  43  45
ENDBRANCH   1  43
BRANCH   1  69
ATOM     69  C   UNL     1      -8.235   1.010  -3.288  1.00  0.00    -0.001 C 
ATOM     70  C   UNL     1      -7.514   1.778  -2.452  1.00  0.00     0.001 C 
BRANCH  70  71
ATOM     71  C   UNL     1      -6.261   1.417  -1.785  1.00  0.00    -0.055 C 
ATOM     72  C   UNL     1      -5.666   2.354  -1.017  1.00  0.00    -0.018 C 
ATOM     73  C   UNL     1      -5.730   0.023  -1.995  1.00  0.00     0.044 C 
BRANCH  72  74
ATOM     74  C   UNL     1      -4.377   2.264  -0.213  1.00  0.00     0.038 C 
ATOM     75  C   UNL     1      -4.631   2.963   1.128  1.00  0.00     0.015 C 
BRANCH  74  76
ATOM     76  C   UNL     1      -3.217   2.870  -1.056  1.00  0.00     0.128 C 
BRANCH  76  77
ATOM     77  O   UNL     1      -2.156   1.909  -1.193  1.00  0.00    -0.381 OA
ATOM     78  C   UNL     1      -0.973   2.261  -0.490  1.00  0.00     0.195 C 
ENDBRANCH  76  77
BRANCH  76  79
ATOM     79  C   UNL     1      -3.669   3.463  -2.414  1.00  0.00     0.068 C 
BRANCH  79  80
ATOM     80  C   UNL     1      -3.089   2.866  -3.674  1.00  0.00    -0.045 A 
ATOM     81  C   UNL     1      -1.764   3.121  -4.050  1.00  0.00     0.004 A 
ATOM     82  C   UNL     1      -3.884   2.064  -4.507  1.00  0.00     0.004 A 
ATOM     83  C   UNL     1      -1.239   2.576  -5.224  1.00  0.00     0.000 A 
ATOM     84  C   UNL     1      -3.359   1.521  -5.682  1.00  0.00     0.000 A 
ATOM     85  C   UNL     1      -2.036   1.775  -6.039  1.00  0.00     0.000 A 
ENDBRANCH  79  80
ENDBRANCH  76  79
ENDBRANCH  74  76
ENDBRANCH  72  74
ENDBRANCH  70  71
ENDBRANCH   1  69
TORSDOF 17
ENDMDL
MODEL 47
REMARK VINA RESULT:    -7.362      3.663     12.953
REMARK INTER + INTRA:         -29.216
REMARK INTER:                 -24.529
REMARK INTRA:                  -4.687
REMARK UNBOUND:                -7.222
REMARK SMILES C=C1C(=O)N[C@H](C)C(=O)N[C@@H](CC(C)C)C(=O)N[C@@H](C(=O)O)[C@H](C)C(=O)N[C@@H](CCCN=C(N)N)C(=O)N[C@@H](/C=C/C(C)=C/[C@H](C)[C@H](Cc2ccccc2)OC)[C@H](C)C(=O)N[C@@H](C(=O)O)CCC(=O)N1C
REMARK SMILES IDX 39 1 38 2 37 3 36 4 28 6 27 7 25 8 26 9 23 11 24 12 19 13
REMARK SMILES IDX 18 14 16 15 17 16 11 18 10 19 8 20 9 21 12 24 13 25 14 26
REMARK SMILES IDX 15 27 20 28 21 29 22 30 29 32 30 33 31 34 32 35 33 36 34 37
REMARK SMILES IDX 35 38 57 43 58 44 59 45 60 46 61 47 62 49 66 50 67 51 68 52
REMARK SMILES IDX 69 53 70 54 71 55 2 56 1 57 3 58 4 59 5 60 6 62 7 63 63 65
REMARK SMILES IDX 64 66 65 67 40 69 41 70 42 71 44 72 43 73 45 74 46 75 47 76
REMARK SMILES IDX 55 77 56 78 48 79 49 80 50 81 54 82 51 83 53 84 52 85
REMARK H PARENT 38 5 27 10 18 17 10 22 22 31 34 39 34 40 35 41 35 42 61 48
REMARK H PARENT 5 61 65 68
REMARK Flexibility Score:  369.900
ROOT
ATOM      1  C   UNL     1      -5.441   2.399  -4.345  1.00  0.00     0.117 C 
ENDROOT
BRANCH   1   2
ATOM      2  N   UNL     1      -6.767   1.780  -4.358  1.00  0.00    -0.347 N 
ATOM      3  O   UNL     1      -6.243  -0.109  -3.164  1.00  0.00    -0.273 OA
ATOM      4  C   UNL     1      -7.084   0.616  -3.686  1.00  0.00     0.243 C 
ATOM      5  H   UNL     1      -7.523   2.242  -4.842  1.00  0.00     0.164 HD
BRANCH   4   6
ATOM      6  C   UNL     1      -8.579   0.222  -3.792  1.00  0.00     0.171 C 
BRANCH   6   7
ATOM      7  N   UNL     1      -9.401   1.086  -2.929  1.00  0.00    -0.344 N 
ATOM      8  C   UNL     1     -10.296   0.538  -2.035  1.00  0.00     0.226 C 
ATOM      9  O   UNL     1     -10.468  -0.670  -1.929  1.00  0.00    -0.275 OA
ATOM     10  H   UNL     1      -9.336   2.090  -3.036  1.00  0.00     0.164 HD
BRANCH   8  11
ATOM     11  C   UNL     1     -11.028   1.558  -1.180  1.00  0.00     0.109 C 
ATOM     12  C   UNL     1     -10.833   2.962  -1.752  1.00  0.00     0.021 C 
BRANCH  11  13
ATOM     13  C   UNL     1     -12.498   1.129  -1.001  1.00  0.00     0.204 C 
BRANCH  13  14
ATOM     14  N   UNL     1     -12.993   0.364  -2.150  1.00  0.00    -0.340 N 
ATOM     15  C   UNL     1     -14.055   0.779  -2.924  1.00  0.00     0.243 C 
ATOM     16  O   UNL     1     -14.625   1.853  -2.742  1.00  0.00    -0.273 OA
ATOM     17  H   UNL     1     -12.667  -0.600  -2.262  1.00  0.00     0.164 HD
BRANCH  15  18
ATOM     18  C   UNL     1     -14.530  -0.285  -3.945  1.00  0.00     0.171 C 
BRANCH  18  19
ATOM     19  N   UNL     1     -15.908  -0.618  -3.591  1.00  0.00    -0.343 N 
ATOM     20  C   UNL     1     -16.205  -1.482  -2.554  1.00  0.00     0.242 CG0
ATOM     21  O   UNL     1     -15.327  -2.111  -1.969  1.00  0.00    -0.273 OA
ATOM     22  H   UNL     1     -16.670  -0.213  -4.122  1.00  0.00     0.164 HD
ATOM     23  G   UNL     1     -17.714  -1.651  -2.280  1.00  0.00     0.000 G0
ENDBRANCH  18  19
BRANCH  18  24
ATOM     24  C   UNL     1     -14.432   0.258  -5.376  1.00  0.00     0.038 C 
BRANCH  24  25
ATOM     25  C   UNL     1     -13.845  -0.735  -6.402  1.00  0.00    -0.015 C 
ATOM     26  C   UNL     1     -12.393  -1.103  -6.095  1.00  0.00     0.007 C 
ATOM     27  C   UNL     1     -13.938  -0.136  -7.808  1.00  0.00     0.007 C 
ENDBRANCH  24  25
ENDBRANCH  18  24
ENDBRANCH  15  18
ENDBRANCH  13  14
BRANCH  13  28
ATOM     28  C   UNL     1     -12.730   0.273   0.248  1.00  0.00     0.327 C 
ATOM     29  O   UNL     1     -13.459  -0.704   0.329  1.00  0.00    -0.250 OA
BRANCH  28  30
ATOM     30  O   UNL     1     -12.124   0.766   1.347  1.00  0.00    -0.480 OA
ATOM     31  H   UNL     1     -12.658   0.420   2.092  1.00  0.00     0.296 HD
ENDBRANCH  28  30
ENDBRANCH  13  28
ENDBRANCH  11  13
ENDBRANCH   8  11
ENDBRANCH   6   7
BRANCH   6  32
ATOM     32  C   UNL     1      -9.025   0.327  -5.255  1.00  0.00     0.037 C 
BRANCH  32  33
ATOM     33  C   UNL     1      -9.870   1.582  -5.514  1.00  0.00     0.026 C 
BRANCH  33  34
ATOM     34  C   UNL     1     -10.088   1.842  -7.005  1.00  0.00     0.146 C 
BRANCH  34  35
ATOM     35  N   UNL     1      -8.993   1.239  -7.753  1.00  0.00    -0.254 NA
ATOM     36  C   UNL     1      -9.101   1.135  -9.025  1.00  0.00     0.185 C 
ATOM     37  N   UNL     1      -8.096   0.586  -9.724  1.00  0.00    -0.370 N 
ATOM     38  N   UNL     1     -10.119   1.511  -9.820  1.00  0.00    -0.370 N 
ATOM     39  H   UNL     1      -7.287   0.286  -9.196  1.00  0.00     0.159 HD
ATOM     40  H   UNL     1      -8.029   0.626 -10.726  1.00  0.00     0.159 HD
ATOM     41  H   UNL     1     -10.145   1.249 -10.791  1.00  0.00     0.159 HD
ATOM     42  H   UNL     1     -10.950   1.926  -9.427  1.00  0.00     0.159 HD
ENDBRANCH  34  35
ENDBRANCH  33  34
ENDBRANCH  32  33
ENDBRANCH   6  32
ENDBRANCH   4   6
ENDBRANCH   1   2
BRANCH   1  43
ATOM     43  C   UNL     1      -4.486   1.542  -5.225  1.00  0.00     0.102 C 
ATOM     44  C   UNL     1      -3.052   1.462  -4.673  1.00  0.00     0.020 C 
BRANCH  43  45
ATOM     45  C   UNL     1      -4.563   1.965  -6.695  1.00  0.00     0.225 C 
ATOM     46  O   UNL     1      -5.624   2.166  -7.280  1.00  0.00    -0.275 OA
ATOM     47  N   UNL     1      -3.360   2.017  -7.360  1.00  0.00    -0.342 N 
ATOM     48  H   UNL     1      -2.497   1.999  -6.835  1.00  0.00     0.164 HD
BRANCH  47  49
ATOM     49  C   UNL     1      -3.277   2.441  -8.761  1.00  0.00     0.192 C 
BRANCH  49  50
ATOM     50  C   UNL     1      -3.342   1.214  -9.674  1.00  0.00     0.047 C 
BRANCH  50  51
ATOM     51  C   UNL     1      -4.526   1.276 -10.648  1.00  0.00     0.103 C 
BRANCH  51  52
ATOM     52  C   UNL     1      -4.972  -0.115 -11.098  1.00  0.00     0.226 C 
ATOM     53  O   UNL     1      -5.199  -0.985 -10.255  1.00  0.00    -0.275 OA
BRANCH  52  54
ATOM     54  N   UNL     1      -5.171  -0.293 -12.480  1.00  0.00    -0.311 N 
ATOM     55  C   UNL     1      -5.929  -1.442 -12.993  1.00  0.00     0.153 C 
BRANCH  54  56
ATOM     56  C   UNL     1      -4.660   0.621 -13.417  1.00  0.00     0.102 C 
ATOM     57  C   UNL     1      -5.399   1.490 -14.125  1.00  0.00     0.043 C 
BRANCH  56  58
ATOM     58  C   UNL     1      -3.174   0.722 -13.669  1.00  0.00     0.268 C 
ATOM     59  O   UNL     1      -2.557   1.778 -13.624  1.00  0.00    -0.268 OA
ATOM     60  N   UNL     1      -2.578  -0.497 -13.889  1.00  0.00    -0.339 N 
ATOM     61  H   UNL     1      -3.161  -1.325 -13.921  1.00  0.00     0.164 HD
BRANCH  60  62
ATOM     62  C   UNL     1      -1.137  -0.635 -14.093  1.00  0.00     0.168 CG0
ATOM     63  C   UNL     1      -0.403  -0.737 -12.761  1.00  0.00     0.041 C 
ATOM     64  G   UNL     1      -0.614   0.562 -14.913  1.00  0.00     0.000 G0
ENDBRANCH  60  62
ENDBRANCH  56  58
ENDBRANCH  54  56
ENDBRANCH  52  54
ENDBRANCH  51  52
ENDBRANCH  50  51
ENDBRANCH  49  50
BRANCH  49  65
ATOM     65  C   UNL     1      -1.981   3.218  -9.043  1.00  0.00     0.326 C 
ATOM     66  O   UNL     1      -1.280   3.760  -8.200  1.00  0.00    -0.250 OA
BRANCH  65  67
ATOM     67  O   UNL     1      -1.663   3.328 -10.351  1.00  0.00    -0.480 OA
ATOM     68  H   UNL     1      -0.843   2.796 -10.436  1.00  0.00     0.296 HD
ENDBRANCH  65  67
ENDBRANCH  49  65
ENDBRANCH  47  49
ENDBRANCH  43  45
ENDBRANCH   1  43
BRANCH   1  69
ATOM     69  C   UNL     1      -5.092   2.622  -2.885  1.00  0.00    -0.001 C 
ATOM     70  C   UNL     1      -4.030   2.139  -2.216  1.00  0.00     0.001 C 
BRANCH  70  71
ATOM     71  C   UNL     1      -3.692   2.378  -0.812  1.00  0.00    -0.055 C 
ATOM     72  C   UNL     1      -4.508   3.181  -0.098  1.00  0.00    -0.018 C 
ATOM     73  C   UNL     1      -2.462   1.705  -0.261  1.00  0.00     0.044 C 
BRANCH  72  74
ATOM     74  C   UNL     1      -4.411   3.601   1.362  1.00  0.00     0.038 C 
ATOM     75  C   UNL     1      -2.992   4.139   1.584  1.00  0.00     0.015 C 
BRANCH  74  76
ATOM     76  C   UNL     1      -4.797   2.388   2.259  1.00  0.00     0.128 C 
BRANCH  76  77
ATOM     77  O   UNL     1      -3.909   2.310   3.388  1.00  0.00    -0.381 OA
ATOM     78  C   UNL     1      -4.546   1.889   4.586  1.00  0.00     0.195 C 
ENDBRANCH  76  77
BRANCH  76  79
ATOM     79  C   UNL     1      -6.291   2.358   2.668  1.00  0.00     0.068 C 
BRANCH  79  80
ATOM     80  C   UNL     1      -7.149   1.238   2.130  1.00  0.00    -0.045 A 
ATOM     81  C   UNL     1      -8.017   0.527   2.969  1.00  0.00     0.004 A 
ATOM     82  C   UNL     1      -7.067   0.872   0.778  1.00  0.00     0.004 A 
ATOM     83  C   UNL     1      -8.796  -0.517   2.467  1.00  0.00     0.000 A 
ATOM     84  C   UNL     1      -7.847  -0.173   0.277  1.00  0.00     0.000 A 
ATOM     85  C   UNL     1      -8.712  -0.866   1.120  1.00  0.00     0.000 A 
ENDBRANCH  79  80
ENDBRANCH  76  79
ENDBRANCH  74  76
ENDBRANCH  72  74
ENDBRANCH  70  71
ENDBRANCH   1  69
TORSDOF 17
ENDMDL
MODEL 48
REMARK VINA RESULT:    -7.328      4.712      9.888
REMARK INTER + INTRA:         -29.116
REMARK INTER:                 -23.009
REMARK INTRA:                  -6.107
REMARK UNBOUND:                -7.222
REMARK SMILES C=C1C(=O)N[C@H](C)C(=O)N[C@@H](CC(C)C)C(=O)N[C@@H](C(=O)O)[C@H](C)C(=O)N[C@@H](CCCN=C(N)N)C(=O)N[C@@H](/C=C/C(C)=C/[C@H](C)[C@H](Cc2ccccc2)OC)[C@H](C)C(=O)N[C@@H](C(=O)O)CCC(=O)N1C
REMARK SMILES IDX 39 1 38 2 37 3 36 4 28 6 27 7 25 8 26 9 23 11 24 12 19 13
REMARK SMILES IDX 18 14 16 15 17 16 11 18 10 19 8 20 9 21 12 24 13 25 14 26
REMARK SMILES IDX 15 27 20 28 21 29 22 30 29 32 30 33 31 34 32 35 33 36 34 37
REMARK SMILES IDX 35 38 57 43 58 44 59 45 60 46 61 47 62 49 66 50 67 51 68 52
REMARK SMILES IDX 69 53 70 54 71 55 2 56 1 57 3 58 4 59 5 60 6 62 7 63 63 65
REMARK SMILES IDX 64 66 65 67 40 69 41 70 42 71 44 72 43 73 45 74 46 75 47 76
REMARK SMILES IDX 55 77 56 78 48 79 49 80 50 81 54 82 51 83 53 84 52 85
REMARK H PARENT 38 5 27 10 18 17 10 22 22 31 34 39 34 40 35 41 35 42 61 48
REMARK H PARENT 5 61 65 68
REMARK Flexibility Score:  369.900
ROOT
ATOM      1  C   UNL     1     -12.371  -0.692  -5.656  1.00  0.00     0.117 C 
ENDROOT
BRANCH   1   2
ATOM      2  N   UNL     1     -11.432   0.168  -4.934  1.00  0.00    -0.347 N 
ATOM      3  O   UNL     1      -9.944  -1.459  -4.294  1.00  0.00    -0.273 OA
ATOM      4  C   UNL     1     -10.243  -0.273  -4.387  1.00  0.00     0.243 C 
ATOM      5  H   UNL     1     -11.623   1.156  -4.862  1.00  0.00     0.164 HD
BRANCH   4   6
ATOM      6  C   UNL     1      -9.392   0.857  -3.753  1.00  0.00     0.171 C 
BRANCH   6   7
ATOM      7  N   UNL     1      -9.314   0.685  -2.294  1.00  0.00    -0.344 N 
ATOM      8  C   UNL     1      -9.274   1.780  -1.458  1.00  0.00     0.226 C 
ATOM      9  O   UNL     1      -9.278   2.931  -1.877  1.00  0.00    -0.275 OA
ATOM     10  H   UNL     1      -9.241  -0.251  -1.913  1.00  0.00     0.164 HD
BRANCH   8  11
ATOM     11  C   UNL     1      -9.250   1.437   0.021  1.00  0.00     0.109 C 
ATOM     12  C   UNL     1     -10.451   0.560   0.378  1.00  0.00     0.021 C 
BRANCH  11  13
ATOM     13  C   UNL     1      -7.879   0.841   0.397  1.00  0.00     0.204 C 
BRANCH  13  14
ATOM     14  N   UNL     1      -6.781   1.779   0.141  1.00  0.00    -0.340 N 
ATOM     15  C   UNL     1      -5.556   1.381  -0.349  1.00  0.00     0.243 C 
ATOM     16  O   UNL     1      -5.317   0.217  -0.664  1.00  0.00    -0.273 OA
ATOM     17  H   UNL     1      -6.861   2.727   0.520  1.00  0.00     0.164 HD
BRANCH  15  18
ATOM     18  C   UNL     1      -4.492   2.506  -0.341  1.00  0.00     0.171 C 
BRANCH  18  19
ATOM     19  N   UNL     1      -3.685   2.311   0.862  1.00  0.00    -0.343 N 
ATOM     20  C   UNL     1      -3.813   3.130   1.967  1.00  0.00     0.242 CG0
ATOM     21  O   UNL     1      -4.514   4.139   1.942  1.00  0.00    -0.273 OA
ATOM     22  H   UNL     1      -3.006   1.558   0.888  1.00  0.00     0.164 HD
ATOM     23  G   UNL     1      -2.936   2.721   3.168  1.00  0.00     0.000 G0
ENDBRANCH  18  19
BRANCH  18  24
ATOM     24  C   UNL     1      -3.633   2.448  -1.610  1.00  0.00     0.038 C 
BRANCH  24  25
ATOM     25  C   UNL     1      -4.432   2.450  -2.930  1.00  0.00    -0.015 C 
ATOM     26  C   UNL     1      -4.073   1.269  -3.833  1.00  0.00     0.007 C 
ATOM     27  C   UNL     1      -4.188   3.763  -3.678  1.00  0.00     0.007 C 
ENDBRANCH  24  25
ENDBRANCH  18  24
ENDBRANCH  15  18
ENDBRANCH  13  14
BRANCH  13  28
ATOM     28  C   UNL     1      -7.784   0.423   1.867  1.00  0.00     0.327 C 
ATOM     29  O   UNL     1      -7.867  -0.716   2.301  1.00  0.00    -0.250 OA
BRANCH  28  30
ATOM     30  O   UNL     1      -7.711   1.471   2.712  1.00  0.00    -0.480 OA
ATOM     31  H   UNL     1      -8.384   2.099   2.376  1.00  0.00     0.296 HD
ENDBRANCH  28  30
ENDBRANCH  13  28
ENDBRANCH  11  13
ENDBRANCH   8  11
ENDBRANCH   6   7
BRANCH   6  32
ATOM     32  C   UNL     1      -7.994   0.847  -4.381  1.00  0.00     0.037 C 
BRANCH  32  33
ATOM     33  C   UNL     1      -7.566   2.240  -4.865  1.00  0.00     0.026 C 
BRANCH  33  34
ATOM     34  C   UNL     1      -7.696   2.398  -6.380  1.00  0.00     0.146 C 
BRANCH  34  35
ATOM     35  N   UNL     1      -6.983   1.306  -7.029  1.00  0.00    -0.254 NA
ATOM     36  C   UNL     1      -7.312   0.981  -8.224  1.00  0.00     0.185 C 
ATOM     37  N   UNL     1      -6.658  -0.020  -8.833  1.00  0.00    -0.370 N 
ATOM     38  N   UNL     1      -8.262   1.514  -9.012  1.00  0.00    -0.370 N 
ATOM     39  H   UNL     1      -5.918  -0.467  -8.306  1.00  0.00     0.159 HD
ATOM     40  H   UNL     1      -6.735  -0.218  -9.815  1.00  0.00     0.159 HD
ATOM     41  H   UNL     1      -8.520   1.079  -9.883  1.00  0.00     0.159 HD
ATOM     42  H   UNL     1      -8.844   2.266  -8.678  1.00  0.00     0.159 HD
ENDBRANCH  34  35
ENDBRANCH  33  34
ENDBRANCH  32  33
ENDBRANCH   6  32
ENDBRANCH   4   6
ENDBRANCH   1   2
BRANCH   1  43
ATOM     43  C   UNL     1     -12.498  -0.171  -7.116  1.00  0.00     0.102 C 
ATOM     44  C   UNL     1     -11.430   0.872  -7.489  1.00  0.00     0.020 C 
BRANCH  43  45
ATOM     45  C   UNL     1     -13.932   0.272  -7.419  1.00  0.00     0.225 C 
ATOM     46  O   UNL     1     -14.322   1.428  -7.276  1.00  0.00    -0.275 OA
ATOM     47  N   UNL     1     -14.799  -0.734  -7.779  1.00  0.00    -0.342 N 
ATOM     48  H   UNL     1     -14.435  -1.640  -8.038  1.00  0.00     0.164 HD
BRANCH  47  49
ATOM     49  C   UNL     1     -16.194  -0.453  -8.133  1.00  0.00     0.192 C 
BRANCH  49  50
ATOM     50  C   UNL     1     -16.969  -0.039  -6.879  1.00  0.00     0.047 C 
BRANCH  50  51
ATOM     51  C   UNL     1     -18.351   0.538  -7.213  1.00  0.00     0.103 C 
BRANCH  51  52
ATOM     52  C   UNL     1     -18.285   1.571  -8.337  1.00  0.00     0.226 C 
ATOM     53  O   UNL     1     -17.615   2.594  -8.187  1.00  0.00    -0.275 OA
BRANCH  52  54
ATOM     54  N   UNL     1     -18.953   1.241  -9.531  1.00  0.00    -0.311 N 
ATOM     55  C   UNL     1     -19.965   0.177  -9.562  1.00  0.00     0.153 C 
BRANCH  54  56
ATOM     56  C   UNL     1     -18.682   1.917 -10.732  1.00  0.00     0.102 C 
ATOM     57  C   UNL     1     -19.576   2.645 -11.422  1.00  0.00     0.043 C 
BRANCH  56  58
ATOM     58  C   UNL     1     -17.296   1.908 -11.332  1.00  0.00     0.268 C 
ATOM     59  O   UNL     1     -16.517   0.973 -11.203  1.00  0.00    -0.268 OA
ATOM     60  N   UNL     1     -17.027   3.024 -12.088  1.00  0.00    -0.339 N 
ATOM     61  H   UNL     1     -17.722   3.759 -12.136  1.00  0.00     0.164 HD
BRANCH  60  62
ATOM     62  C   UNL     1     -15.766   3.190 -12.809  1.00  0.00     0.168 CG0
ATOM     63  C   UNL     1     -14.716   3.858 -11.929  1.00  0.00     0.041 C 
ATOM     64  G   UNL     1     -16.008   4.014 -14.091  1.00  0.00     0.000 G0
ENDBRANCH  60  62
ENDBRANCH  56  58
ENDBRANCH  54  56
ENDBRANCH  52  54
ENDBRANCH  51  52
ENDBRANCH  50  51
ENDBRANCH  49  50
BRANCH  49  65
ATOM     65  C   UNL     1     -16.874  -1.674  -8.771  1.00  0.00     0.326 C 
ATOM     66  O   UNL     1     -17.235  -2.679  -8.175  1.00  0.00    -0.250 OA
BRANCH  65  67
ATOM     67  O   UNL     1     -17.012  -1.605 -10.113  1.00  0.00    -0.480 OA
ATOM     68  H   UNL     1     -16.088  -1.622 -10.442  1.00  0.00     0.296 HD
ENDBRANCH  65  67
ENDBRANCH  49  65
ENDBRANCH  47  49
ENDBRANCH  43  45
ENDBRANCH   1  43
BRANCH   1  69
ATOM     69  C   UNL     1     -13.618  -0.775  -4.795  1.00  0.00    -0.001 C 
ATOM     70  C   UNL     1     -13.682  -0.932  -3.461  1.00  0.00     0.001 C 
BRANCH  70  71
ATOM     71  C   UNL     1     -14.892  -0.988  -2.639  1.00  0.00    -0.055 C 
ATOM     72  C   UNL     1     -16.083  -0.894  -3.267  1.00  0.00    -0.018 C 
ATOM     73  C   UNL     1     -14.723  -1.156  -1.151  1.00  0.00     0.044 C 
BRANCH  72  74
ATOM     74  C   UNL     1     -17.487  -0.924  -2.680  1.00  0.00     0.038 C 
ATOM     75  C   UNL     1     -18.406  -1.550  -3.736  1.00  0.00     0.015 C 
BRANCH  74  76
ATOM     76  C   UNL     1     -17.879   0.519  -2.246  1.00  0.00     0.128 C 
BRANCH  76  77
ATOM     77  O   UNL     1     -17.321   1.476  -3.161  1.00  0.00    -0.381 OA
ATOM     78  C   UNL     1     -16.521   2.469  -2.533  1.00  0.00     0.195 C 
ENDBRANCH  76  77
BRANCH  76  79
ATOM     79  C   UNL     1     -19.400   0.718  -2.024  1.00  0.00     0.068 C 
BRANCH  79  80
ATOM     80  C   UNL     1     -20.137   1.640  -2.965  1.00  0.00    -0.045 A 
ATOM     81  C   UNL     1     -20.326   2.992  -2.650  1.00  0.00     0.004 A 
ATOM     82  C   UNL     1     -20.671   1.146  -4.164  1.00  0.00     0.004 A 
ATOM     83  C   UNL     1     -21.022   3.835  -3.519  1.00  0.00     0.000 A 
ATOM     84  C   UNL     1     -21.367   1.990  -5.033  1.00  0.00     0.000 A 
ATOM     85  C   UNL     1     -21.541   3.334  -4.711  1.00  0.00     0.000 A 
ENDBRANCH  79  80
ENDBRANCH  76  79
ENDBRANCH  74  76
ENDBRANCH  72  74
ENDBRANCH  70  71
ENDBRANCH   1  69
TORSDOF 17
ENDMDL
MODEL 49
REMARK VINA RESULT:    -7.290      6.650     14.132
REMARK INTER + INTRA:         -29.003
REMARK INTER:                 -23.184
REMARK INTRA:                  -5.818
REMARK UNBOUND:                -7.222
REMARK SMILES C=C1C(=O)N[C@H](C)C(=O)N[C@@H](CC(C)C)C(=O)N[C@@H](C(=O)O)[C@H](C)C(=O)N[C@@H](CCCN=C(N)N)C(=O)N[C@@H](/C=C/C(C)=C/[C@H](C)[C@H](Cc2ccccc2)OC)[C@H](C)C(=O)N[C@@H](C(=O)O)CCC(=O)N1C
REMARK SMILES IDX 39 1 38 2 37 3 36 4 28 6 27 7 25 8 26 9 23 11 24 12 19 13
REMARK SMILES IDX 18 14 16 15 17 16 11 18 10 19 8 20 9 21 12 24 13 25 14 26
REMARK SMILES IDX 15 27 20 28 21 29 22 30 29 32 30 33 31 34 32 35 33 36 34 37
REMARK SMILES IDX 35 38 57 43 58 44 59 45 60 46 61 47 62 49 66 50 67 51 68 52
REMARK SMILES IDX 69 53 70 54 71 55 2 56 1 57 3 58 4 59 5 60 6 62 7 63 63 65
REMARK SMILES IDX 64 66 65 67 40 69 41 70 42 71 44 72 43 73 45 74 46 75 47 76
REMARK SMILES IDX 55 77 56 78 48 79 49 80 50 81 54 82 51 83 53 84 52 85
REMARK H PARENT 38 5 27 10 18 17 10 22 22 31 34 39 34 40 35 41 35 42 61 48
REMARK H PARENT 5 61 65 68
REMARK Flexibility Score:  369.900
ROOT
ATOM      1  C   UNL     1      -9.294   1.589  -9.747  1.00  0.00     0.117 C 
ENDROOT
BRANCH   1   2
ATOM      2  N   UNL     1      -9.847   1.802 -11.085  1.00  0.00    -0.347 N 
ATOM      3  O   UNL     1     -11.612   3.142 -10.485  1.00  0.00    -0.273 OA
ATOM      4  C   UNL     1     -10.911   2.639 -11.357  1.00  0.00     0.243 C 
ATOM      5  H   UNL     1      -9.408   1.359 -11.878  1.00  0.00     0.164 HD
BRANCH   4   6
ATOM      6  C   UNL     1     -11.243   2.754 -12.867  1.00  0.00     0.171 C 
BRANCH   6   7
ATOM      7  N   UNL     1     -12.152   3.886 -13.109  1.00  0.00    -0.344 N 
ATOM      8  C   UNL     1     -13.327   3.708 -13.806  1.00  0.00     0.226 C 
ATOM      9  O   UNL     1     -13.661   2.624 -14.271  1.00  0.00    -0.275 OA
ATOM     10  H   UNL     1     -11.878   4.810 -12.799  1.00  0.00     0.164 HD
BRANCH   8  11
ATOM     11  C   UNL     1     -14.180   4.958 -13.924  1.00  0.00     0.109 C 
ATOM     12  C   UNL     1     -15.092   4.859 -15.147  1.00  0.00     0.021 C 
BRANCH  11  13
ATOM     13  C   UNL     1     -14.910   5.221 -12.592  1.00  0.00     0.204 C 
BRANCH  13  14
ATOM     14  N   UNL     1     -15.512   6.557 -12.546  1.00  0.00    -0.340 N 
ATOM     15  C   UNL     1     -14.835   7.667 -12.087  1.00  0.00     0.243 C 
ATOM     16  O   UNL     1     -13.656   7.625 -11.740  1.00  0.00    -0.273 OA
ATOM     17  H   UNL     1     -16.524   6.632 -12.674  1.00  0.00     0.164 HD
BRANCH  15  18
ATOM     18  C   UNL     1     -15.733   8.919 -11.935  1.00  0.00     0.171 C 
BRANCH  18  19
ATOM     19  N   UNL     1     -17.112   8.440 -11.870  1.00  0.00    -0.343 N 
ATOM     20  C   UNL     1     -18.149   9.118 -12.483  1.00  0.00     0.242 CG0
ATOM     21  O   UNL     1     -17.981  10.221 -12.996  1.00  0.00    -0.273 OA
ATOM     22  H   UNL     1     -17.320   7.590 -11.358  1.00  0.00     0.164 HD
ATOM     23  G   UNL     1     -19.520   8.419 -12.373  1.00  0.00     0.000 G0
ENDBRANCH  18  19
BRANCH  18  24
ATOM     24  C   UNL     1     -15.353   9.709 -10.677  1.00  0.00     0.038 C 
BRANCH  24  25
ATOM     25  C   UNL     1     -14.892  11.158 -10.940  1.00  0.00    -0.015 C 
ATOM     26  C   UNL     1     -13.493  11.225 -11.554  1.00  0.00     0.007 C 
ATOM     27  C   UNL     1     -14.919  11.952  -9.632  1.00  0.00     0.007 C 
ENDBRANCH  24  25
ENDBRANCH  18  24
ENDBRANCH  15  18
ENDBRANCH  13  14
BRANCH  13  28
ATOM     28  C   UNL     1     -16.025   4.211 -12.305  1.00  0.00     0.327 C 
ATOM     29  O   UNL     1     -17.226   4.420 -12.377  1.00  0.00    -0.250 OA
BRANCH  28  30
ATOM     30  O   UNL     1     -15.565   3.035 -11.831  1.00  0.00    -0.480 OA
ATOM     31  H   UNL     1     -14.871   2.772 -12.470  1.00  0.00     0.296 HD
ENDBRANCH  28  30
ENDBRANCH  13  28
ENDBRANCH  11  13
ENDBRANCH   8  11
ENDBRANCH   6   7
BRANCH   6  32
ATOM     32  C   UNL     1      -9.941   2.919 -13.658  1.00  0.00     0.037 C 
BRANCH  32  33
ATOM     33  C   UNL     1      -9.955   4.172 -14.544  1.00  0.00     0.026 C 
BRANCH  33  34
ATOM     34  C   UNL     1      -9.052   5.282 -14.004  1.00  0.00     0.146 C 
BRANCH  34  35
ATOM     35  N   UNL     1      -9.495   5.638 -12.663  1.00  0.00    -0.254 NA
ATOM     36  C   UNL     1     -10.448   6.485 -12.536  1.00  0.00     0.185 C 
ATOM     37  N   UNL     1     -10.868   6.817 -11.305  1.00  0.00    -0.370 N 
ATOM     38  N   UNL     1     -11.135   7.133 -13.493  1.00  0.00    -0.370 N 
ATOM     39  H   UNL     1     -10.405   6.361 -10.529  1.00  0.00     0.159 HD
ATOM     40  H   UNL     1     -11.712   7.332 -11.126  1.00  0.00     0.159 HD
ATOM     41  H   UNL     1     -11.768   7.882 -13.263  1.00  0.00     0.159 HD
ATOM     42  H   UNL     1     -10.915   6.993 -14.466  1.00  0.00     0.159 HD
ENDBRANCH  34  35
ENDBRANCH  33  34
ENDBRANCH  32  33
ENDBRANCH   6  32
ENDBRANCH   4   6
ENDBRANCH   1   2
BRANCH   1  43
ATOM     43  C   UNL     1      -7.834   1.071  -9.891  1.00  0.00     0.102 C 
ATOM     44  C   UNL     1      -7.702  -0.135 -10.837  1.00  0.00     0.020 C 
BRANCH  43  45
ATOM     45  C   UNL     1      -7.188   0.858  -8.519  1.00  0.00     0.225 C 
ATOM     46  O   UNL     1      -7.535  -0.029  -7.745  1.00  0.00    -0.275 OA
ATOM     47  N   UNL     1      -6.243   1.792  -8.157  1.00  0.00    -0.342 N 
ATOM     48  H   UNL     1      -5.864   2.416  -8.855  1.00  0.00     0.164 HD
BRANCH  47  49
ATOM     49  C   UNL     1      -5.517   1.694  -6.888  1.00  0.00     0.192 C 
BRANCH  49  50
ATOM     50  C   UNL     1      -5.974   2.812  -5.946  1.00  0.00     0.047 C 
BRANCH  50  51
ATOM     51  C   UNL     1      -6.009   2.359  -4.480  1.00  0.00     0.103 C 
BRANCH  51  52
ATOM     52  C   UNL     1      -4.735   2.743  -3.730  1.00  0.00     0.226 C 
ATOM     53  O   UNL     1      -4.119   3.760  -4.055  1.00  0.00    -0.275 OA
BRANCH  52  54
ATOM     54  N   UNL     1      -4.380   1.928  -2.639  1.00  0.00    -0.311 N 
ATOM     55  C   UNL     1      -4.335   0.466  -2.771  1.00  0.00     0.153 C 
BRANCH  54  56
ATOM     56  C   UNL     1      -4.052   2.480  -1.390  1.00  0.00     0.102 C 
ATOM     57  C   UNL     1      -4.912   3.121  -0.583  1.00  0.00     0.043 C 
BRANCH  56  58
ATOM     58  C   UNL     1      -2.657   2.343  -0.825  1.00  0.00     0.268 C 
ATOM     59  O   UNL     1      -2.357   1.514   0.024  1.00  0.00    -0.268 OA
ATOM     60  N   UNL     1      -1.752   3.197  -1.408  1.00  0.00    -0.339 N 
ATOM     61  H   UNL     1      -2.084   3.862  -2.097  1.00  0.00     0.164 HD
BRANCH  60  62
ATOM     62  C   UNL     1      -0.333   3.189  -1.054  1.00  0.00     0.168 CG0
ATOM     63  C   UNL     1       0.458   4.139  -1.945  1.00  0.00     0.041 C 
ATOM     64  G   UNL     1       0.218   1.752  -1.163  1.00  0.00     0.000 G0
ENDBRANCH  60  62
ENDBRANCH  56  58
ENDBRANCH  54  56
ENDBRANCH  52  54
ENDBRANCH  51  52
ENDBRANCH  50  51
ENDBRANCH  49  50
BRANCH  49  65
ATOM     65  C   UNL     1      -3.997   1.793  -7.095  1.00  0.00     0.326 C 
ATOM     66  O   UNL     1      -3.426   2.636  -7.772  1.00  0.00    -0.250 OA
BRANCH  65  67
ATOM     67  O   UNL     1      -3.282   0.810  -6.505  1.00  0.00    -0.480 OA
ATOM     68  H   UNL     1      -3.371   1.003  -5.547  1.00  0.00     0.296 HD
ENDBRANCH  65  67
ENDBRANCH  49  65
ENDBRANCH  47  49
ENDBRANCH  43  45
ENDBRANCH   1  43
BRANCH   1  69
ATOM     69  C   UNL     1     -10.304   0.735  -9.002  1.00  0.00    -0.001 C 
ATOM     70  C   UNL     1     -10.828   0.964  -7.785  1.00  0.00     0.001 C 
BRANCH  70  71
ATOM     71  C   UNL     1     -11.819   0.144  -7.085  1.00  0.00    -0.055 C 
ATOM     72  C   UNL     1     -12.182   0.523  -5.842  1.00  0.00    -0.018 C 
ATOM     73  C   UNL     1     -12.370  -1.059  -7.806  1.00  0.00     0.044 C 
BRANCH  72  74
ATOM     74  C   UNL     1     -13.178  -0.124  -4.890  1.00  0.00     0.038 C 
ATOM     75  C   UNL     1     -14.501   0.636  -5.033  1.00  0.00     0.015 C 
BRANCH  74  76
ATOM     76  C   UNL     1     -12.574  -0.119  -3.454  1.00  0.00     0.128 C 
BRANCH  76  77
ATOM     77  O   UNL     1     -13.396  -0.903  -2.573  1.00  0.00    -0.381 OA
ATOM     78  C   UNL     1     -13.511  -0.359  -1.265  1.00  0.00     0.195 C 
ENDBRANCH  76  77
BRANCH  76  79
ATOM     79  C   UNL     1     -11.080  -0.525  -3.399  1.00  0.00     0.068 C 
BRANCH  79  80
ATOM     80  C   UNL     1     -10.111   0.431  -2.746  1.00  0.00    -0.045 A 
ATOM     81  C   UNL     1      -8.829   0.014  -2.367  1.00  0.00     0.004 A 
ATOM     82  C   UNL     1     -10.495   1.755  -2.481  1.00  0.00     0.004 A 
ATOM     83  C   UNL     1      -7.944   0.901  -1.751  1.00  0.00     0.000 A 
ATOM     84  C   UNL     1      -9.609   2.641  -1.864  1.00  0.00     0.000 A 
ATOM     85  C   UNL     1      -8.334   2.215  -1.501  1.00  0.00     0.000 A 
ENDBRANCH  79  80
ENDBRANCH  76  79
ENDBRANCH  74  76
ENDBRANCH  72  74
ENDBRANCH  70  71
ENDBRANCH   1  69
TORSDOF 17
ENDMDL
MODEL 50
REMARK VINA RESULT:    -7.283      4.038     14.702
REMARK INTER + INTRA:         -28.982
REMARK INTER:                 -22.833
REMARK INTRA:                  -6.149
REMARK UNBOUND:                -7.222
REMARK SMILES C=C1C(=O)N[C@H](C)C(=O)N[C@@H](CC(C)C)C(=O)N[C@@H](C(=O)O)[C@H](C)C(=O)N[C@@H](CCCN=C(N)N)C(=O)N[C@@H](/C=C/C(C)=C/[C@H](C)[C@H](Cc2ccccc2)OC)[C@H](C)C(=O)N[C@@H](C(=O)O)CCC(=O)N1C
REMARK SMILES IDX 39 1 38 2 37 3 36 4 28 6 27 7 25 8 26 9 23 11 24 12 19 13
REMARK SMILES IDX 18 14 16 15 17 16 11 18 10 19 8 20 9 21 12 24 13 25 14 26
REMARK SMILES IDX 15 27 20 28 21 29 22 30 29 32 30 33 31 34 32 35 33 36 34 37
REMARK SMILES IDX 35 38 57 43 58 44 59 45 60 46 61 47 62 49 66 50 67 51 68 52
REMARK SMILES IDX 69 53 70 54 71 55 2 56 1 57 3 58 4 59 5 60 6 62 7 63 63 65
REMARK SMILES IDX 64 66 65 67 40 69 41 70 42 71 44 72 43 73 45 74 46 75 47 76
REMARK SMILES IDX 55 77 56 78 48 79 49 80 50 81 54 82 51 83 53 84 52 85
REMARK H PARENT 38 5 27 10 18 17 10 22 22 31 34 39 34 40 35 41 35 42 61 48
REMARK H PARENT 5 61 65 68
REMARK Flexibility Score:  369.900
ROOT
ATOM      1  C   UNL     1     -12.073   1.685   0.680  1.00  0.00     0.117 C 
ENDROOT
BRANCH   1   2
ATOM      2  N   UNL     1     -12.889   0.785  -0.135  1.00  0.00    -0.347 N 
ATOM      3  O   UNL     1     -13.402   2.263  -1.815  1.00  0.00    -0.273 OA
ATOM      4  C   UNL     1     -13.414   1.121  -1.368  1.00  0.00     0.243 C 
ATOM      5  H   UNL     1     -13.049  -0.160   0.180  1.00  0.00     0.164 HD
BRANCH   4   6
ATOM      6  C   UNL     1     -14.167  -0.042  -2.063  1.00  0.00     0.171 C 
BRANCH   6   7
ATOM      7  N   UNL     1     -15.611   0.234  -2.109  1.00  0.00    -0.344 N 
ATOM      8  C   UNL     1     -16.518  -0.790  -2.271  1.00  0.00     0.226 C 
ATOM      9  O   UNL     1     -16.177  -1.959  -2.405  1.00  0.00    -0.275 OA
ATOM     10  H   UNL     1     -15.928   1.195  -2.069  1.00  0.00     0.164 HD
BRANCH   8  11
ATOM     11  C   UNL     1     -17.971  -0.350  -2.243  1.00  0.00     0.109 C 
ATOM     12  C   UNL     1     -18.099   0.998  -1.534  1.00  0.00     0.021 C 
BRANCH  11  13
ATOM     13  C   UNL     1     -18.556  -0.389  -3.670  1.00  0.00     0.204 C 
BRANCH  13  14
ATOM     14  N   UNL     1     -17.509  -0.354  -4.696  1.00  0.00    -0.340 N 
ATOM     15  C   UNL     1     -17.588   0.442  -5.818  1.00  0.00     0.243 C 
ATOM     16  O   UNL     1     -18.516   1.226  -6.008  1.00  0.00    -0.273 OA
ATOM     17  H   UNL     1     -16.792  -1.084  -4.676  1.00  0.00     0.164 HD
BRANCH  15  18
ATOM     18  C   UNL     1     -16.474   0.160  -6.856  1.00  0.00     0.171 C 
BRANCH  18  19
ATOM     19  N   UNL     1     -17.130   0.070  -8.159  1.00  0.00    -0.343 N 
ATOM     20  C   UNL     1     -17.413  -1.147  -8.751  1.00  0.00     0.242 CG0
ATOM     21  O   UNL     1     -17.008  -2.204  -8.273  1.00  0.00    -0.273 OA
ATOM     22  H   UNL     1     -17.381   0.921  -8.650  1.00  0.00     0.164 HD
ATOM     23  G   UNL     1     -18.178  -1.043 -10.086  1.00  0.00     0.000 G0
ENDBRANCH  18  19
BRANCH  18  24
ATOM     24  C   UNL     1     -15.419   1.272  -6.834  1.00  0.00     0.038 C 
BRANCH  24  25
ATOM     25  C   UNL     1     -13.965   0.784  -7.015  1.00  0.00    -0.015 C 
ATOM     26  C   UNL     1     -13.278   1.428  -8.220  1.00  0.00     0.007 C 
ATOM     27  C   UNL     1     -13.948  -0.739  -7.166  1.00  0.00     0.007 C 
ENDBRANCH  24  25
ENDBRANCH  18  24
ENDBRANCH  15  18
ENDBRANCH  13  14
BRANCH  13  28
ATOM     28  C   UNL     1     -19.411  -1.631  -3.937  1.00  0.00     0.327 C 
ATOM     29  O   UNL     1     -20.604  -1.751  -3.704  1.00  0.00    -0.250 OA
BRANCH  28  30
ATOM     30  O   UNL     1     -18.691  -2.686  -4.370  1.00  0.00    -0.480 OA
ATOM     31  H   UNL     1     -17.785  -2.511  -4.041  1.00  0.00     0.296 HD
ENDBRANCH  28  30
ENDBRANCH  13  28
ENDBRANCH  11  13
ENDBRANCH   8  11
ENDBRANCH   6   7
BRANCH   6  32
ATOM     32  C   UNL     1     -13.601  -0.236  -3.474  1.00  0.00     0.037 C 
BRANCH  32  33
ATOM     33  C   UNL     1     -12.176  -0.805  -3.454  1.00  0.00     0.026 C 
BRANCH  33  34
ATOM     34  C   UNL     1     -11.361  -0.386  -4.678  1.00  0.00     0.146 C 
BRANCH  34  35
ATOM     35  N   UNL     1     -10.693   0.876  -4.388  1.00  0.00    -0.254 NA
ATOM     36  C   UNL     1     -10.070   1.473  -5.334  1.00  0.00     0.185 C 
ATOM     37  N   UNL     1      -9.455   2.638  -5.079  1.00  0.00    -0.370 N 
ATOM     38  N   UNL     1      -9.924   1.099  -6.618  1.00  0.00    -0.370 N 
ATOM     39  H   UNL     1      -9.528   2.993  -4.134  1.00  0.00     0.159 HD
ATOM     40  H   UNL     1      -9.099   3.248  -5.795  1.00  0.00     0.159 HD
ATOM     41  H   UNL     1      -9.293   1.585  -7.233  1.00  0.00     0.159 HD
ATOM     42  H   UNL     1     -10.322   0.233  -6.948  1.00  0.00     0.159 HD
ENDBRANCH  34  35
ENDBRANCH  33  34
ENDBRANCH  32  33
ENDBRANCH   6  32
ENDBRANCH   4   6
ENDBRANCH   1   2
BRANCH   1  43
ATOM     43  C   UNL     1     -10.869   0.882   1.251  1.00  0.00     0.102 C 
ATOM     44  C   UNL     1     -10.180   1.573   2.440  1.00  0.00     0.020 C 
BRANCH  43  45
ATOM     45  C   UNL     1      -9.908   0.462   0.135  1.00  0.00     0.225 C 
ATOM     46  O   UNL     1     -10.179  -0.402  -0.694  1.00  0.00    -0.275 OA
ATOM     47  N   UNL     1      -8.666   1.053   0.169  1.00  0.00    -0.342 N 
ATOM     48  H   UNL     1      -8.513   1.862   0.754  1.00  0.00     0.164 HD
BRANCH  47  49
ATOM     49  C   UNL     1      -7.656   0.774  -0.857  1.00  0.00     0.192 C 
BRANCH  49  50
ATOM     50  C   UNL     1      -6.258   1.010  -0.280  1.00  0.00     0.047 C 
BRANCH  50  51
ATOM     51  C   UNL     1      -5.998   2.491   0.028  1.00  0.00     0.103 C 
BRANCH  51  52
ATOM     52  C   UNL     1      -4.768   3.022  -0.706  1.00  0.00     0.226 C 
ATOM     53  O   UNL     1      -4.887   3.478  -1.845  1.00  0.00    -0.275 OA
BRANCH  52  54
ATOM     54  N   UNL     1      -3.559   3.023   0.015  1.00  0.00    -0.311 N 
ATOM     55  C   UNL     1      -3.433   3.764   1.277  1.00  0.00     0.153 C 
BRANCH  54  56
ATOM     56  C   UNL     1      -2.435   2.314  -0.439  1.00  0.00     0.102 C 
ATOM     57  C   UNL     1      -2.001   1.151   0.074  1.00  0.00     0.043 C 
BRANCH  56  58
ATOM     58  C   UNL     1      -1.629   2.811  -1.616  1.00  0.00     0.268 C 
ATOM     59  O   UNL     1      -1.973   2.650  -2.779  1.00  0.00    -0.268 OA
ATOM     60  N   UNL     1      -0.508   3.515  -1.244  1.00  0.00    -0.339 N 
ATOM     61  H   UNL     1      -0.287   3.594  -0.259  1.00  0.00     0.164 HD
BRANCH  60  62
ATOM     62  C   UNL     1       0.381   4.138  -2.224  1.00  0.00     0.168 CG0
ATOM     63  C   UNL     1       1.407   3.139  -2.744  1.00  0.00     0.041 C 
ATOM     64  G   UNL     1       1.079   5.357  -1.586  1.00  0.00     0.000 G0
ENDBRANCH  60  62
ENDBRANCH  56  58
ENDBRANCH  54  56
ENDBRANCH  52  54
ENDBRANCH  51  52
ENDBRANCH  50  51
ENDBRANCH  49  50
BRANCH  49  65
ATOM     65  C   UNL     1      -7.851   1.659  -2.098  1.00  0.00     0.326 C 
ATOM     66  O   UNL     1      -7.220   1.568  -3.141  1.00  0.00    -0.250 OA
BRANCH  65  67
ATOM     67  O   UNL     1      -8.769   2.639  -1.954  1.00  0.00    -0.480 OA
ATOM     68  H   UNL     1      -8.368   3.236  -1.286  1.00  0.00     0.296 HD
ENDBRANCH  65  67
ENDBRANCH  49  65
ENDBRANCH  47  49
ENDBRANCH  43  45
ENDBRANCH   1  43
BRANCH   1  69
ATOM     69  C   UNL     1     -13.027   2.363   1.647  1.00  0.00    -0.001 C 
ATOM     70  C   UNL     1     -14.343   2.130   1.795  1.00  0.00     0.001 C 
BRANCH  70  71
ATOM     71  C   UNL     1     -15.249   2.776   2.746  1.00  0.00    -0.055 C 
ATOM     72  C   UNL     1     -15.946   1.982   3.587  1.00  0.00    -0.018 C 
ATOM     73  C   UNL     1     -15.334   4.280   2.726  1.00  0.00     0.044 C 
BRANCH  72  74
ATOM     74  C   UNL     1     -16.945   2.367   4.668  1.00  0.00     0.038 C 
ATOM     75  C   UNL     1     -16.460   1.735   5.979  1.00  0.00     0.015 C 
BRANCH  74  76
ATOM     76  C   UNL     1     -18.368   1.924   4.217  1.00  0.00     0.128 C 
BRANCH  76  77
ATOM     77  O   UNL     1     -18.677   2.498   2.935  1.00  0.00    -0.381 OA
ATOM     78  C   UNL     1     -19.104   3.852   3.004  1.00  0.00     0.195 C 
ENDBRANCH  76  77
BRANCH  76  79
ATOM     79  C   UNL     1     -18.592   0.391   4.257  1.00  0.00     0.068 C 
BRANCH  79  80
ATOM     80  C   UNL     1     -19.408  -0.175   5.394  1.00  0.00    -0.045 A 
ATOM     81  C   UNL     1     -20.213   0.654   6.186  1.00  0.00     0.004 A 
ATOM     82  C   UNL     1     -19.349  -1.544   5.693  1.00  0.00     0.004 A 
ATOM     83  C   UNL     1     -20.954   0.124   7.245  1.00  0.00     0.000 A 
ATOM     84  C   UNL     1     -20.090  -2.072   6.753  1.00  0.00     0.000 A 
ATOM     85  C   UNL     1     -20.893  -1.238   7.527  1.00  0.00     0.000 A 
ENDBRANCH  79  80
ENDBRANCH  76  79
ENDBRANCH  74  76
ENDBRANCH  72  74
ENDBRANCH  70  71
ENDBRANCH   1  69
TORSDOF 17
ENDMDL
