MODEL 1
REMARK VINA RESULT:    -8.015      0.000      0.000
REMARK INTER + INTRA:         -17.845
REMARK INTER:                 -16.214
REMARK INTRA:                  -1.631
REMARK UNBOUND:                -1.631
REMARK SMILES CC[C@@H](C)[C@@H](NC(=O)[C@@H](O)Cc1ccc(O)c(Cl)c1)C(=O)N1[C@H](C(=O)NCCCCN=C(N)N)C[C@H]2CC[C@H](OS(=O)(=O)O)C[C@@H]21
REMARK SMILES IDX 22 1 36 2 46 3 35 4 23 5 45 6 37 7 39 8 38 9 20 10 21 11
REMARK SMILES IDX 5 12 6 13 7 14 8 15 9 17 11 18 12 19 17 20 19 21 15 22 14 23
REMARK SMILES IDX 13 24 18 25 16 26 10 28 3 30 4 31 2 32 1 33 24 34 25 35
REMARK SMILES IDX 26 36 27 38 28 39 29 40 30 41 31 42 32 43 33 44 34 45 40 50
REMARK SMILES IDX 41 51 42 52 43 53 44 54
REMARK H PARENT 6 16 16 27 10 29 26 37 33 46 33 47 34 48 34 49 44 55
ROOT
ATOM      1  N   UNL     1       6.947   5.136   4.414  1.00  0.00    -0.326 N 
ATOM      2  C   UNL     1       5.454   4.595   6.152  1.00  0.00     0.014 C 
ATOM      3  C   UNL     1       6.692   5.435   5.826  1.00  0.00     0.091 C 
ATOM      4  C   UNL     1       5.659   3.352   5.301  1.00  0.00     0.041 C 
ATOM      5  C   UNL     1       6.101   3.999   3.975  1.00  0.00     0.175 C 
ATOM      6  C   UNL     1       6.410   6.884   6.219  1.00  0.00     0.059 C 
ATOM      7  C   UNL     1       5.277   4.450   7.650  1.00  0.00     0.008 C 
ATOM      8  C   UNL     1       5.466   7.026   7.433  1.00  0.00     0.143 C 
ATOM      9  C   UNL     1       5.527   5.796   8.361  1.00  0.00     0.034 C 
ENDROOT
BRANCH   1  10
ATOM     10  C   UNL     1       7.951   5.591   3.577  1.00  0.00     0.246 C 
ATOM     11  O   UNL     1       9.054   5.034   3.601  1.00  0.00    -0.272 OA
BRANCH  10  12
ATOM     12  C   UNL     1       7.659   6.764   2.596  1.00  0.00     0.174 C 
BRANCH  12  13
ATOM     13  N   UNL     1       7.762   6.296   1.215  1.00  0.00    -0.342 N 
ATOM     14  C   UNL     1       6.853   6.571   0.217  1.00  0.00     0.249 C 
ATOM     15  O   UNL     1       5.860   7.271   0.374  1.00  0.00    -0.272 OA
ATOM     16  H   UNL     1       8.444   5.581   0.974  1.00  0.00     0.164 HD
BRANCH  14  17
ATOM     17  C   UNL     1       7.232   5.920  -1.130  1.00  0.00     0.207 C 
BRANCH  17  18
ATOM     18  C   UNL     1       6.282   6.388  -2.237  1.00  0.00     0.077 C 
BRANCH  18  19
ATOM     19  C   UNL     1       6.981   6.479  -3.575  1.00  0.00    -0.043 A 
ATOM     20  C   UNL     1       7.908   5.401  -5.540  1.00  0.00     0.083 A 
ATOM     21  C   UNL     1       7.220   5.319  -4.329  1.00  0.00     0.028 A 
ATOM     22  C   UNL     1       8.363   6.636  -6.003  1.00  0.00     0.134 A 
ATOM     23  C   UNL     1       8.133   7.792  -5.267  1.00  0.00     0.048 A 
ATOM     24  C   UNL     1       7.446   7.714  -4.053  1.00  0.00     0.008 A 
ATOM     25  Cl  UNL     1       8.192   3.965  -6.452  1.00  0.00    -0.080 Cl
BRANCH  22  26
ATOM     26  O   UNL     1       9.051   6.764  -7.179  1.00  0.00    -0.506 OA
ATOM     27  H   UNL     1       9.899   7.194  -6.962  1.00  0.00     0.293 HD
ENDBRANCH  22  26
ENDBRANCH  18  19
ENDBRANCH  17  18
BRANCH  17  28
ATOM     28  O   UNL     1       7.189   4.486  -1.041  1.00  0.00    -0.383 OA
ATOM     29  H   UNL     1       7.988   4.161  -1.514  1.00  0.00     0.211 HD
ENDBRANCH  17  28
ENDBRANCH  14  17
ENDBRANCH  12  13
BRANCH  12  30
ATOM     30  C   UNL     1       8.547   8.008   2.868  1.00  0.00     0.018 C 
ATOM     31  C   UNL     1       9.800   7.990   1.978  1.00  0.00     0.010 C 
BRANCH  30  32
ATOM     32  C   UNL     1       8.952   8.171   4.353  1.00  0.00     0.002 C 
ATOM     33  C   UNL     1       9.795   9.400   4.668  1.00  0.00     0.004 C 
ENDBRANCH  30  32
ENDBRANCH  12  30
ENDBRANCH  10  12
ENDBRANCH   1  10
BRANCH   5  34
ATOM     34  C   UNL     1       4.885   4.503   3.152  1.00  0.00     0.242 C 
ATOM     35  O   UNL     1       3.905   5.027   3.680  1.00  0.00    -0.273 OA
ATOM     36  N   UNL     1       4.959   4.272   1.797  1.00  0.00    -0.354 N 
ATOM     37  H   UNL     1       5.742   3.726   1.433  1.00  0.00     0.163 HD
BRANCH  36  38
ATOM     38  C   UNL     1       4.025   4.861   0.860  1.00  0.00     0.116 C 
BRANCH  38  39
ATOM     39  C   UNL     1       2.641   4.247   1.052  1.00  0.00     0.023 C 
BRANCH  39  40
ATOM     40  C   UNL     1       1.519   5.252   0.816  1.00  0.00     0.026 C 
BRANCH  40  41
ATOM     41  C   UNL     1       1.781   6.069  -0.449  1.00  0.00     0.146 C 
BRANCH  41  42
ATOM     42  N   UNL     1       1.193   5.396  -1.601  1.00  0.00    -0.254 NA
ATOM     43  C   UNL     1       1.692   5.581  -2.765  1.00  0.00     0.185 C 
ATOM     44  N   UNL     1       2.737   6.337  -3.148  1.00  0.00    -0.370 N 
ATOM     45  N   UNL     1       1.133   4.955  -3.814  1.00  0.00    -0.370 N 
ATOM     46  H   UNL     1       2.866   6.582  -4.115  1.00  0.00     0.159 HD
ATOM     47  H   UNL     1       3.284   6.869  -2.479  1.00  0.00     0.159 HD
ATOM     48  H   UNL     1       0.344   4.357  -3.610  1.00  0.00     0.159 HD
ATOM     49  H   UNL     1       1.597   4.858  -4.699  1.00  0.00     0.159 HD
ENDBRANCH  41  42
ENDBRANCH  40  41
ENDBRANCH  39  40
ENDBRANCH  38  39
ENDBRANCH  36  38
ENDBRANCH   5  34
BRANCH   8  50
ATOM     50  O   UNL     1       4.119   7.192   6.989  1.00  0.00    -0.245 OA
BRANCH  50  51
ATOM     51  S   UNL     1       3.059   7.997   7.924  1.00  0.00     0.397 S 
ATOM     52  O   UNL     1       2.441   7.045   8.820  1.00  0.00    -0.169 OA
ATOM     53  O   UNL     1       2.269   8.891   7.105  1.00  0.00    -0.169 OA
BRANCH  51  54
ATOM     54  O   UNL     1       4.031   8.892   8.840  1.00  0.00    -0.264 OA
ATOM     55  H   UNL     1       4.835   9.090   8.317  1.00  0.00     0.236 HD
ENDBRANCH  51  54
ENDBRANCH  50  51
ENDBRANCH   8  50
TORSDOF 19
ENDMDL
MODEL 2
REMARK VINA RESULT:    -7.804      5.689      9.933
REMARK INTER + INTRA:         -17.419
REMARK INTER:                 -14.995
REMARK INTRA:                  -2.424
REMARK UNBOUND:                -1.631
REMARK SMILES CC[C@@H](C)[C@@H](NC(=O)[C@@H](O)Cc1ccc(O)c(Cl)c1)C(=O)N1[C@H](C(=O)NCCCCN=C(N)N)C[C@H]2CC[C@H](OS(=O)(=O)O)C[C@@H]21
REMARK SMILES IDX 22 1 36 2 46 3 35 4 23 5 45 6 37 7 39 8 38 9 20 10 21 11
REMARK SMILES IDX 5 12 6 13 7 14 8 15 9 17 11 18 12 19 17 20 19 21 15 22 14 23
REMARK SMILES IDX 13 24 18 25 16 26 10 28 3 30 4 31 2 32 1 33 24 34 25 35
REMARK SMILES IDX 26 36 27 38 28 39 29 40 30 41 31 42 32 43 33 44 34 45 40 50
REMARK SMILES IDX 41 51 42 52 43 53 44 54
REMARK H PARENT 6 16 16 27 10 29 26 37 33 46 33 47 34 48 34 49 44 55
ROOT
ATOM      1  N   UNL     1       5.639   3.222  10.061  1.00  0.00    -0.326 N 
ATOM      2  C   UNL     1       6.522   5.392  10.296  1.00  0.00     0.014 C 
ATOM      3  C   UNL     1       6.188   4.318   9.257  1.00  0.00     0.091 C 
ATOM      4  C   UNL     1       6.959   4.570  11.498  1.00  0.00     0.041 C 
ATOM      5  C   UNL     1       5.863   3.489  11.503  1.00  0.00     0.175 C 
ATOM      6  C   UNL     1       5.300   4.944   8.183  1.00  0.00     0.059 C 
ATOM      7  C   UNL     1       7.466   6.429   9.720  1.00  0.00     0.008 C 
ATOM      8  C   UNL     1       5.587   6.441   7.934  1.00  0.00     0.143 C 
ATOM      9  C   UNL     1       7.039   6.819   8.289  1.00  0.00     0.034 C 
ENDROOT
BRANCH   1  10
ATOM     10  C   UNL     1       5.181   1.976   9.668  1.00  0.00     0.246 C 
ATOM     11  O   UNL     1       4.171   1.510  10.206  1.00  0.00    -0.272 OA
BRANCH  10  12
ATOM     12  C   UNL     1       5.919   1.211   8.532  1.00  0.00     0.174 C 
BRANCH  12  13
ATOM     13  N   UNL     1       5.254   1.455   7.252  1.00  0.00    -0.342 N 
ATOM     14  C   UNL     1       5.806   2.139   6.193  1.00  0.00     0.249 C 
ATOM     15  O   UNL     1       6.940   2.600   6.195  1.00  0.00    -0.272 OA
ATOM     16  H   UNL     1       4.258   1.269   7.159  1.00  0.00     0.164 HD
BRANCH  14  17
ATOM     17  C   UNL     1       4.847   2.244   4.988  1.00  0.00     0.207 C 
BRANCH  17  18
ATOM     18  C   UNL     1       4.275   3.662   4.881  1.00  0.00     0.077 C 
BRANCH  18  19
ATOM     19  C   UNL     1       4.398   4.213   3.478  1.00  0.00    -0.043 A 
ATOM     20  C   UNL     1       3.414   4.690   1.313  1.00  0.00     0.083 A 
ATOM     21  C   UNL     1       3.285   4.226   2.622  1.00  0.00     0.028 A 
ATOM     22  C   UNL     1       4.651   5.140   0.850  1.00  0.00     0.134 A 
ATOM     23  C   UNL     1       5.761   5.132   1.686  1.00  0.00     0.048 A 
ATOM     24  C   UNL     1       5.635   4.667   2.997  1.00  0.00     0.008 A 
ATOM     25  Cl  UNL     1       2.035   4.698   0.276  1.00  0.00    -0.080 Cl
BRANCH  22  26
ATOM     26  O   UNL     1       4.828   5.593  -0.429  1.00  0.00    -0.506 OA
ATOM     27  H   UNL     1       4.221   6.348  -0.546  1.00  0.00     0.293 HD
ENDBRANCH  22  26
ENDBRANCH  18  19
ENDBRANCH  17  18
BRANCH  17  28
ATOM     28  O   UNL     1       3.768   1.303   5.101  1.00  0.00    -0.383 OA
ATOM     29  H   UNL     1       3.718   0.840   4.234  1.00  0.00     0.211 HD
ENDBRANCH  17  28
ENDBRANCH  14  17
ENDBRANCH  12  13
BRANCH  12  30
ATOM     30  C   UNL     1       6.082  -0.303   8.836  1.00  0.00     0.018 C 
ATOM     31  C   UNL     1       6.983  -0.520  10.061  1.00  0.00     0.010 C 
BRANCH  30  32
ATOM     32  C   UNL     1       6.611  -1.124   7.635  1.00  0.00     0.002 C 
ATOM     33  C   UNL     1       8.124  -1.128   7.463  1.00  0.00     0.004 C 
ENDBRANCH  30  32
ENDBRANCH  12  30
ENDBRANCH  10  12
ENDBRANCH   1  10
BRANCH   5  34
ATOM     34  C   UNL     1       4.561   3.997  12.178  1.00  0.00     0.242 C 
ATOM     35  O   UNL     1       3.541   4.245  11.536  1.00  0.00    -0.273 OA
ATOM     36  N   UNL     1       4.647   4.202  13.537  1.00  0.00    -0.354 N 
ATOM     37  H   UNL     1       5.554   4.094  13.993  1.00  0.00     0.163 HD
BRANCH  36  38
ATOM     38  C   UNL     1       3.481   4.465  14.355  1.00  0.00     0.116 C 
BRANCH  38  39
ATOM     39  C   UNL     1       2.945   3.155  14.928  1.00  0.00     0.023 C 
BRANCH  39  40
ATOM     40  C   UNL     1       2.677   3.242  16.427  1.00  0.00     0.026 C 
BRANCH  40  41
ATOM     41  C   UNL     1       2.592   4.700  16.879  1.00  0.00     0.146 C 
BRANCH  41  42
ATOM     42  N   UNL     1       1.245   4.991  17.352  1.00  0.00    -0.254 NA
ATOM     43  C   UNL     1       0.497   5.786  16.684  1.00  0.00     0.185 C 
ATOM     44  N   UNL     1       0.745   6.451  15.540  1.00  0.00    -0.370 N 
ATOM     45  N   UNL     1      -0.740   6.045  17.139  1.00  0.00    -0.370 N 
ATOM     46  H   UNL     1       0.165   7.224  15.260  1.00  0.00     0.159 HD
ATOM     47  H   UNL     1       1.630   6.359  15.051  1.00  0.00     0.159 HD
ATOM     48  H   UNL     1      -1.010   5.576  17.993  1.00  0.00     0.159 HD
ATOM     49  H   UNL     1      -1.456   6.455  16.566  1.00  0.00     0.159 HD
ENDBRANCH  41  42
ENDBRANCH  40  41
ENDBRANCH  39  40
ENDBRANCH  38  39
ENDBRANCH  36  38
ENDBRANCH   5  34
BRANCH   8  50
ATOM     50  O   UNL     1       4.704   7.245   8.717  1.00  0.00    -0.245 OA
BRANCH  50  51
ATOM     51  S   UNL     1       3.292   7.740   8.081  1.00  0.00     0.397 S 
ATOM     52  O   UNL     1       3.364   9.172   7.894  1.00  0.00    -0.169 OA
ATOM     53  O   UNL     1       2.194   7.121   8.794  1.00  0.00    -0.169 OA
BRANCH  51  54
ATOM     54  O   UNL     1       3.346   7.103   6.606  1.00  0.00    -0.264 OA
ATOM     55  H   UNL     1       2.912   6.226   6.643  1.00  0.00     0.236 HD
ENDBRANCH  51  54
ENDBRANCH  50  51
ENDBRANCH   8  50
TORSDOF 19
ENDMDL
MODEL 3
REMARK VINA RESULT:    -7.675      7.496     11.946
REMARK INTER + INTRA:         -17.158
REMARK INTER:                 -14.188
REMARK INTRA:                  -2.971
REMARK UNBOUND:                -1.631
REMARK SMILES CC[C@@H](C)[C@@H](NC(=O)[C@@H](O)Cc1ccc(O)c(Cl)c1)C(=O)N1[C@H](C(=O)NCCCCN=C(N)N)C[C@H]2CC[C@H](OS(=O)(=O)O)C[C@@H]21
REMARK SMILES IDX 22 1 36 2 46 3 35 4 23 5 45 6 37 7 39 8 38 9 20 10 21 11
REMARK SMILES IDX 5 12 6 13 7 14 8 15 9 17 11 18 12 19 17 20 19 21 15 22 14 23
REMARK SMILES IDX 13 24 18 25 16 26 10 28 3 30 4 31 2 32 1 33 24 34 25 35
REMARK SMILES IDX 26 36 27 38 28 39 29 40 30 41 31 42 32 43 33 44 34 45 40 50
REMARK SMILES IDX 41 51 42 52 43 53 44 54
REMARK H PARENT 6 16 16 27 10 29 26 37 33 46 33 47 34 48 34 49 44 55
ROOT
ATOM      1  N   UNL     1       3.879   3.600  12.657  1.00  0.00    -0.326 N 
ATOM      2  C   UNL     1       4.154   5.001  14.529  1.00  0.00     0.014 C 
ATOM      3  C   UNL     1       3.315   4.809  13.263  1.00  0.00     0.091 C 
ATOM      4  C   UNL     1       5.528   4.513  14.097  1.00  0.00     0.041 C 
ATOM      5  C   UNL     1       5.138   3.226  13.348  1.00  0.00     0.175 C 
ATOM      6  C   UNL     1       1.839   4.801  13.657  1.00  0.00     0.059 C 
ATOM      7  C   UNL     1       4.001   6.407  15.074  1.00  0.00     0.008 C 
ATOM      8  C   UNL     1       1.517   5.691  14.878  1.00  0.00     0.143 C 
ATOM      9  C   UNL     1       2.523   6.850  15.031  1.00  0.00     0.034 C 
ENDROOT
BRANCH   1  10
ATOM     10  C   UNL     1       3.536   2.952  11.483  1.00  0.00     0.246 C 
ATOM     11  O   UNL     1       2.367   2.590  11.315  1.00  0.00    -0.272 OA
BRANCH  10  12
ATOM     12  C   UNL     1       4.617   2.732  10.384  1.00  0.00     0.174 C 
BRANCH  12  13
ATOM     13  N   UNL     1       4.104   3.169   9.086  1.00  0.00    -0.342 N 
ATOM     14  C   UNL     1       4.223   4.443   8.578  1.00  0.00     0.249 C 
ATOM     15  O   UNL     1       4.803   5.356   9.153  1.00  0.00    -0.272 OA
ATOM     16  H   UNL     1       3.468   2.569   8.568  1.00  0.00     0.164 HD
BRANCH  14  17
ATOM     17  C   UNL     1       3.563   4.595   7.191  1.00  0.00     0.207 C 
BRANCH  17  18
ATOM     18  C   UNL     1       4.361   5.572   6.322  1.00  0.00     0.077 C 
BRANCH  18  19
ATOM     19  C   UNL     1       4.540   5.054   4.912  1.00  0.00    -0.043 A 
ATOM     20  C   UNL     1       5.901   4.806   2.920  1.00  0.00     0.083 A 
ATOM     21  C   UNL     1       5.756   5.241   4.238  1.00  0.00     0.028 A 
ATOM     22  C   UNL     1       4.835   4.184   2.269  1.00  0.00     0.134 A 
ATOM     23  C   UNL     1       3.625   3.992   2.925  1.00  0.00     0.048 A 
ATOM     24  C   UNL     1       3.476   4.428   4.244  1.00  0.00     0.008 A 
ATOM     25  Cl  UNL     1       7.403   5.046   2.108  1.00  0.00    -0.080 Cl
BRANCH  22  26
ATOM     26  O   UNL     1       4.926   3.750   0.974  1.00  0.00    -0.506 OA
ATOM     27  H   UNL     1       5.714   4.178   0.590  1.00  0.00     0.293 HD
ENDBRANCH  22  26
ENDBRANCH  18  19
ENDBRANCH  17  18
BRANCH  17  28
ATOM     28  O   UNL     1       2.209   5.060   7.310  1.00  0.00    -0.383 OA
ATOM     29  H   UNL     1       2.021   5.564   6.486  1.00  0.00     0.211 HD
ENDBRANCH  17  28
ENDBRANCH  14  17
ENDBRANCH  12  13
BRANCH  12  30
ATOM     30  C   UNL     1       5.150   1.275  10.351  1.00  0.00     0.018 C 
ATOM     31  C   UNL     1       4.280   0.354  11.222  1.00  0.00     0.010 C 
BRANCH  30  32
ATOM     32  C   UNL     1       6.637   1.147  10.762  1.00  0.00     0.002 C 
ATOM     33  C   UNL     1       7.614   1.976   9.938  1.00  0.00     0.004 C 
ENDBRANCH  30  32
ENDBRANCH  12  30
ENDBRANCH  10  12
ENDBRANCH   1  10
BRANCH   5  34
ATOM     34  C   UNL     1       4.898   2.045  14.327  1.00  0.00     0.242 C 
ATOM     35  O   UNL     1       3.772   1.620  14.581  1.00  0.00    -0.273 OA
ATOM     36  N   UNL     1       6.031   1.545  14.929  1.00  0.00    -0.354 N 
ATOM     37  H   UNL     1       6.922   2.017  14.770  1.00  0.00     0.163 HD
BRANCH  36  38
ATOM     38  C   UNL     1       6.021   0.316  15.696  1.00  0.00     0.116 C 
BRANCH  38  39
ATOM     39  C   UNL     1       5.844   0.633  17.180  1.00  0.00     0.023 C 
BRANCH  39  40
ATOM     40  C   UNL     1       4.858  -0.308  17.863  1.00  0.00     0.026 C 
BRANCH  40  41
ATOM     41  C   UNL     1       3.915   0.469  18.782  1.00  0.00     0.146 C 
BRANCH  41  42
ATOM     42  N   UNL     1       2.537   0.274  18.352  1.00  0.00    -0.254 NA
ATOM     43  C   UNL     1       1.979   1.146  17.599  1.00  0.00     0.185 C 
ATOM     44  N   UNL     1       2.469   2.293  17.093  1.00  0.00    -0.370 N 
ATOM     45  N   UNL     1       0.707   0.950  17.217  1.00  0.00    -0.370 N 
ATOM     46  H   UNL     1       1.851   2.995  16.724  1.00  0.00     0.159 HD
ATOM     47  H   UNL     1       3.424   2.589  17.272  1.00  0.00     0.159 HD
ATOM     48  H   UNL     1       0.265   0.103  17.548  1.00  0.00     0.159 HD
ATOM     49  H   UNL     1       0.285   1.448  16.453  1.00  0.00     0.159 HD
ENDBRANCH  41  42
ENDBRANCH  40  41
ENDBRANCH  39  40
ENDBRANCH  38  39
ENDBRANCH  36  38
ENDBRANCH   5  34
BRANCH   8  50
ATOM     50  O   UNL     1       1.539   4.910  16.073  1.00  0.00    -0.245 OA
BRANCH  50  51
ATOM     51  S   UNL     1       0.266   4.955  17.085  1.00  0.00     0.397 S 
ATOM     52  O   UNL     1       0.751   5.322  18.396  1.00  0.00    -0.169 OA
ATOM     53  O   UNL     1      -0.558   3.782  16.880  1.00  0.00    -0.169 OA
BRANCH  51  54
ATOM     54  O   UNL     1      -0.547   6.233  16.544  1.00  0.00    -0.264 OA
ATOM     55  H   UNL     1      -0.962   6.670  17.316  1.00  0.00     0.236 HD
ENDBRANCH  51  54
ENDBRANCH  50  51
ENDBRANCH   8  50
TORSDOF 19
ENDMDL
MODEL 4
REMARK VINA RESULT:    -7.652      4.342      7.042
REMARK INTER + INTRA:         -17.110
REMARK INTER:                 -13.373
REMARK INTRA:                  -3.738
REMARK UNBOUND:                -1.631
REMARK SMILES CC[C@@H](C)[C@@H](NC(=O)[C@@H](O)Cc1ccc(O)c(Cl)c1)C(=O)N1[C@H](C(=O)NCCCCN=C(N)N)C[C@H]2CC[C@H](OS(=O)(=O)O)C[C@@H]21
REMARK SMILES IDX 22 1 36 2 46 3 35 4 23 5 45 6 37 7 39 8 38 9 20 10 21 11
REMARK SMILES IDX 5 12 6 13 7 14 8 15 9 17 11 18 12 19 17 20 19 21 15 22 14 23
REMARK SMILES IDX 13 24 18 25 16 26 10 28 3 30 4 31 2 32 1 33 24 34 25 35
REMARK SMILES IDX 26 36 27 38 28 39 29 40 30 41 31 42 32 43 33 44 34 45 40 50
REMARK SMILES IDX 41 51 42 52 43 53 44 54
REMARK H PARENT 6 16 16 27 10 29 26 37 33 46 33 47 34 48 34 49 44 55
ROOT
ATOM      1  N   UNL     1       7.904   5.509   5.753  1.00  0.00    -0.326 N 
ATOM      2  C   UNL     1       5.604   5.385   6.240  1.00  0.00     0.014 C 
ATOM      3  C   UNL     1       6.687   4.819   5.317  1.00  0.00     0.091 C 
ATOM      4  C   UNL     1       6.053   6.824   6.440  1.00  0.00     0.041 C 
ATOM      5  C   UNL     1       7.558   6.609   6.687  1.00  0.00     0.175 C 
ATOM      6  C   UNL     1       6.648   3.294   5.404  1.00  0.00     0.059 C 
ATOM      7  C   UNL     1       4.220   5.108   5.687  1.00  0.00     0.008 C 
ATOM      8  C   UNL     1       5.237   2.723   5.666  1.00  0.00     0.143 C 
ATOM      9  C   UNL     1       4.127   3.662   5.154  1.00  0.00     0.034 C 
ENDROOT
BRANCH   1  10
ATOM     10  C   UNL     1       9.198   5.417   5.269  1.00  0.00     0.246 C 
ATOM     11  O   UNL     1       9.938   4.524   5.698  1.00  0.00    -0.272 OA
BRANCH  10  12
ATOM     12  C   UNL     1       9.679   6.408   4.170  1.00  0.00     0.174 C 
BRANCH  12  13
ATOM     13  N   UNL     1       8.927   6.187   2.936  1.00  0.00    -0.342 N 
ATOM     14  C   UNL     1       8.134   7.126   2.315  1.00  0.00     0.249 C 
ATOM     15  O   UNL     1       7.992   8.274   2.719  1.00  0.00    -0.272 OA
ATOM     16  H   UNL     1       8.822   5.244   2.572  1.00  0.00     0.164 HD
BRANCH  14  17
ATOM     17  C   UNL     1       7.457   6.584   1.038  1.00  0.00     0.207 C 
BRANCH  17  18
ATOM     18  C   UNL     1       6.913   5.172   1.279  1.00  0.00     0.077 C 
BRANCH  18  19
ATOM     19  C   UNL     1       5.424   5.092   1.028  1.00  0.00    -0.043 A 
ATOM     20  C   UNL     1       3.445   5.868  -0.140  1.00  0.00     0.083 A 
ATOM     21  C   UNL     1       4.826   5.908   0.055  1.00  0.00     0.028 A 
ATOM     22  C   UNL     1       2.655   5.017   0.634  1.00  0.00     0.134 A 
ATOM     23  C   UNL     1       3.234   4.203   1.600  1.00  0.00     0.048 A 
ATOM     24  C   UNL     1       4.616   4.243   1.799  1.00  0.00     0.008 A 
ATOM     25  Cl  UNL     1       2.728   6.878  -1.340  1.00  0.00    -0.080 Cl
BRANCH  22  26
ATOM     26  O   UNL     1       1.295   4.950   0.486  1.00  0.00    -0.506 OA
ATOM     27  H   UNL     1       0.951   4.479   1.267  1.00  0.00     0.293 HD
ENDBRANCH  22  26
ENDBRANCH  18  19
ENDBRANCH  17  18
BRANCH  17  28
ATOM     28  O   UNL     1       8.377   6.558  -0.065  1.00  0.00    -0.383 OA
ATOM     29  H   UNL     1       9.168   7.065   0.229  1.00  0.00     0.211 HD
ENDBRANCH  17  28
ENDBRANCH  14  17
ENDBRANCH  12  13
BRANCH  12  30
ATOM     30  C   UNL     1      11.214   6.356   3.945  1.00  0.00     0.018 C 
ATOM     31  C   UNL     1      11.917   7.491   4.708  1.00  0.00     0.010 C 
BRANCH  30  32
ATOM     32  C   UNL     1      11.625   6.384   2.453  1.00  0.00     0.002 C 
ATOM     33  C   UNL     1      11.860   7.771   1.868  1.00  0.00     0.004 C 
ENDBRANCH  30  32
ENDBRANCH  12  30
ENDBRANCH  10  12
ENDBRANCH   1  10
BRANCH   5  34
ATOM     34  C   UNL     1       7.843   6.194   8.155  1.00  0.00     0.242 C 
ATOM     35  O   UNL     1       7.708   6.975   9.097  1.00  0.00    -0.273 OA
ATOM     36  N   UNL     1       8.308   4.909   8.320  1.00  0.00    -0.354 N 
ATOM     37  H   UNL     1       8.514   4.350   7.491  1.00  0.00     0.163 HD
BRANCH  36  38
ATOM     38  C   UNL     1       8.419   4.289   9.625  1.00  0.00     0.116 C 
BRANCH  38  39
ATOM     39  C   UNL     1       7.100   3.613   9.991  1.00  0.00     0.023 C 
BRANCH  39  40
ATOM     40  C   UNL     1       6.478   4.197  11.255  1.00  0.00     0.026 C 
BRANCH  40  41
ATOM     41  C   UNL     1       4.985   3.874  11.323  1.00  0.00     0.146 C 
BRANCH  41  42
ATOM     42  N   UNL     1       4.328   4.323  10.103  1.00  0.00    -0.254 NA
ATOM     43  C   UNL     1       3.262   3.735   9.705  1.00  0.00     0.185 C 
ATOM     44  N   UNL     1       2.588   2.705  10.248  1.00  0.00    -0.370 N 
ATOM     45  N   UNL     1       2.674   4.160   8.575  1.00  0.00    -0.370 N 
ATOM     46  H   UNL     1       1.915   2.190   9.706  1.00  0.00     0.159 HD
ATOM     47  H   UNL     1       2.888   2.269  11.114  1.00  0.00     0.159 HD
ATOM     48  H   UNL     1       3.114   4.941   8.107  1.00  0.00     0.159 HD
ATOM     49  H   UNL     1       1.730   3.920   8.329  1.00  0.00     0.159 HD
ENDBRANCH  41  42
ENDBRANCH  40  41
ENDBRANCH  39  40
ENDBRANCH  38  39
ENDBRANCH  36  38
ENDBRANCH   5  34
BRANCH   8  50
ATOM     50  O   UNL     1       5.045   2.516   7.066  1.00  0.00    -0.245 OA
BRANCH  50  51
ATOM     51  S   UNL     1       5.484   1.100   7.735  1.00  0.00     0.397 S 
ATOM     52  O   UNL     1       4.944   1.053   9.076  1.00  0.00    -0.169 OA
ATOM     53  O   UNL     1       6.886   0.851   7.472  1.00  0.00    -0.169 OA
BRANCH  51  54
ATOM     54  O   UNL     1       4.624   0.044   6.881  1.00  0.00    -0.264 OA
ATOM     55  H   UNL     1       3.901  -0.285   7.453  1.00  0.00     0.236 HD
ENDBRANCH  51  54
ENDBRANCH  50  51
ENDBRANCH   8  50
TORSDOF 19
ENDMDL
MODEL 5
REMARK VINA RESULT:    -7.623      5.186      8.222
REMARK INTER + INTRA:         -17.052
REMARK INTER:                 -13.180
REMARK INTRA:                  -3.871
REMARK UNBOUND:                -1.631
REMARK SMILES CC[C@@H](C)[C@@H](NC(=O)[C@@H](O)Cc1ccc(O)c(Cl)c1)C(=O)N1[C@H](C(=O)NCCCCN=C(N)N)C[C@H]2CC[C@H](OS(=O)(=O)O)C[C@@H]21
REMARK SMILES IDX 22 1 36 2 46 3 35 4 23 5 45 6 37 7 39 8 38 9 20 10 21 11
REMARK SMILES IDX 5 12 6 13 7 14 8 15 9 17 11 18 12 19 17 20 19 21 15 22 14 23
REMARK SMILES IDX 13 24 18 25 16 26 10 28 3 30 4 31 2 32 1 33 24 34 25 35
REMARK SMILES IDX 26 36 27 38 28 39 29 40 30 41 31 42 32 43 33 44 34 45 40 50
REMARK SMILES IDX 41 51 42 52 43 53 44 54
REMARK H PARENT 6 16 16 27 10 29 26 37 33 46 33 47 34 48 34 49 44 55
ROOT
ATOM      1  N   UNL     1       4.750   2.217  10.540  1.00  0.00    -0.326 N 
ATOM      2  C   UNL     1       3.669   3.293  12.333  1.00  0.00     0.014 C 
ATOM      3  C   UNL     1       4.868   2.405  11.989  1.00  0.00     0.091 C 
ATOM      4  C   UNL     1       2.604   2.812  11.360  1.00  0.00     0.041 C 
ATOM      5  C   UNL     1       3.437   2.723  10.067  1.00  0.00     0.175 C 
ATOM      6  C   UNL     1       6.132   3.067  12.533  1.00  0.00     0.059 C 
ATOM      7  C   UNL     1       3.382   3.264  13.822  1.00  0.00     0.008 C 
ATOM      8  C   UNL     1       5.900   3.881  13.825  1.00  0.00     0.143 C 
ATOM      9  C   UNL     1       4.694   3.358  14.630  1.00  0.00     0.034 C 
ENDROOT
BRANCH   1  10
ATOM     10  C   UNL     1       5.544   1.487   9.672  1.00  0.00     0.246 C 
ATOM     11  O   UNL     1       5.543   0.254   9.749  1.00  0.00    -0.272 OA
BRANCH  10  12
ATOM     12  C   UNL     1       6.384   2.230   8.593  1.00  0.00     0.174 C 
BRANCH  12  13
ATOM     13  N   UNL     1       5.763   2.068   7.278  1.00  0.00    -0.342 N 
ATOM     14  C   UNL     1       5.502   3.092   6.396  1.00  0.00     0.249 C 
ATOM     15  O   UNL     1       5.789   4.264   6.607  1.00  0.00    -0.272 OA
ATOM     16  H   UNL     1       5.330   1.181   7.032  1.00  0.00     0.164 HD
BRANCH  14  17
ATOM     17  C   UNL     1       4.824   2.602   5.099  1.00  0.00     0.207 C 
BRANCH  17  18
ATOM     18  C   UNL     1       3.846   3.658   4.574  1.00  0.00     0.077 C 
BRANCH  18  19
ATOM     19  C   UNL     1       4.253   4.172   3.211  1.00  0.00    -0.043 A 
ATOM     20  C   UNL     1       5.912   5.169   1.749  1.00  0.00     0.083 A 
ATOM     21  C   UNL     1       5.555   4.649   2.994  1.00  0.00     0.028 A 
ATOM     22  C   UNL     1       4.975   5.216   0.717  1.00  0.00     0.134 A 
ATOM     23  C   UNL     1       3.682   4.747   0.918  1.00  0.00     0.048 A 
ATOM     24  C   UNL     1       3.320   4.228   2.164  1.00  0.00     0.008 A 
ATOM     25  Cl  UNL     1       7.517   5.750   1.502  1.00  0.00    -0.080 Cl
BRANCH  22  26
ATOM     26  O   UNL     1       5.276   5.726  -0.517  1.00  0.00    -0.506 OA
ATOM     27  H   UNL     1       4.924   6.635  -0.538  1.00  0.00     0.293 HD
ENDBRANCH  22  26
ENDBRANCH  18  19
ENDBRANCH  17  18
BRANCH  17  28
ATOM     28  O   UNL     1       4.120   1.368   5.317  1.00  0.00    -0.383 OA
ATOM     29  H   UNL     1       4.803   0.660   5.303  1.00  0.00     0.211 HD
ENDBRANCH  17  28
ENDBRANCH  14  17
ENDBRANCH  12  13
BRANCH  12  30
ATOM     30  C   UNL     1       7.877   1.806   8.599  1.00  0.00     0.018 C 
ATOM     31  C   UNL     1       8.795   3.038   8.572  1.00  0.00     0.010 C 
BRANCH  30  32
ATOM     32  C   UNL     1       8.253   0.838   7.451  1.00  0.00     0.002 C 
ATOM     33  C   UNL     1       8.774  -0.524   7.892  1.00  0.00     0.004 C 
ENDBRANCH  30  32
ENDBRANCH  12  30
ENDBRANCH  10  12
ENDBRANCH   1  10
BRANCH   5  34
ATOM     34  C   UNL     1       3.593   4.111   9.391  1.00  0.00     0.242 C 
ATOM     35  O   UNL     1       4.501   4.888   9.686  1.00  0.00    -0.273 OA
ATOM     36  N   UNL     1       2.613   4.432   8.479  1.00  0.00    -0.354 N 
ATOM     37  H   UNL     1       1.821   3.798   8.366  1.00  0.00     0.163 HD
BRANCH  36  38
ATOM     38  C   UNL     1       2.718   5.581   7.604  1.00  0.00     0.116 C 
BRANCH  38  39
ATOM     39  C   UNL     1       2.284   6.841   8.349  1.00  0.00     0.023 C 
BRANCH  39  40
ATOM     40  C   UNL     1       3.091   8.068   7.937  1.00  0.00     0.026 C 
BRANCH  40  41
ATOM     41  C   UNL     1       4.558   7.702   7.713  1.00  0.00     0.146 C 
BRANCH  41  42
ATOM     42  N   UNL     1       5.338   8.047   8.894  1.00  0.00    -0.254 NA
ATOM     43  C   UNL     1       6.405   7.393   9.161  1.00  0.00     0.185 C 
ATOM     44  N   UNL     1       6.982   6.371   8.502  1.00  0.00    -0.370 N 
ATOM     45  N   UNL     1       7.108   7.723  10.257  1.00  0.00    -0.370 N 
ATOM     46  H   UNL     1       7.675   5.797   8.951  1.00  0.00     0.159 HD
ATOM     47  H   UNL     1       6.588   6.002   7.641  1.00  0.00     0.159 HD
ATOM     48  H   UNL     1       6.746   8.491  10.807  1.00  0.00     0.159 HD
ATOM     49  H   UNL     1       8.057   7.429  10.404  1.00  0.00     0.159 HD
ENDBRANCH  41  42
ENDBRANCH  40  41
ENDBRANCH  39  40
ENDBRANCH  38  39
ENDBRANCH  36  38
ENDBRANCH   5  34
BRANCH   8  50
ATOM     50  O   UNL     1       5.672   5.254  13.505  1.00  0.00    -0.245 OA
BRANCH  50  51
ATOM     51  S   UNL     1       6.636   6.398  14.141  1.00  0.00     0.397 S 
ATOM     52  O   UNL     1       6.440   6.401  15.574  1.00  0.00    -0.169 OA
ATOM     53  O   UNL     1       6.533   7.612  13.358  1.00  0.00    -0.169 OA
BRANCH  51  54
ATOM     54  O   UNL     1       8.099   5.776  13.901  1.00  0.00    -0.264 OA
ATOM     55  H   UNL     1       8.014   4.800  13.914  1.00  0.00     0.236 HD
ENDBRANCH  51  54
ENDBRANCH  50  51
ENDBRANCH   8  50
TORSDOF 19
ENDMDL
MODEL 6
REMARK VINA RESULT:    -7.610      5.285      9.745
REMARK INTER + INTRA:         -17.027
REMARK INTER:                 -14.190
REMARK INTRA:                  -2.837
REMARK UNBOUND:                -1.631
REMARK SMILES CC[C@@H](C)[C@@H](NC(=O)[C@@H](O)Cc1ccc(O)c(Cl)c1)C(=O)N1[C@H](C(=O)NCCCCN=C(N)N)C[C@H]2CC[C@H](OS(=O)(=O)O)C[C@@H]21
REMARK SMILES IDX 22 1 36 2 46 3 35 4 23 5 45 6 37 7 39 8 38 9 20 10 21 11
REMARK SMILES IDX 5 12 6 13 7 14 8 15 9 17 11 18 12 19 17 20 19 21 15 22 14 23
REMARK SMILES IDX 13 24 18 25 16 26 10 28 3 30 4 31 2 32 1 33 24 34 25 35
REMARK SMILES IDX 26 36 27 38 28 39 29 40 30 41 31 42 32 43 33 44 34 45 40 50
REMARK SMILES IDX 41 51 42 52 43 53 44 54
REMARK H PARENT 6 16 16 27 10 29 26 37 33 46 33 47 34 48 34 49 44 55
ROOT
ATOM      1  N   UNL     1       5.906   3.767   9.532  1.00  0.00    -0.326 N 
ATOM      2  C   UNL     1       6.488   5.791   8.480  1.00  0.00     0.014 C 
ATOM      3  C   UNL     1       5.599   4.553   8.334  1.00  0.00     0.091 C 
ATOM      4  C   UNL     1       7.733   5.231   9.152  1.00  0.00     0.041 C 
ATOM      5  C   UNL     1       7.085   4.340  10.227  1.00  0.00     0.175 C 
ATOM      6  C   UNL     1       4.159   5.015   8.120  1.00  0.00     0.059 C 
ATOM      7  C   UNL     1       6.621   6.522   7.159  1.00  0.00     0.008 C 
ATOM      8  C   UNL     1       4.042   6.356   7.363  1.00  0.00     0.143 C 
ATOM      9  C   UNL     1       5.256   6.611   6.446  1.00  0.00     0.034 C 
ENDROOT
BRANCH   1  10
ATOM     10  C   UNL     1       5.417   2.536   9.935  1.00  0.00     0.246 C 
ATOM     11  O   UNL     1       4.673   2.477  10.920  1.00  0.00    -0.272 OA
BRANCH  10  12
ATOM     12  C   UNL     1       5.780   1.262   9.118  1.00  0.00     0.174 C 
BRANCH  12  13
ATOM     13  N   UNL     1       5.199   1.347   7.779  1.00  0.00    -0.342 N 
ATOM     14  C   UNL     1       5.905   1.612   6.627  1.00  0.00     0.249 C 
ATOM     15  O   UNL     1       7.118   1.780   6.594  1.00  0.00    -0.272 OA
ATOM     16  H   UNL     1       4.189   1.385   7.669  1.00  0.00     0.164 HD
BRANCH  14  17
ATOM     17  C   UNL     1       5.006   1.653   5.373  1.00  0.00     0.207 C 
BRANCH  17  18
ATOM     18  C   UNL     1       4.265   2.992   5.290  1.00  0.00     0.077 C 
BRANCH  18  19
ATOM     19  C   UNL     1       4.621   3.754   4.033  1.00  0.00    -0.043 A 
ATOM     20  C   UNL     1       4.023   4.574   1.830  1.00  0.00     0.083 A 
ATOM     21  C   UNL     1       3.675   3.913   3.009  1.00  0.00     0.028 A 
ATOM     22  C   UNL     1       5.314   5.078   1.667  1.00  0.00     0.134 A 
ATOM     23  C   UNL     1       6.261   4.927   2.673  1.00  0.00     0.048 A 
ATOM     24  C   UNL     1       5.916   4.264   3.853  1.00  0.00     0.008 A 
ATOM     25  Cl  UNL     1       2.846   4.760   0.583  1.00  0.00    -0.080 Cl
BRANCH  22  26
ATOM     26  O   UNL     1       5.704   5.724   0.525  1.00  0.00    -0.506 OA
ATOM     27  H   UNL     1       6.678   5.759   0.542  1.00  0.00     0.293 HD
ENDBRANCH  22  26
ENDBRANCH  18  19
ENDBRANCH  17  18
BRANCH  17  28
ATOM     28  O   UNL     1       4.051   0.580   5.385  1.00  0.00    -0.383 OA
ATOM     29  H   UNL     1       3.870   0.387   6.334  1.00  0.00     0.211 HD
ENDBRANCH  17  28
ENDBRANCH  14  17
ENDBRANCH  12  13
BRANCH  12  30
ATOM     30  C   UNL     1       5.391  -0.051   9.850  1.00  0.00     0.018 C 
ATOM     31  C   UNL     1       6.409  -0.385  10.951  1.00  0.00     0.010 C 
BRANCH  30  32
ATOM     32  C   UNL     1       5.216  -1.263   8.902  1.00  0.00     0.002 C 
ATOM     33  C   UNL     1       6.502  -1.988   8.528  1.00  0.00     0.004 C 
ENDBRANCH  30  32
ENDBRANCH  12  30
ENDBRANCH  10  12
ENDBRANCH   1  10
BRANCH   5  34
ATOM     34  C   UNL     1       6.646   5.165  11.466  1.00  0.00     0.242 C 
ATOM     35  O   UNL     1       6.673   6.396  11.480  1.00  0.00    -0.273 OA
ATOM     36  N   UNL     1       6.277   4.422  12.565  1.00  0.00    -0.354 N 
ATOM     37  H   UNL     1       6.391   3.408  12.532  1.00  0.00     0.163 HD
BRANCH  36  38
ATOM     38  C   UNL     1       5.641   5.015  13.722  1.00  0.00     0.116 C 
BRANCH  38  39
ATOM     39  C   UNL     1       4.678   4.014  14.355  1.00  0.00     0.023 C 
BRANCH  39  40
ATOM     40  C   UNL     1       3.217   4.401  14.153  1.00  0.00     0.026 C 
BRANCH  40  41
ATOM     41  C   UNL     1       2.356   3.161  13.912  1.00  0.00     0.146 C 
BRANCH  41  42
ATOM     42  N   UNL     1       2.135   2.462  15.171  1.00  0.00    -0.254 NA
ATOM     43  C   UNL     1       1.036   2.632  15.805  1.00  0.00     0.185 C 
ATOM     44  N   UNL     1      -0.031   3.393  15.499  1.00  0.00    -0.370 N 
ATOM     45  N   UNL     1       0.854   1.982  16.966  1.00  0.00    -0.370 N 
ATOM     46  H   UNL     1      -0.715   3.622  16.199  1.00  0.00     0.159 HD
ATOM     47  H   UNL     1      -0.066   3.942  14.646  1.00  0.00     0.159 HD
ATOM     48  H   UNL     1       1.608   1.380  17.266  1.00  0.00     0.159 HD
ATOM     49  H   UNL     1      -0.049   1.875  17.393  1.00  0.00     0.159 HD
ENDBRANCH  41  42
ENDBRANCH  40  41
ENDBRANCH  39  40
ENDBRANCH  38  39
ENDBRANCH  36  38
ENDBRANCH   5  34
BRANCH   8  50
ATOM     50  O   UNL     1       3.942   7.436   8.292  1.00  0.00    -0.245 OA
BRANCH  50  51
ATOM     51  S   UNL     1       2.573   8.312   8.360  1.00  0.00     0.397 S 
ATOM     52  O   UNL     1       1.576   7.529   9.053  1.00  0.00    -0.169 OA
ATOM     53  O   UNL     1       2.309   8.903   7.064  1.00  0.00    -0.169 OA
BRANCH  51  54
ATOM     54  O   UNL     1       2.981   9.495   9.370  1.00  0.00    -0.264 OA
ATOM     55  H   UNL     1       2.517  10.307   9.082  1.00  0.00     0.236 HD
ENDBRANCH  51  54
ENDBRANCH  50  51
ENDBRANCH   8  50
TORSDOF 19
ENDMDL
MODEL 7
REMARK VINA RESULT:    -7.563      3.892      7.186
REMARK INTER + INTRA:         -16.930
REMARK INTER:                 -14.639
REMARK INTRA:                  -2.291
REMARK UNBOUND:                -1.631
REMARK SMILES CC[C@@H](C)[C@@H](NC(=O)[C@@H](O)Cc1ccc(O)c(Cl)c1)C(=O)N1[C@H](C(=O)NCCCCN=C(N)N)C[C@H]2CC[C@H](OS(=O)(=O)O)C[C@@H]21
REMARK SMILES IDX 22 1 36 2 46 3 35 4 23 5 45 6 37 7 39 8 38 9 20 10 21 11
REMARK SMILES IDX 5 12 6 13 7 14 8 15 9 17 11 18 12 19 17 20 19 21 15 22 14 23
REMARK SMILES IDX 13 24 18 25 16 26 10 28 3 30 4 31 2 32 1 33 24 34 25 35
REMARK SMILES IDX 26 36 27 38 28 39 29 40 30 41 31 42 32 43 33 44 34 45 40 50
REMARK SMILES IDX 41 51 42 52 43 53 44 54
REMARK H PARENT 6 16 16 27 10 29 26 37 33 46 33 47 34 48 34 49 44 55
ROOT
ATOM      1  N   UNL     1       8.680   5.967   3.571  1.00  0.00    -0.326 N 
ATOM      2  C   UNL     1      10.937   6.637   3.573  1.00  0.00     0.014 C 
ATOM      3  C   UNL     1       9.636   6.740   2.772  1.00  0.00     0.091 C 
ATOM      4  C   UNL     1      10.859   5.237   4.161  1.00  0.00     0.041 C 
ATOM      5  C   UNL     1       9.394   5.222   4.637  1.00  0.00     0.175 C 
ATOM      6  C   UNL     1       9.341   8.218   2.519  1.00  0.00     0.059 C 
ATOM      7  C   UNL     1      12.131   7.020   2.720  1.00  0.00     0.008 C 
ATOM      8  C   UNL     1      10.607   9.089   2.378  1.00  0.00     0.143 C 
ATOM      9  C   UNL     1      11.818   8.276   1.879  1.00  0.00     0.034 C 
ENDROOT
BRANCH   1  10
ATOM     10  C   UNL     1       7.344   5.692   3.334  1.00  0.00     0.246 C 
ATOM     11  O   UNL     1       6.596   5.473   4.293  1.00  0.00    -0.272 OA
BRANCH  10  12
ATOM     12  C   UNL     1       6.805   5.706   1.874  1.00  0.00     0.174 C 
BRANCH  12  13
ATOM     13  N   UNL     1       5.538   4.980   1.804  1.00  0.00    -0.342 N 
ATOM     14  C   UNL     1       4.465   5.337   1.018  1.00  0.00     0.249 C 
ATOM     15  O   UNL     1       4.465   6.299   0.260  1.00  0.00    -0.272 OA
ATOM     16  H   UNL     1       5.333   4.256   2.488  1.00  0.00     0.164 HD
BRANCH  14  17
ATOM     17  C   UNL     1       3.265   4.379   1.177  1.00  0.00     0.207 C 
BRANCH  17  18
ATOM     18  C   UNL     1       1.947   5.137   0.989  1.00  0.00     0.077 C 
BRANCH  18  19
ATOM     19  C   UNL     1       1.377   4.937  -0.398  1.00  0.00    -0.043 A 
ATOM     20  C   UNL     1       1.252   5.583  -2.733  1.00  0.00     0.083 A 
ATOM     21  C   UNL     1       1.815   5.736  -1.465  1.00  0.00     0.028 A 
ATOM     22  C   UNL     1       0.250   4.635  -2.941  1.00  0.00     0.134 A 
ATOM     23  C   UNL     1      -0.193   3.836  -1.893  1.00  0.00     0.048 A 
ATOM     24  C   UNL     1       0.367   3.989  -0.623  1.00  0.00     0.008 A 
ATOM     25  Cl  UNL     1       1.803   6.574  -4.032  1.00  0.00    -0.080 Cl
BRANCH  22  26
ATOM     26  O   UNL     1      -0.339   4.455  -4.164  1.00  0.00    -0.506 OA
ATOM     27  H   UNL     1       0.383   4.345  -4.809  1.00  0.00     0.293 HD
ENDBRANCH  22  26
ENDBRANCH  18  19
ENDBRANCH  17  18
BRANCH  17  28
ATOM     28  O   UNL     1       3.273   3.751   2.469  1.00  0.00    -0.383 OA
ATOM     29  H   UNL     1       4.034   4.140   2.956  1.00  0.00     0.211 HD
ENDBRANCH  17  28
ENDBRANCH  14  17
ENDBRANCH  12  13
BRANCH  12  30
ATOM     30  C   UNL     1       7.845   5.184   0.846  1.00  0.00     0.018 C 
ATOM     31  C   UNL     1       8.160   6.259  -0.206  1.00  0.00     0.010 C 
BRANCH  30  32
ATOM     32  C   UNL     1       7.423   3.866   0.150  1.00  0.00     0.002 C 
ATOM     33  C   UNL     1       6.790   4.030  -1.225  1.00  0.00     0.004 C 
ENDBRANCH  30  32
ENDBRANCH  12  30
ENDBRANCH  10  12
ENDBRANCH   1  10
BRANCH   5  34
ATOM     34  C   UNL     1       9.232   5.932   6.007  1.00  0.00     0.242 C 
ATOM     35  O   UNL     1      10.023   6.788   6.403  1.00  0.00    -0.273 OA
ATOM     36  N   UNL     1       8.171   5.497   6.770  1.00  0.00    -0.354 N 
ATOM     37  H   UNL     1       7.622   4.702   6.441  1.00  0.00     0.163 HD
BRANCH  36  38
ATOM     38  C   UNL     1       7.745   6.190   7.969  1.00  0.00     0.116 C 
BRANCH  38  39
ATOM     39  C   UNL     1       6.294   6.640   7.818  1.00  0.00     0.023 C 
BRANCH  39  40
ATOM     40  C   UNL     1       5.325   5.752   8.592  1.00  0.00     0.026 C 
BRANCH  40  41
ATOM     41  C   UNL     1       3.978   5.665   7.874  1.00  0.00     0.146 C 
BRANCH  41  42
ATOM     42  N   UNL     1       3.845   4.362   7.235  1.00  0.00    -0.254 NA
ATOM     43  C   UNL     1       3.768   4.288   5.960  1.00  0.00     0.185 C 
ATOM     44  N   UNL     1       3.792   5.263   5.033  1.00  0.00    -0.370 N 
ATOM     45  N   UNL     1       3.641   3.078   5.390  1.00  0.00    -0.370 N 
ATOM     46  H   UNL     1       3.479   5.086   4.094  1.00  0.00     0.159 HD
ATOM     47  H   UNL     1       3.897   6.240   5.290  1.00  0.00     0.159 HD
ATOM     48  H   UNL     1       3.624   2.286   6.018  1.00  0.00     0.159 HD
ATOM     49  H   UNL     1       3.812   2.916   4.414  1.00  0.00     0.159 HD
ENDBRANCH  41  42
ENDBRANCH  40  41
ENDBRANCH  39  40
ENDBRANCH  38  39
ENDBRANCH  36  38
ENDBRANCH   5  34
BRANCH   8  50
ATOM     50  O   UNL     1      10.942   9.674   3.637  1.00  0.00    -0.245 OA
BRANCH  50  51
ATOM     51  S   UNL     1      11.637  11.144   3.681  1.00  0.00     0.397 S 
ATOM     52  O   UNL     1      11.408  11.708   4.992  1.00  0.00    -0.169 OA
ATOM     53  O   UNL     1      11.310  11.872   2.472  1.00  0.00    -0.169 OA
BRANCH  51  54
ATOM     54  O   UNL     1      13.202  10.777   3.629  1.00  0.00    -0.264 OA
ATOM     55  H   UNL     1      13.684  11.453   4.148  1.00  0.00     0.236 HD
ENDBRANCH  51  54
ENDBRANCH  50  51
ENDBRANCH   8  50
TORSDOF 19
ENDMDL
MODEL 8
REMARK VINA RESULT:    -7.365     14.433     17.668
REMARK INTER + INTRA:         -16.530
REMARK INTER:                 -12.810
REMARK INTRA:                  -3.720
REMARK UNBOUND:                -1.631
REMARK SMILES CC[C@@H](C)[C@@H](NC(=O)[C@@H](O)Cc1ccc(O)c(Cl)c1)C(=O)N1[C@H](C(=O)NCCCCN=C(N)N)C[C@H]2CC[C@H](OS(=O)(=O)O)C[C@@H]21
REMARK SMILES IDX 22 1 36 2 46 3 35 4 23 5 45 6 37 7 39 8 38 9 20 10 21 11
REMARK SMILES IDX 5 12 6 13 7 14 8 15 9 17 11 18 12 19 17 20 19 21 15 22 14 23
REMARK SMILES IDX 13 24 18 25 16 26 10 28 3 30 4 31 2 32 1 33 24 34 25 35
REMARK SMILES IDX 26 36 27 38 28 39 29 40 30 41 31 42 32 43 33 44 34 45 40 50
REMARK SMILES IDX 41 51 42 52 43 53 44 54
REMARK H PARENT 6 16 16 27 10 29 26 37 33 46 33 47 34 48 34 49 44 55
ROOT
ATOM      1  N   UNL     1      -1.152  -5.773  10.846  1.00  0.00    -0.326 N 
ATOM      2  C   UNL     1      -2.992  -5.838  12.312  1.00  0.00     0.014 C 
ATOM      3  C   UNL     1      -2.600  -5.997  10.841  1.00  0.00     0.091 C 
ATOM      4  C   UNL     1      -2.038  -4.758  12.799  1.00  0.00     0.041 C 
ATOM      5  C   UNL     1      -0.723  -5.253  12.168  1.00  0.00     0.175 C 
ATOM      6  C   UNL     1      -3.123  -7.344  10.344  1.00  0.00     0.059 C 
ATOM      7  C   UNL     1      -4.487  -5.629  12.456  1.00  0.00     0.008 C 
ATOM      8  C   UNL     1      -4.435  -7.790  11.025  1.00  0.00     0.143 C 
ATOM      9  C   UNL     1      -5.262  -6.591  11.531  1.00  0.00     0.034 C 
ENDROOT
BRANCH   1  10
ATOM     10  C   UNL     1      -0.250  -5.771   9.795  1.00  0.00     0.246 C 
ATOM     11  O   UNL     1       0.940  -6.016  10.024  1.00  0.00    -0.272 OA
BRANCH  10  12
ATOM     12  C   UNL     1      -0.758  -5.505   8.349  1.00  0.00     0.174 C 
BRANCH  12  13
ATOM     13  N   UNL     1       0.149  -6.121   7.380  1.00  0.00    -0.342 N 
ATOM     14  C   UNL     1       0.195  -7.464   7.084  1.00  0.00     0.249 C 
ATOM     15  O   UNL     1      -0.548  -8.299   7.586  1.00  0.00    -0.272 OA
ATOM     16  H   UNL     1       0.924  -5.581   7.003  1.00  0.00     0.164 HD
BRANCH  14  17
ATOM     17  C   UNL     1       1.272  -7.806   6.033  1.00  0.00     0.207 C 
BRANCH  17  18
ATOM     18  C   UNL     1       1.602  -6.573   5.184  1.00  0.00     0.077 C 
BRANCH  18  19
ATOM     19  C   UNL     1       3.087  -6.450   4.925  1.00  0.00    -0.043 A 
ATOM     20  C   UNL     1       5.079  -5.082   4.723  1.00  0.00     0.083 A 
ATOM     21  C   UNL     1       3.719  -5.200   5.010  1.00  0.00     0.028 A 
ATOM     22  C   UNL     1       5.814  -6.207   4.348  1.00  0.00     0.134 A 
ATOM     23  C   UNL     1       5.201  -7.451   4.260  1.00  0.00     0.048 A 
ATOM     24  C   UNL     1       3.839  -7.573   4.546  1.00  0.00     0.008 A 
ATOM     25  Cl  UNL     1       5.839  -3.537   4.832  1.00  0.00    -0.080 Cl
BRANCH  22  26
ATOM     26  O   UNL     1       7.147  -6.139   4.047  1.00  0.00    -0.506 OA
ATOM     27  H   UNL     1       7.543  -5.500   4.668  1.00  0.00     0.293 HD
ENDBRANCH  22  26
ENDBRANCH  18  19
ENDBRANCH  17  18
BRANCH  17  28
ATOM     28  O   UNL     1       0.837  -8.873   5.174  1.00  0.00    -0.383 OA
ATOM     29  H   UNL     1       1.610  -9.474   5.075  1.00  0.00     0.211 HD
ENDBRANCH  17  28
ENDBRANCH  14  17
ENDBRANCH  12  13
BRANCH  12  30
ATOM     30  C   UNL     1      -0.995  -3.998   8.064  1.00  0.00     0.018 C 
ATOM     31  C   UNL     1      -0.702  -3.667   6.592  1.00  0.00     0.010 C 
BRANCH  30  32
ATOM     32  C   UNL     1      -0.188  -3.056   8.991  1.00  0.00     0.002 C 
ATOM     33  C   UNL     1      -1.021  -2.216   9.950  1.00  0.00     0.004 C 
ENDBRANCH  30  32
ENDBRANCH  12  30
ENDBRANCH  10  12
ENDBRANCH   1  10
BRANCH   5  34
ATOM     34  C   UNL     1      -0.069  -6.376  13.016  1.00  0.00     0.242 C 
ATOM     35  O   UNL     1       0.205  -6.227  14.206  1.00  0.00    -0.273 OA
ATOM     36  N   UNL     1       0.233  -7.529  12.327  1.00  0.00    -0.354 N 
ATOM     37  H   UNL     1       0.092  -7.549  11.316  1.00  0.00     0.163 HD
BRANCH  36  38
ATOM     38  C   UNL     1       0.643  -8.746  12.997  1.00  0.00     0.116 C 
BRANCH  38  39
ATOM     39  C   UNL     1      -0.576  -9.620  13.278  1.00  0.00     0.023 C 
BRANCH  39  40
ATOM     40  C   UNL     1      -0.462 -10.374  14.599  1.00  0.00     0.026 C 
BRANCH  40  41
ATOM     41  C   UNL     1      -1.630 -10.029  15.523  1.00  0.00     0.146 C 
BRANCH  41  42
ATOM     42  N   UNL     1      -1.593  -8.611  15.855  1.00  0.00    -0.254 NA
ATOM     43  C   UNL     1      -2.604  -7.872  15.589  1.00  0.00     0.185 C 
ATOM     44  N   UNL     1      -3.781  -8.188  15.019  1.00  0.00    -0.370 N 
ATOM     45  N   UNL     1      -2.548  -6.566  15.899  1.00  0.00    -0.370 N 
ATOM     46  H   UNL     1      -4.381  -7.470  14.650  1.00  0.00     0.159 HD
ATOM     47  H   UNL     1      -3.997  -9.138  14.733  1.00  0.00     0.159 HD
ATOM     48  H   UNL     1      -1.698  -6.246  16.342  1.00  0.00     0.159 HD
ATOM     49  H   UNL     1      -3.365  -5.983  15.944  1.00  0.00     0.159 HD
ENDBRANCH  41  42
ENDBRANCH  40  41
ENDBRANCH  39  40
ENDBRANCH  38  39
ENDBRANCH  36  38
ENDBRANCH   5  34
BRANCH   8  50
ATOM     50  O   UNL     1      -4.146  -8.642  12.134  1.00  0.00    -0.245 OA
BRANCH  50  51
ATOM     51  S   UNL     1      -4.561 -10.214  12.068  1.00  0.00     0.397 S 
ATOM     52  O   UNL     1      -5.666 -10.346  11.146  1.00  0.00    -0.169 OA
ATOM     53  O   UNL     1      -4.621 -10.758  13.408  1.00  0.00    -0.169 OA
BRANCH  51  54
ATOM     54  O   UNL     1      -3.291 -10.865  11.325  1.00  0.00    -0.264 OA
ATOM     55  H   UNL     1      -3.400 -10.717  10.364  1.00  0.00     0.236 HD
ENDBRANCH  51  54
ENDBRANCH  50  51
ENDBRANCH   8  50
TORSDOF 19
ENDMDL
MODEL 9
REMARK VINA RESULT:    -7.190      6.367     11.966
REMARK INTER + INTRA:         -16.176
REMARK INTER:                 -14.414
REMARK INTRA:                  -1.761
REMARK UNBOUND:                -1.631
REMARK SMILES CC[C@@H](C)[C@@H](NC(=O)[C@@H](O)Cc1ccc(O)c(Cl)c1)C(=O)N1[C@H](C(=O)NCCCCN=C(N)N)C[C@H]2CC[C@H](OS(=O)(=O)O)C[C@@H]21
REMARK SMILES IDX 22 1 36 2 46 3 35 4 23 5 45 6 37 7 39 8 38 9 20 10 21 11
REMARK SMILES IDX 5 12 6 13 7 14 8 15 9 17 11 18 12 19 17 20 19 21 15 22 14 23
REMARK SMILES IDX 13 24 18 25 16 26 10 28 3 30 4 31 2 32 1 33 24 34 25 35
REMARK SMILES IDX 26 36 27 38 28 39 29 40 30 41 31 42 32 43 33 44 34 45 40 50
REMARK SMILES IDX 41 51 42 52 43 53 44 54
REMARK H PARENT 6 16 16 27 10 29 26 37 33 46 33 47 34 48 34 49 44 55
ROOT
ATOM      1  N   UNL     1       4.325   4.444   5.704  1.00  0.00    -0.326 N 
ATOM      2  C   UNL     1       6.026   4.393   4.078  1.00  0.00     0.014 C 
ATOM      3  C   UNL     1       5.342   5.308   5.098  1.00  0.00     0.091 C 
ATOM      4  C   UNL     1       4.881   3.517   3.593  1.00  0.00     0.041 C 
ATOM      5  C   UNL     1       4.208   3.180   4.936  1.00  0.00     0.175 C 
ATOM      6  C   UNL     1       6.415   5.909   6.003  1.00  0.00     0.059 C 
ATOM      7  C   UNL     1       6.821   5.202   3.072  1.00  0.00     0.008 C 
ATOM      8  C   UNL     1       7.771   6.129   5.298  1.00  0.00     0.143 C 
ATOM      9  C   UNL     1       7.609   6.326   3.778  1.00  0.00     0.034 C 
ENDROOT
BRANCH   1  10
ATOM     10  C   UNL     1       3.386   4.730   6.680  1.00  0.00     0.246 C 
ATOM     11  O   UNL     1       2.241   4.280   6.563  1.00  0.00    -0.272 OA
BRANCH  10  12
ATOM     12  C   UNL     1       3.801   5.572   7.922  1.00  0.00     0.174 C 
BRANCH  12  13
ATOM     13  N   UNL     1       3.210   5.001   9.132  1.00  0.00    -0.342 N 
ATOM     14  C   UNL     1       3.627   3.839   9.742  1.00  0.00     0.249 C 
ATOM     15  O   UNL     1       4.568   3.162   9.349  1.00  0.00    -0.272 OA
ATOM     16  H   UNL     1       2.327   5.364   9.481  1.00  0.00     0.164 HD
BRANCH  14  17
ATOM     17  C   UNL     1       2.791   3.491  10.992  1.00  0.00     0.207 C 
BRANCH  17  18
ATOM     18  C   UNL     1       3.695   3.364  12.223  1.00  0.00     0.077 C 
BRANCH  18  19
ATOM     19  C   UNL     1       2.922   3.544  13.509  1.00  0.00    -0.043 A 
ATOM     20  C   UNL     1       1.702   4.970  15.047  1.00  0.00     0.083 A 
ATOM     21  C   UNL     1       2.373   4.794  13.836  1.00  0.00     0.028 A 
ATOM     22  C   UNL     1       1.578   3.903  15.937  1.00  0.00     0.134 A 
ATOM     23  C   UNL     1       2.117   2.660  15.626  1.00  0.00     0.048 A 
ATOM     24  C   UNL     1       2.790   2.481  14.416  1.00  0.00     0.008 A 
ATOM     25  Cl  UNL     1       1.034   6.513  15.431  1.00  0.00    -0.080 Cl
BRANCH  22  26
ATOM     26  O   UNL     1       0.938   4.030  17.141  1.00  0.00    -0.506 OA
ATOM     27  H   UNL     1      -0.013   4.119  16.945  1.00  0.00     0.293 HD
ENDBRANCH  22  26
ENDBRANCH  18  19
ENDBRANCH  17  18
BRANCH  17  28
ATOM     28  O   UNL     1       2.067   2.264  10.805  1.00  0.00    -0.383 OA
ATOM     29  H   UNL     1       1.965   2.154   9.832  1.00  0.00     0.211 HD
ENDBRANCH  17  28
ENDBRANCH  14  17
ENDBRANCH  12  13
BRANCH  12  30
ATOM     30  C   UNL     1       3.476   7.081   7.759  1.00  0.00     0.018 C 
ATOM     31  C   UNL     1       4.622   7.949   8.300  1.00  0.00     0.010 C 
BRANCH  30  32
ATOM     32  C   UNL     1       2.136   7.502   8.411  1.00  0.00     0.002 C 
ATOM     33  C   UNL     1       1.872   9.002   8.446  1.00  0.00     0.004 C 
ENDBRANCH  30  32
ENDBRANCH  12  30
ENDBRANCH  10  12
ENDBRANCH   1  10
BRANCH   5  34
ATOM     34  C   UNL     1       4.938   2.022   5.667  1.00  0.00     0.242 C 
ATOM     35  O   UNL     1       5.978   2.197   6.302  1.00  0.00    -0.273 OA
ATOM     36  N   UNL     1       4.369   0.778   5.509  1.00  0.00    -0.354 N 
ATOM     37  H   UNL     1       3.577   0.678   4.873  1.00  0.00     0.163 HD
BRANCH  36  38
ATOM     38  C   UNL     1       4.788  -0.368   6.288  1.00  0.00     0.116 C 
BRANCH  38  39
ATOM     39  C   UNL     1       5.576  -1.334   5.407  1.00  0.00     0.023 C 
BRANCH  39  40
ATOM     40  C   UNL     1       5.751  -2.704   6.054  1.00  0.00     0.026 C 
BRANCH  40  41
ATOM     41  C   UNL     1       4.398  -3.284   6.468  1.00  0.00     0.146 C 
BRANCH  41  42
ATOM     42  N   UNL     1       4.374  -4.716   6.200  1.00  0.00    -0.254 NA
ATOM     43  C   UNL     1       3.910  -5.144   5.086  1.00  0.00     0.185 C 
ATOM     44  N   UNL     1       3.405  -4.464   4.040  1.00  0.00    -0.370 N 
ATOM     45  N   UNL     1       3.893  -6.468   4.860  1.00  0.00    -0.370 N 
ATOM     46  H   UNL     1       2.857  -4.934   3.340  1.00  0.00     0.159 HD
ATOM     47  H   UNL     1       3.356  -3.450   4.038  1.00  0.00     0.159 HD
ATOM     48  H   UNL     1       4.265  -7.053   5.596  1.00  0.00     0.159 HD
ATOM     49  H   UNL     1       3.773  -6.862   3.944  1.00  0.00     0.159 HD
ENDBRANCH  41  42
ENDBRANCH  40  41
ENDBRANCH  39  40
ENDBRANCH  38  39
ENDBRANCH  36  38
ENDBRANCH   5  34
BRANCH   8  50
ATOM     50  O   UNL     1       8.627   5.008   5.522  1.00  0.00    -0.245 OA
BRANCH  50  51
ATOM     51  S   UNL     1      10.233   5.236   5.647  1.00  0.00     0.397 S 
ATOM     52  O   UNL     1      10.820   4.993   4.349  1.00  0.00    -0.169 OA
ATOM     53  O   UNL     1      10.726   4.578   6.839  1.00  0.00    -0.169 OA
BRANCH  51  54
ATOM     54  O   UNL     1      10.329   6.824   5.880  1.00  0.00    -0.264 OA
ATOM     55  H   UNL     1      10.119   7.001   6.820  1.00  0.00     0.236 HD
ENDBRANCH  51  54
ENDBRANCH  50  51
ENDBRANCH   8  50
TORSDOF 19
ENDMDL
MODEL 10
REMARK VINA RESULT:    -7.187      7.377     12.049
REMARK INTER + INTRA:         -16.170
REMARK INTER:                 -12.225
REMARK INTRA:                  -3.945
REMARK UNBOUND:                -1.631
REMARK SMILES CC[C@@H](C)[C@@H](NC(=O)[C@@H](O)Cc1ccc(O)c(Cl)c1)C(=O)N1[C@H](C(=O)NCCCCN=C(N)N)C[C@H]2CC[C@H](OS(=O)(=O)O)C[C@@H]21
REMARK SMILES IDX 22 1 36 2 46 3 35 4 23 5 45 6 37 7 39 8 38 9 20 10 21 11
REMARK SMILES IDX 5 12 6 13 7 14 8 15 9 17 11 18 12 19 17 20 19 21 15 22 14 23
REMARK SMILES IDX 13 24 18 25 16 26 10 28 3 30 4 31 2 32 1 33 24 34 25 35
REMARK SMILES IDX 26 36 27 38 28 39 29 40 30 41 31 42 32 43 33 44 34 45 40 50
REMARK SMILES IDX 41 51 42 52 43 53 44 54
REMARK H PARENT 6 16 16 27 10 29 26 37 33 46 33 47 34 48 34 49 44 55
ROOT
ATOM      1  N   UNL     1       4.982   2.514  12.103  1.00  0.00    -0.326 N 
ATOM      2  C   UNL     1       4.717   3.977  13.927  1.00  0.00     0.014 C 
ATOM      3  C   UNL     1       4.059   3.529  12.619  1.00  0.00     0.091 C 
ATOM      4  C   UNL     1       6.200   3.888  13.604  1.00  0.00     0.041 C 
ATOM      5  C   UNL     1       6.241   2.526  12.888  1.00  0.00     0.175 C 
ATOM      6  C   UNL     1       2.620   3.113  12.919  1.00  0.00     0.059 C 
ATOM      7  C   UNL     1       4.137   5.296  14.401  1.00  0.00     0.008 C 
ATOM      8  C   UNL     1       1.974   3.904  14.078  1.00  0.00     0.143 C 
ATOM      9  C   UNL     1       2.602   5.303  14.245  1.00  0.00     0.034 C 
ENDROOT
BRANCH   1  10
ATOM     10  C   UNL     1       4.921   1.769  10.937  1.00  0.00     0.246 C 
ATOM     11  O   UNL     1       4.293   0.704  10.937  1.00  0.00    -0.272 OA
BRANCH  10  12
ATOM     12  C   UNL     1       5.605   2.306   9.647  1.00  0.00     0.174 C 
BRANCH  12  13
ATOM     13  N   UNL     1       4.726   3.266   8.979  1.00  0.00    -0.342 N 
ATOM     14  C   UNL     1       4.765   4.630   9.160  1.00  0.00     0.249 C 
ATOM     15  O   UNL     1       5.568   5.200   9.887  1.00  0.00    -0.272 OA
ATOM     16  H   UNL     1       3.911   2.933   8.470  1.00  0.00     0.164 HD
BRANCH  14  17
ATOM     17  C   UNL     1       3.697   5.371   8.327  1.00  0.00     0.207 C 
BRANCH  17  18
ATOM     18  C   UNL     1       4.325   6.550   7.577  1.00  0.00     0.077 C 
BRANCH  18  19
ATOM     19  C   UNL     1       5.017   6.104   6.308  1.00  0.00    -0.043 A 
ATOM     20  C   UNL     1       5.007   4.828   4.245  1.00  0.00     0.083 A 
ATOM     21  C   UNL     1       4.349   5.278   5.391  1.00  0.00     0.028 A 
ATOM     22  C   UNL     1       6.332   5.197   4.010  1.00  0.00     0.134 A 
ATOM     23  C   UNL     1       7.004   6.015   4.910  1.00  0.00     0.048 A 
ATOM     24  C   UNL     1       6.349   6.466   6.059  1.00  0.00     0.008 A 
ATOM     25  Cl  UNL     1       4.170   3.813   3.130  1.00  0.00    -0.080 Cl
BRANCH  22  26
ATOM     26  O   UNL     1       7.021   4.772   2.907  1.00  0.00    -0.506 OA
ATOM     27  H   UNL     1       7.760   4.226   3.232  1.00  0.00     0.293 HD
ENDBRANCH  22  26
ENDBRANCH  18  19
ENDBRANCH  17  18
BRANCH  17  28
ATOM     28  O   UNL     1       2.631   5.852   9.163  1.00  0.00    -0.383 OA
ATOM     29  H   UNL     1       2.193   5.052   9.532  1.00  0.00     0.211 HD
ENDBRANCH  17  28
ENDBRANCH  14  17
ENDBRANCH  12  13
BRANCH  12  30
ATOM     30  C   UNL     1       6.070   1.169   8.697  1.00  0.00     0.018 C 
ATOM     31  C   UNL     1       7.599   1.182   8.539  1.00  0.00     0.010 C 
BRANCH  30  32
ATOM     32  C   UNL     1       5.391   1.204   7.306  1.00  0.00     0.002 C 
ATOM     33  C   UNL     1       5.119  -0.157   6.680  1.00  0.00     0.004 C 
ENDBRANCH  30  32
ENDBRANCH  12  30
ENDBRANCH  10  12
ENDBRANCH   1  10
BRANCH   5  34
ATOM     34  C   UNL     1       6.271   1.348  13.898  1.00  0.00     0.242 C 
ATOM     35  O   UNL     1       5.285   0.646  14.120  1.00  0.00    -0.273 OA
ATOM     36  N   UNL     1       7.463   1.180  14.567  1.00  0.00    -0.354 N 
ATOM     37  H   UNL     1       8.205   1.867  14.428  1.00  0.00     0.163 HD
BRANCH  36  38
ATOM     38  C   UNL     1       7.737   0.012  15.378  1.00  0.00     0.116 C 
BRANCH  38  39
ATOM     39  C   UNL     1       8.176   0.443  16.775  1.00  0.00     0.023 C 
BRANCH  39  40
ATOM     40  C   UNL     1       7.210  -0.024  17.859  1.00  0.00     0.026 C 
BRANCH  40  41
ATOM     41  C   UNL     1       6.021  -0.762  17.245  1.00  0.00     0.146 C 
BRANCH  41  42
ATOM     42  N   UNL     1       4.840  -0.572  18.077  1.00  0.00    -0.254 NA
ATOM     43  C   UNL     1       3.992   0.337  17.775  1.00  0.00     0.185 C 
ATOM     44  N   UNL     1       3.989   1.214  16.754  1.00  0.00    -0.370 N 
ATOM     45  N   UNL     1       2.912   0.499  18.558  1.00  0.00    -0.370 N 
ATOM     46  H   UNL     1       3.396   2.025  16.777  1.00  0.00     0.159 HD
ATOM     47  H   UNL     1       4.727   1.222  16.057  1.00  0.00     0.159 HD
ATOM     48  H   UNL     1       2.832  -0.129  19.347  1.00  0.00     0.159 HD
ATOM     49  H   UNL     1       2.100   1.012  18.265  1.00  0.00     0.159 HD
ENDBRANCH  41  42
ENDBRANCH  40  41
ENDBRANCH  39  40
ENDBRANCH  38  39
ENDBRANCH  36  38
ENDBRANCH   5  34
BRANCH   8  50
ATOM     50  O   UNL     1       2.126   3.189  15.304  1.00  0.00    -0.245 OA
BRANCH  50  51
ATOM     51  S   UNL     1       0.862   3.057  16.319  1.00  0.00     0.397 S 
ATOM     52  O   UNL     1       0.782   4.276  17.092  1.00  0.00    -0.169 OA
ATOM     53  O   UNL     1       0.881   1.756  16.953  1.00  0.00    -0.169 OA
BRANCH  51  54
ATOM     54  O   UNL     1      -0.386   3.097  15.307  1.00  0.00    -0.264 OA
ATOM     55  H   UNL     1      -1.203   2.995  15.836  1.00  0.00     0.236 HD
ENDBRANCH  51  54
ENDBRANCH  50  51
ENDBRANCH   8  50
TORSDOF 19
ENDMDL
MODEL 11
REMARK VINA RESULT:    -7.174      6.427     10.495
REMARK INTER + INTRA:         -16.144
REMARK INTER:                 -14.312
REMARK INTRA:                  -1.832
REMARK UNBOUND:                -1.631
REMARK SMILES CC[C@@H](C)[C@@H](NC(=O)[C@@H](O)Cc1ccc(O)c(Cl)c1)C(=O)N1[C@H](C(=O)NCCCCN=C(N)N)C[C@H]2CC[C@H](OS(=O)(=O)O)C[C@@H]21
REMARK SMILES IDX 22 1 36 2 46 3 35 4 23 5 45 6 37 7 39 8 38 9 20 10 21 11
REMARK SMILES IDX 5 12 6 13 7 14 8 15 9 17 11 18 12 19 17 20 19 21 15 22 14 23
REMARK SMILES IDX 13 24 18 25 16 26 10 28 3 30 4 31 2 32 1 33 24 34 25 35
REMARK SMILES IDX 26 36 27 38 28 39 29 40 30 41 31 42 32 43 33 44 34 45 40 50
REMARK SMILES IDX 41 51 42 52 43 53 44 54
REMARK H PARENT 6 16 16 27 10 29 26 37 33 46 33 47 34 48 34 49 44 55
ROOT
ATOM      1  N   UNL     1       5.065   2.626  11.103  1.00  0.00    -0.326 N 
ATOM      2  C   UNL     1       6.429   2.904  13.001  1.00  0.00     0.014 C 
ATOM      3  C   UNL     1       6.401   3.095  11.482  1.00  0.00     0.091 C 
ATOM      4  C   UNL     1       5.598   1.645  13.196  1.00  0.00     0.041 C 
ATOM      5  C   UNL     1       4.419   1.949  12.254  1.00  0.00     0.175 C 
ATOM      6  C   UNL     1       6.776   4.542  11.170  1.00  0.00     0.059 C 
ATOM      7  C   UNL     1       7.851   2.945  13.527  1.00  0.00     0.008 C 
ATOM      8  C   UNL     1       7.767   5.159  12.181  1.00  0.00     0.143 C 
ATOM      9  C   UNL     1       8.645   4.087  12.859  1.00  0.00     0.034 C 
ENDROOT
BRANCH   1  10
ATOM     10  C   UNL     1       4.475   2.542   9.853  1.00  0.00     0.246 C 
ATOM     11  O   UNL     1       3.278   2.821   9.733  1.00  0.00    -0.272 OA
BRANCH  10  12
ATOM     12  C   UNL     1       5.340   2.142   8.622  1.00  0.00     0.174 C 
BRANCH  12  13
ATOM     13  N   UNL     1       4.742   2.674   7.398  1.00  0.00    -0.342 N 
ATOM     14  C   UNL     1       4.717   4.005   7.045  1.00  0.00     0.249 C 
ATOM     15  O   UNL     1       5.223   4.897   7.714  1.00  0.00    -0.272 OA
ATOM     16  H   UNL     1       4.150   2.077   6.826  1.00  0.00     0.164 HD
BRANCH  14  17
ATOM     17  C   UNL     1       3.997   4.251   5.702  1.00  0.00     0.207 C 
BRANCH  17  18
ATOM     18  C   UNL     1       4.631   3.406   4.592  1.00  0.00     0.077 C 
BRANCH  18  19
ATOM     19  C   UNL     1       4.517   4.076   3.241  1.00  0.00    -0.043 A 
ATOM     20  C   UNL     1       3.192   4.691   1.305  1.00  0.00     0.083 A 
ATOM     21  C   UNL     1       3.283   4.116   2.573  1.00  0.00     0.028 A 
ATOM     22  C   UNL     1       4.328   5.227   0.698  1.00  0.00     0.134 A 
ATOM     23  C   UNL     1       5.556   5.194   1.348  1.00  0.00     0.048 A 
ATOM     24  C   UNL     1       5.651   4.617   2.617  1.00  0.00     0.008 A 
ATOM     25  Cl  UNL     1       1.668   4.731   0.499  1.00  0.00    -0.080 Cl
BRANCH  22  26
ATOM     26  O   UNL     1       4.290   5.791  -0.549  1.00  0.00    -0.506 OA
ATOM     27  H   UNL     1       4.304   5.057  -1.190  1.00  0.00     0.293 HD
ENDBRANCH  22  26
ENDBRANCH  18  19
ENDBRANCH  17  18
BRANCH  17  28
ATOM     28  O   UNL     1       4.050   5.639   5.334  1.00  0.00    -0.383 OA
ATOM     29  H   UNL     1       4.949   5.952   5.582  1.00  0.00     0.211 HD
ENDBRANCH  17  28
ENDBRANCH  14  17
ENDBRANCH  12  13
BRANCH  12  30
ATOM     30  C   UNL     1       5.595   0.613   8.540  1.00  0.00     0.018 C 
ATOM     31  C   UNL     1       7.050   0.281   8.907  1.00  0.00     0.010 C 
BRANCH  30  32
ATOM     32  C   UNL     1       5.239  -0.004   7.165  1.00  0.00     0.002 C 
ATOM     33  C   UNL     1       6.282  -0.952   6.588  1.00  0.00     0.004 C 
ENDBRANCH  30  32
ENDBRANCH  12  30
ENDBRANCH  10  12
ENDBRANCH   1  10
BRANCH   5  34
ATOM     34  C   UNL     1       3.376   2.882  12.926  1.00  0.00     0.242 C 
ATOM     35  O   UNL     1       3.154   4.021  12.518  1.00  0.00    -0.273 OA
ATOM     36  N   UNL     1       2.758   2.362  14.041  1.00  0.00    -0.354 N 
ATOM     37  H   UNL     1       3.071   1.459  14.401  1.00  0.00     0.163 HD
BRANCH  36  38
ATOM     38  C   UNL     1       1.614   3.001  14.660  1.00  0.00     0.116 C 
BRANCH  38  39
ATOM     39  C   UNL     1       1.572   2.659  16.147  1.00  0.00     0.023 C 
BRANCH  39  40
ATOM     40  C   UNL     1       2.726   3.285  16.922  1.00  0.00     0.026 C 
BRANCH  40  41
ATOM     41  C   UNL     1       2.506   4.787  17.104  1.00  0.00     0.146 C 
BRANCH  41  42
ATOM     42  N   UNL     1       1.134   5.036  17.527  1.00  0.00    -0.254 NA
ATOM     43  C   UNL     1       0.380   5.789  16.818  1.00  0.00     0.185 C 
ATOM     44  N   UNL     1       0.641   6.441  15.670  1.00  0.00    -0.370 N 
ATOM     45  N   UNL     1      -0.880   6.010  17.227  1.00  0.00    -0.370 N 
ATOM     46  H   UNL     1       0.042   7.186  15.356  1.00  0.00     0.159 HD
ATOM     47  H   UNL     1       1.544   6.373  15.212  1.00  0.00     0.159 HD
ATOM     48  H   UNL     1      -1.161   5.548  18.082  1.00  0.00     0.159 HD
ATOM     49  H   UNL     1      -1.591   6.382  16.623  1.00  0.00     0.159 HD
ENDBRANCH  41  42
ENDBRANCH  40  41
ENDBRANCH  39  40
ENDBRANCH  38  39
ENDBRANCH  36  38
ENDBRANCH   5  34
BRANCH   8  50
ATOM     50  O   UNL     1       7.056   5.870  13.194  1.00  0.00    -0.245 OA
BRANCH  50  51
ATOM     51  S   UNL     1       7.258   7.477  13.339  1.00  0.00     0.397 S 
ATOM     52  O   UNL     1       8.652   7.727  13.627  1.00  0.00    -0.169 OA
ATOM     53  O   UNL     1       6.202   8.027  14.164  1.00  0.00    -0.169 OA
BRANCH  51  54
ATOM     54  O   UNL     1       7.024   7.983  11.831  1.00  0.00    -0.264 OA
ATOM     55  H   UNL     1       6.312   8.654  11.849  1.00  0.00     0.236 HD
ENDBRANCH  51  54
ENDBRANCH  50  51
ENDBRANCH   8  50
TORSDOF 19
ENDMDL
MODEL 12
REMARK VINA RESULT:    -7.167     14.463     17.850
REMARK INTER + INTRA:         -16.131
REMARK INTER:                 -12.531
REMARK INTRA:                  -3.600
REMARK UNBOUND:                -1.631
REMARK SMILES CC[C@@H](C)[C@@H](NC(=O)[C@@H](O)Cc1ccc(O)c(Cl)c1)C(=O)N1[C@H](C(=O)NCCCCN=C(N)N)C[C@H]2CC[C@H](OS(=O)(=O)O)C[C@@H]21
REMARK SMILES IDX 22 1 36 2 46 3 35 4 23 5 45 6 37 7 39 8 38 9 20 10 21 11
REMARK SMILES IDX 5 12 6 13 7 14 8 15 9 17 11 18 12 19 17 20 19 21 15 22 14 23
REMARK SMILES IDX 13 24 18 25 16 26 10 28 3 30 4 31 2 32 1 33 24 34 25 35
REMARK SMILES IDX 26 36 27 38 28 39 29 40 30 41 31 42 32 43 33 44 34 45 40 50
REMARK SMILES IDX 41 51 42 52 43 53 44 54
REMARK H PARENT 6 16 16 27 10 29 26 37 33 46 33 47 34 48 34 49 44 55
ROOT
ATOM      1  N   UNL     1      -0.351  -5.775  11.633  1.00  0.00    -0.326 N 
ATOM      2  C   UNL     1      -2.360  -5.664  12.855  1.00  0.00     0.014 C 
ATOM      3  C   UNL     1      -1.801  -5.706  11.430  1.00  0.00     0.091 C 
ATOM      4  C   UNL     1      -1.305  -4.864  13.605  1.00  0.00     0.041 C 
ATOM      5  C   UNL     1      -0.025  -5.523  13.059  1.00  0.00     0.175 C 
ATOM      6  C   UNL     1      -2.482  -6.849  10.678  1.00  0.00     0.059 C 
ATOM      7  C   UNL     1      -3.798  -5.185  12.859  1.00  0.00     0.008 C 
ATOM      8  C   UNL     1      -3.934  -7.112  11.131  1.00  0.00     0.143 C 
ATOM      9  C   UNL     1      -4.596  -5.848  11.717  1.00  0.00     0.034 C 
ENDROOT
BRANCH   1  10
ATOM     10  C   UNL     1       0.675  -5.816  10.704  1.00  0.00     0.246 C 
ATOM     11  O   UNL     1       1.803  -6.164  11.068  1.00  0.00    -0.272 OA
BRANCH  10  12
ATOM     12  C   UNL     1       0.377  -5.465   9.217  1.00  0.00     0.174 C 
BRANCH  12  13
ATOM     13  N   UNL     1       1.006  -6.449   8.337  1.00  0.00    -0.342 N 
ATOM     14  C   UNL     1       0.359  -7.514   7.750  1.00  0.00     0.249 C 
ATOM     15  O   UNL     1      -0.838  -7.740   7.881  1.00  0.00    -0.272 OA
ATOM     16  H   UNL     1       2.020  -6.482   8.262  1.00  0.00     0.164 HD
BRANCH  14  17
ATOM     17  C   UNL     1       1.301  -8.383   6.890  1.00  0.00     0.207 C 
BRANCH  17  18
ATOM     18  C   UNL     1       1.237  -7.949   5.422  1.00  0.00     0.077 C 
BRANCH  18  19
ATOM     19  C   UNL     1       2.346  -6.981   5.073  1.00  0.00    -0.043 A 
ATOM     20  C   UNL     1       4.710  -6.480   4.863  1.00  0.00     0.083 A 
ATOM     21  C   UNL     1       3.688  -7.389   5.137  1.00  0.00     0.028 A 
ATOM     22  C   UNL     1       4.401  -5.162   4.526  1.00  0.00     0.134 A 
ATOM     23  C   UNL     1       3.076  -4.745   4.459  1.00  0.00     0.048 A 
ATOM     24  C   UNL     1       2.051  -5.652   4.734  1.00  0.00     0.008 A 
ATOM     25  Cl  UNL     1       6.352  -6.999   4.947  1.00  0.00    -0.080 Cl
BRANCH  22  26
ATOM     26  O   UNL     1       5.369  -4.232   4.259  1.00  0.00    -0.506 OA
ATOM     27  H   UNL     1       6.137  -4.460   4.815  1.00  0.00     0.293 HD
ENDBRANCH  22  26
ENDBRANCH  18  19
ENDBRANCH  17  18
BRANCH  17  28
ATOM     28  O   UNL     1       0.957  -9.774   6.991  1.00  0.00    -0.383 OA
ATOM     29  H   UNL     1       0.025  -9.802   7.305  1.00  0.00     0.211 HD
ENDBRANCH  17  28
ENDBRANCH  14  17
ENDBRANCH  12  13
BRANCH  12  30
ATOM     30  C   UNL     1       0.770  -4.008   8.854  1.00  0.00     0.018 C 
ATOM     31  C   UNL     1       0.106  -3.008   9.813  1.00  0.00     0.010 C 
BRANCH  30  32
ATOM     32  C   UNL     1       0.456  -3.627   7.386  1.00  0.00     0.002 C 
ATOM     33  C   UNL     1      -1.014  -3.704   6.994  1.00  0.00     0.004 C 
ENDBRANCH  30  32
ENDBRANCH  12  30
ENDBRANCH  10  12
ENDBRANCH   1  10
BRANCH   5  34
ATOM     34  C   UNL     1       0.293  -6.852  13.794  1.00  0.00     0.242 C 
ATOM     35  O   UNL     1       0.053  -7.952  13.297  1.00  0.00    -0.273 OA
ATOM     36  N   UNL     1       0.812  -6.711  15.061  1.00  0.00    -0.354 N 
ATOM     37  H   UNL     1       0.877  -5.775  15.464  1.00  0.00     0.163 HD
BRANCH  36  38
ATOM     38  C   UNL     1       1.363  -7.828  15.800  1.00  0.00     0.116 C 
BRANCH  38  39
ATOM     39  C   UNL     1       0.770  -7.863  17.206  1.00  0.00     0.023 C 
BRANCH  39  40
ATOM     40  C   UNL     1      -0.075  -9.108  17.452  1.00  0.00     0.026 C 
BRANCH  40  41
ATOM     41  C   UNL     1      -1.496  -8.725  17.865  1.00  0.00     0.146 C 
BRANCH  41  42
ATOM     42  N   UNL     1      -2.413  -8.965  16.759  1.00  0.00    -0.254 NA
ATOM     43  C   UNL     1      -2.882  -7.974  16.099  1.00  0.00     0.185 C 
ATOM     44  N   UNL     1      -2.668  -6.654  16.250  1.00  0.00    -0.370 N 
ATOM     45  N   UNL     1      -3.729  -8.216  15.085  1.00  0.00    -0.370 N 
ATOM     46  H   UNL     1      -3.285  -5.982  15.827  1.00  0.00     0.159 HD
ATOM     47  H   UNL     1      -2.041  -6.294  16.964  1.00  0.00     0.159 HD
ATOM     48  H   UNL     1      -3.938  -9.187  14.897  1.00  0.00     0.159 HD
ATOM     49  H   UNL     1      -3.948  -7.531  14.384  1.00  0.00     0.159 HD
ENDBRANCH  41  42
ENDBRANCH  40  41
ENDBRANCH  39  40
ENDBRANCH  38  39
ENDBRANCH  36  38
ENDBRANCH   5  34
BRANCH   8  50
ATOM     50  O   UNL     1      -3.960  -8.139  12.122  1.00  0.00    -0.245 OA
BRANCH  50  51
ATOM     51  S   UNL     1      -4.603  -9.589  11.759  1.00  0.00     0.397 S 
ATOM     52  O   UNL     1      -4.929 -10.256  13.000  1.00  0.00    -0.169 OA
ATOM     53  O   UNL     1      -3.804 -10.233  10.738  1.00  0.00    -0.169 OA
BRANCH  51  54
ATOM     54  O   UNL     1      -6.011  -9.176  11.101  1.00  0.00    -0.264 OA
ATOM     55  H   UNL     1      -6.722  -9.491  11.695  1.00  0.00     0.236 HD
ENDBRANCH  51  54
ENDBRANCH  50  51
ENDBRANCH   8  50
TORSDOF 19
ENDMDL
MODEL 13
REMARK VINA RESULT:    -7.149      8.443     12.041
REMARK INTER + INTRA:         -16.094
REMARK INTER:                 -13.858
REMARK INTRA:                  -2.236
REMARK UNBOUND:                -1.631
REMARK SMILES CC[C@@H](C)[C@@H](NC(=O)[C@@H](O)Cc1ccc(O)c(Cl)c1)C(=O)N1[C@H](C(=O)NCCCCN=C(N)N)C[C@H]2CC[C@H](OS(=O)(=O)O)C[C@@H]21
REMARK SMILES IDX 22 1 36 2 46 3 35 4 23 5 45 6 37 7 39 8 38 9 20 10 21 11
REMARK SMILES IDX 5 12 6 13 7 14 8 15 9 17 11 18 12 19 17 20 19 21 15 22 14 23
REMARK SMILES IDX 13 24 18 25 16 26 10 28 3 30 4 31 2 32 1 33 24 34 25 35
REMARK SMILES IDX 26 36 27 38 28 39 29 40 30 41 31 42 32 43 33 44 34 45 40 50
REMARK SMILES IDX 41 51 42 52 43 53 44 54
REMARK H PARENT 6 16 16 27 10 29 26 37 33 46 33 47 34 48 34 49 44 55
ROOT
ATOM      1  N   UNL     1       5.200   2.799  10.783  1.00  0.00    -0.326 N 
ATOM      2  C   UNL     1       6.358   4.798  10.329  1.00  0.00     0.014 C 
ATOM      3  C   UNL     1       5.666   3.610   9.654  1.00  0.00     0.091 C 
ATOM      4  C   UNL     1       6.971   4.167  11.570  1.00  0.00     0.041 C 
ATOM      5  C   UNL     1       5.789   3.303  12.048  1.00  0.00     0.175 C 
ATOM      6  C   UNL     1       4.627   4.151   8.673  1.00  0.00     0.059 C 
ATOM      7  C   UNL     1       7.253   5.532   9.350  1.00  0.00     0.008 C 
ATOM      8  C   UNL     1       5.018   5.502   8.036  1.00  0.00     0.143 C 
ATOM      9  C   UNL     1       6.547   5.699   7.988  1.00  0.00     0.034 C 
ENDROOT
BRANCH   1  10
ATOM     10  C   UNL     1       4.520   1.593  10.788  1.00  0.00     0.246 C 
ATOM     11  O   UNL     1       3.331   1.574  11.121  1.00  0.00    -0.272 OA
BRANCH  10  12
ATOM     12  C   UNL     1       5.254   0.298  10.336  1.00  0.00     0.174 C 
BRANCH  12  13
ATOM     13  N   UNL     1       4.863  -0.045   8.969  1.00  0.00    -0.342 N 
ATOM     14  C   UNL     1       5.644   0.149   7.851  1.00  0.00     0.249 C 
ATOM     15  O   UNL     1       6.778   0.610   7.883  1.00  0.00    -0.272 OA
ATOM     16  H   UNL     1       3.897  -0.290   8.768  1.00  0.00     0.164 HD
BRANCH  14  17
ATOM     17  C   UNL     1       4.944  -0.299   6.551  1.00  0.00     0.207 C 
BRANCH  17  18
ATOM     18  C   UNL     1       5.866  -1.208   5.732  1.00  0.00     0.077 C 
BRANCH  18  19
ATOM     19  C   UNL     1       5.416  -2.651   5.776  1.00  0.00    -0.043 A 
ATOM     20  C   UNL     1       5.563  -4.926   4.945  1.00  0.00     0.083 A 
ATOM     21  C   UNL     1       6.014  -3.605   4.937  1.00  0.00     0.028 A 
ATOM     22  C   UNL     1       4.515  -5.301   5.787  1.00  0.00     0.134 A 
ATOM     23  C   UNL     1       3.915  -4.366   6.623  1.00  0.00     0.048 A 
ATOM     24  C   UNL     1       4.362  -3.043   6.616  1.00  0.00     0.008 A 
ATOM     25  Cl  UNL     1       6.309  -6.083   3.908  1.00  0.00    -0.080 Cl
BRANCH  22  26
ATOM     26  O   UNL     1       4.032  -6.581   5.822  1.00  0.00    -0.506 OA
ATOM     27  H   UNL     1       4.643  -7.126   5.293  1.00  0.00     0.293 HD
ENDBRANCH  22  26
ENDBRANCH  18  19
ENDBRANCH  17  18
BRANCH  17  28
ATOM     28  O   UNL     1       4.560   0.833   5.754  1.00  0.00    -0.383 OA
ATOM     29  H   UNL     1       5.337   1.436   5.746  1.00  0.00     0.211 HD
ENDBRANCH  17  28
ENDBRANCH  14  17
ENDBRANCH  12  13
BRANCH  12  30
ATOM     30  C   UNL     1       5.052  -0.883  11.324  1.00  0.00     0.018 C 
ATOM     31  C   UNL     1       6.304  -1.091  12.189  1.00  0.00     0.010 C 
BRANCH  30  32
ATOM     32  C   UNL     1       4.656  -2.210  10.633  1.00  0.00     0.002 C 
ATOM     33  C   UNL     1       5.130  -3.476  11.335  1.00  0.00     0.004 C 
ENDBRANCH  30  32
ENDBRANCH  12  30
ENDBRANCH  10  12
ENDBRANCH   1  10
BRANCH   5  34
ATOM     34  C   UNL     1       4.753   4.141  12.843  1.00  0.00     0.242 C 
ATOM     35  O   UNL     1       5.074   5.124  13.510  1.00  0.00    -0.273 OA
ATOM     36  N   UNL     1       3.458   3.674  12.791  1.00  0.00    -0.354 N 
ATOM     37  H   UNL     1       3.275   2.787  12.321  1.00  0.00     0.163 HD
BRANCH  36  38
ATOM     38  C   UNL     1       2.338   4.444  13.290  1.00  0.00     0.116 C 
BRANCH  38  39
ATOM     39  C   UNL     1       1.556   3.619  14.310  1.00  0.00     0.023 C 
BRANCH  39  40
ATOM     40  C   UNL     1       2.438   3.105  15.443  1.00  0.00     0.026 C 
BRANCH  40  41
ATOM     41  C   UNL     1       1.746   3.287  16.794  1.00  0.00     0.146 C 
BRANCH  41  42
ATOM     42  N   UNL     1       0.540   4.086  16.626  1.00  0.00    -0.254 NA
ATOM     43  C   UNL     1       0.488   5.266  17.120  1.00  0.00     0.185 C 
ATOM     44  N   UNL     1       1.411   5.955  17.815  1.00  0.00    -0.370 N 
ATOM     45  N   UNL     1      -0.635   5.985  16.958  1.00  0.00    -0.370 N 
ATOM     46  H   UNL     1       1.152   6.767  18.348  1.00  0.00     0.159 HD
ATOM     47  H   UNL     1       2.327   5.564  18.017  1.00  0.00     0.159 HD
ATOM     48  H   UNL     1      -1.379   5.542  16.436  1.00  0.00     0.159 HD
ATOM     49  H   UNL     1      -0.670   6.979  17.100  1.00  0.00     0.159 HD
ENDBRANCH  41  42
ENDBRANCH  40  41
ENDBRANCH  39  40
ENDBRANCH  38  39
ENDBRANCH  36  38
ENDBRANCH   5  34
BRANCH   8  50
ATOM     50  O   UNL     1       4.446   6.578   8.780  1.00  0.00    -0.245 OA
BRANCH  50  51
ATOM     51  S   UNL     1       3.290   7.499   8.100  1.00  0.00     0.397 S 
ATOM     52  O   UNL     1       3.747   8.870   8.111  1.00  0.00    -0.169 OA
ATOM     53  O   UNL     1       1.996   7.125   8.633  1.00  0.00    -0.169 OA
BRANCH  51  54
ATOM     54  O   UNL     1       3.347   7.029   6.564  1.00  0.00    -0.264 OA
ATOM     55  H   UNL     1       2.840   7.678   6.034  1.00  0.00     0.236 HD
ENDBRANCH  51  54
ENDBRANCH  50  51
ENDBRANCH   8  50
TORSDOF 19
ENDMDL
MODEL 14
REMARK VINA RESULT:    -7.090      6.888     10.259
REMARK INTER + INTRA:         -15.973
REMARK INTER:                 -12.928
REMARK INTRA:                  -3.046
REMARK UNBOUND:                -1.631
REMARK SMILES CC[C@@H](C)[C@@H](NC(=O)[C@@H](O)Cc1ccc(O)c(Cl)c1)C(=O)N1[C@H](C(=O)NCCCCN=C(N)N)C[C@H]2CC[C@H](OS(=O)(=O)O)C[C@@H]21
REMARK SMILES IDX 22 1 36 2 46 3 35 4 23 5 45 6 37 7 39 8 38 9 20 10 21 11
REMARK SMILES IDX 5 12 6 13 7 14 8 15 9 17 11 18 12 19 17 20 19 21 15 22 14 23
REMARK SMILES IDX 13 24 18 25 16 26 10 28 3 30 4 31 2 32 1 33 24 34 25 35
REMARK SMILES IDX 26 36 27 38 28 39 29 40 30 41 31 42 32 43 33 44 34 45 40 50
REMARK SMILES IDX 41 51 42 52 43 53 44 54
REMARK H PARENT 6 16 16 27 10 29 26 37 33 46 33 47 34 48 34 49 44 55
ROOT
ATOM      1  N   UNL     1       5.039   2.787  10.721  1.00  0.00    -0.326 N 
ATOM      2  C   UNL     1       3.128   3.357  11.972  1.00  0.00     0.014 C 
ATOM      3  C   UNL     1       4.541   2.779  12.099  1.00  0.00     0.091 C 
ATOM      4  C   UNL     1       2.669   2.826  10.623  1.00  0.00     0.041 C 
ATOM      5  C   UNL     1       3.932   3.091   9.782  1.00  0.00     0.175 C 
ATOM      6  C   UNL     1       5.301   3.588  13.149  1.00  0.00     0.059 C 
ATOM      7  C   UNL     1       2.305   3.055  13.209  1.00  0.00     0.008 C 
ATOM      8  C   UNL     1       4.403   4.143  14.276  1.00  0.00     0.143 C 
ATOM      9  C   UNL     1       3.140   3.283  14.487  1.00  0.00     0.034 C 
ENDROOT
BRANCH   1  10
ATOM     10  C   UNL     1       6.255   2.360  10.215  1.00  0.00     0.246 C 
ATOM     11  O   UNL     1       7.144   3.193  10.005  1.00  0.00    -0.272 OA
BRANCH  10  12
ATOM     12  C   UNL     1       6.492   0.843   9.962  1.00  0.00     0.174 C 
BRANCH  12  13
ATOM     13  N   UNL     1       5.737   0.409   8.787  1.00  0.00    -0.342 N 
ATOM     14  C   UNL     1       6.178  -0.505   7.858  1.00  0.00     0.249 C 
ATOM     15  O   UNL     1       7.255  -1.085   7.929  1.00  0.00    -0.272 OA
ATOM     16  H   UNL     1       4.899   0.915   8.512  1.00  0.00     0.164 HD
BRANCH  14  17
ATOM     17  C   UNL     1       5.159  -0.740   6.723  1.00  0.00     0.207 C 
BRANCH  17  18
ATOM     18  C   UNL     1       5.806  -1.523   5.575  1.00  0.00     0.077 C 
BRANCH  18  19
ATOM     19  C   UNL     1       5.373  -2.971   5.569  1.00  0.00    -0.043 A 
ATOM     20  C   UNL     1       5.589  -5.227   4.702  1.00  0.00     0.083 A 
ATOM     21  C   UNL     1       6.023  -3.901   4.742  1.00  0.00     0.028 A 
ATOM     22  C   UNL     1       4.506  -5.631   5.483  1.00  0.00     0.134 A 
ATOM     23  C   UNL     1       3.853  -4.721   6.306  1.00  0.00     0.048 A 
ATOM     24  C   UNL     1       4.284  -3.393   6.347  1.00  0.00     0.008 A 
ATOM     25  Cl  UNL     1       6.400  -6.354   3.679  1.00  0.00    -0.080 Cl
BRANCH  22  26
ATOM     26  O   UNL     1       4.038  -6.917   5.469  1.00  0.00    -0.506 OA
ATOM     27  H   UNL     1       4.658  -7.446   6.004  1.00  0.00     0.293 HD
ENDBRANCH  22  26
ENDBRANCH  18  19
ENDBRANCH  17  18
BRANCH  17  28
ATOM     28  O   UNL     1       4.647   0.505   6.221  1.00  0.00    -0.383 OA
ATOM     29  H   UNL     1       3.723   0.324   5.935  1.00  0.00     0.211 HD
ENDBRANCH  17  28
ENDBRANCH  14  17
ENDBRANCH  12  13
BRANCH  12  30
ATOM     30  C   UNL     1       6.192  -0.027  11.213  1.00  0.00     0.018 C 
ATOM     31  C   UNL     1       7.357  -0.987  11.502  1.00  0.00     0.010 C 
BRANCH  30  32
ATOM     32  C   UNL     1       4.863  -0.815  11.118  1.00  0.00     0.002 C 
ATOM     33  C   UNL     1       5.011  -2.323  10.960  1.00  0.00     0.004 C 
ENDBRANCH  30  32
ENDBRANCH  12  30
ENDBRANCH  10  12
ENDBRANCH   1  10
BRANCH   5  34
ATOM     34  C   UNL     1       4.003   4.567   9.307  1.00  0.00     0.242 C 
ATOM     35  O   UNL     1       3.001   5.274   9.205  1.00  0.00    -0.273 OA
ATOM     36  N   UNL     1       5.259   5.010   8.957  1.00  0.00    -0.354 N 
ATOM     37  H   UNL     1       6.031   4.342   8.948  1.00  0.00     0.163 HD
BRANCH  36  38
ATOM     38  C   UNL     1       5.543   6.407   8.701  1.00  0.00     0.116 C 
BRANCH  38  39
ATOM     39  C   UNL     1       6.363   6.543   7.420  1.00  0.00     0.023 C 
BRANCH  39  40
ATOM     40  C   UNL     1       6.211   5.336   6.500  1.00  0.00     0.026 C 
BRANCH  40  41
ATOM     41  C   UNL     1       5.156   5.601   5.427  1.00  0.00     0.146 C 
BRANCH  41  42
ATOM     42  N   UNL     1       4.739   4.342   4.824  1.00  0.00    -0.254 NA
ATOM     43  C   UNL     1       3.640   3.798   5.192  1.00  0.00     0.185 C 
ATOM     44  N   UNL     1       2.732   4.206   6.097  1.00  0.00    -0.370 N 
ATOM     45  N   UNL     1       3.275   2.635   4.627  1.00  0.00    -0.370 N 
ATOM     46  H   UNL     1       2.046   3.566   6.460  1.00  0.00     0.159 HD
ATOM     47  H   UNL     1       2.844   5.075   6.610  1.00  0.00     0.159 HD
ATOM     48  H   UNL     1       3.901   2.261   3.926  1.00  0.00     0.159 HD
ATOM     49  H   UNL     1       2.339   2.274   4.681  1.00  0.00     0.159 HD
ENDBRANCH  41  42
ENDBRANCH  40  41
ENDBRANCH  39  40
ENDBRANCH  38  39
ENDBRANCH  36  38
ENDBRANCH   5  34
BRANCH   8  50
ATOM     50  O   UNL     1       3.997   5.477  13.967  1.00  0.00    -0.245 OA
BRANCH  50  51
ATOM     51  S   UNL     1       3.441   6.442  15.153  1.00  0.00     0.397 S 
ATOM     52  O   UNL     1       4.131   6.092  16.373  1.00  0.00    -0.169 OA
ATOM     53  O   UNL     1       1.996   6.507  15.089  1.00  0.00    -0.169 OA
BRANCH  51  54
ATOM     54  O   UNL     1       4.021   7.877  14.717  1.00  0.00    -0.264 OA
ATOM     55  H   UNL     1       3.624   8.550  15.306  1.00  0.00     0.236 HD
ENDBRANCH  51  54
ENDBRANCH  50  51
ENDBRANCH   8  50
TORSDOF 19
ENDMDL
MODEL 15
REMARK VINA RESULT:    -7.074     15.278     18.634
REMARK INTER + INTRA:         -15.942
REMARK INTER:                 -13.170
REMARK INTRA:                  -2.771
REMARK UNBOUND:                -1.631
REMARK SMILES CC[C@@H](C)[C@@H](NC(=O)[C@@H](O)Cc1ccc(O)c(Cl)c1)C(=O)N1[C@H](C(=O)NCCCCN=C(N)N)C[C@H]2CC[C@H](OS(=O)(=O)O)C[C@@H]21
REMARK SMILES IDX 22 1 36 2 46 3 35 4 23 5 45 6 37 7 39 8 38 9 20 10 21 11
REMARK SMILES IDX 5 12 6 13 7 14 8 15 9 17 11 18 12 19 17 20 19 21 15 22 14 23
REMARK SMILES IDX 13 24 18 25 16 26 10 28 3 30 4 31 2 32 1 33 24 34 25 35
REMARK SMILES IDX 26 36 27 38 28 39 29 40 30 41 31 42 32 43 33 44 34 45 40 50
REMARK SMILES IDX 41 51 42 52 43 53 44 54
REMARK H PARENT 6 16 16 27 10 29 26 37 33 46 33 47 34 48 34 49 44 55
ROOT
ATOM      1  N   UNL     1      -2.589  -6.722  10.822  1.00  0.00    -0.326 N 
ATOM      2  C   UNL     1      -4.837  -7.150  11.373  1.00  0.00     0.014 C 
ATOM      3  C   UNL     1      -3.774  -7.410  10.302  1.00  0.00     0.091 C 
ATOM      4  C   UNL     1      -4.489  -5.751  11.857  1.00  0.00     0.041 C 
ATOM      5  C   UNL     1      -2.960  -5.879  11.984  1.00  0.00     0.175 C 
ATOM      6  C   UNL     1      -3.689  -8.916  10.061  1.00  0.00     0.059 C 
ATOM      7  C   UNL     1      -6.227  -7.427  10.835  1.00  0.00     0.008 C 
ATOM      8  C   UNL     1      -5.032  -9.653  10.257  1.00  0.00     0.143 C 
ATOM      9  C   UNL     1      -6.241  -8.730  10.008  1.00  0.00     0.034 C 
ENDROOT
BRANCH   1  10
ATOM     10  C   UNL     1      -1.324  -6.595  10.273  1.00  0.00     0.246 C 
ATOM     11  O   UNL     1      -0.344  -6.968  10.927  1.00  0.00    -0.272 OA
BRANCH  10  12
ATOM     12  C   UNL     1      -1.166  -6.027   8.833  1.00  0.00     0.174 C 
BRANCH  12  13
ATOM     13  N   UNL     1       0.075  -6.520   8.235  1.00  0.00    -0.342 N 
ATOM     14  C   UNL     1       0.234  -7.756   7.650  1.00  0.00     0.249 C 
ATOM     15  O   UNL     1      -0.666  -8.579   7.540  1.00  0.00    -0.272 OA
ATOM     16  H   UNL     1       0.943  -6.014   8.390  1.00  0.00     0.164 HD
BRANCH  14  17
ATOM     17  C   UNL     1       1.667  -7.987   7.127  1.00  0.00     0.207 C 
BRANCH  17  18
ATOM     18  C   UNL     1       1.738  -7.719   5.620  1.00  0.00     0.077 C 
BRANCH  18  19
ATOM     19  C   UNL     1       2.772  -6.669   5.284  1.00  0.00    -0.043 A 
ATOM     20  C   UNL     1       4.939  -6.067   4.374  1.00  0.00     0.083 A 
ATOM     21  C   UNL     1       3.965  -7.031   4.638  1.00  0.00     0.028 A 
ATOM     22  C   UNL     1       4.730  -4.741   4.753  1.00  0.00     0.134 A 
ATOM     23  C   UNL     1       3.554  -4.368   5.392  1.00  0.00     0.048 A 
ATOM     24  C   UNL     1       2.577  -5.331   5.660  1.00  0.00     0.008 A 
ATOM     25  Cl  UNL     1       6.398  -6.532   3.580  1.00  0.00    -0.080 Cl
BRANCH  22  26
ATOM     26  O   UNL     1       5.660  -3.763   4.524  1.00  0.00    -0.506 OA
ATOM     27  H   UNL     1       5.277  -3.161   3.860  1.00  0.00     0.293 HD
ENDBRANCH  22  26
ENDBRANCH  18  19
ENDBRANCH  17  18
BRANCH  17  28
ATOM     28  O   UNL     1       2.105  -9.329   7.393  1.00  0.00    -0.383 OA
ATOM     29  H   UNL     1       1.854  -9.859   6.603  1.00  0.00     0.211 HD
ENDBRANCH  17  28
ENDBRANCH  14  17
ENDBRANCH  12  13
BRANCH  12  30
ATOM     30  C   UNL     1      -1.274  -4.479   8.783  1.00  0.00     0.018 C 
ATOM     31  C   UNL     1      -0.733  -3.936   7.451  1.00  0.00     0.010 C 
BRANCH  30  32
ATOM     32  C   UNL     1      -0.577  -3.769   9.969  1.00  0.00     0.002 C 
ATOM     33  C   UNL     1      -1.045  -2.346  10.242  1.00  0.00     0.004 C 
ENDBRANCH  30  32
ENDBRANCH  12  30
ENDBRANCH  10  12
ENDBRANCH   1  10
BRANCH   5  34
ATOM     34  C   UNL     1      -2.553  -6.566  13.315  1.00  0.00     0.242 C 
ATOM     35  O   UNL     1      -2.345  -5.929  14.348  1.00  0.00    -0.273 OA
ATOM     36  N   UNL     1      -2.389  -7.931  13.243  1.00  0.00    -0.354 N 
ATOM     37  H   UNL     1      -2.458  -8.387  12.332  1.00  0.00     0.163 HD
BRANCH  36  38
ATOM     38  C   UNL     1      -2.224  -8.754  14.423  1.00  0.00     0.116 C 
BRANCH  38  39
ATOM     39  C   UNL     1      -0.783  -9.251  14.511  1.00  0.00     0.023 C 
BRANCH  39  40
ATOM     40  C   UNL     1      -0.295  -9.372  15.951  1.00  0.00     0.026 C 
BRANCH  40  41
ATOM     41  C   UNL     1      -0.449  -8.042  16.689  1.00  0.00     0.146 C 
BRANCH  41  42
ATOM     42  N   UNL     1      -1.234  -8.239  17.901  1.00  0.00    -0.254 NA
ATOM     43  C   UNL     1      -2.308  -7.565  18.076  1.00  0.00     0.185 C 
ATOM     44  N   UNL     1      -2.888  -6.641  17.289  1.00  0.00    -0.370 N 
ATOM     45  N   UNL     1      -3.015  -7.759  19.202  1.00  0.00    -0.370 N 
ATOM     46  H   UNL     1      -3.588  -6.020  17.658  1.00  0.00     0.159 HD
ATOM     47  H   UNL     1      -2.492  -6.381  16.391  1.00  0.00     0.159 HD
ATOM     48  H   UNL     1      -2.651  -8.447  19.847  1.00  0.00     0.159 HD
ATOM     49  H   UNL     1      -3.968  -7.456  19.305  1.00  0.00     0.159 HD
ENDBRANCH  41  42
ENDBRANCH  40  41
ENDBRANCH  39  40
ENDBRANCH  38  39
ENDBRANCH  36  38
ENDBRANCH   5  34
BRANCH   8  50
ATOM     50  O   UNL     1      -5.120 -10.167  11.586  1.00  0.00    -0.245 OA
BRANCH  50  51
ATOM     51  S   UNL     1      -4.470 -11.618  11.931  1.00  0.00     0.397 S 
ATOM     52  O   UNL     1      -3.198 -11.394  12.581  1.00  0.00    -0.169 OA
ATOM     53  O   UNL     1      -4.594 -12.491  10.783  1.00  0.00    -0.169 OA
BRANCH  51  54
ATOM     54  O   UNL     1      -5.457 -12.163  13.078  1.00  0.00    -0.264 OA
ATOM     55  H   UNL     1      -5.711 -11.403  13.639  1.00  0.00     0.236 HD
ENDBRANCH  51  54
ENDBRANCH  50  51
ENDBRANCH   8  50
TORSDOF 19
ENDMDL
MODEL 16
REMARK VINA RESULT:    -7.063      4.117      7.303
REMARK INTER + INTRA:         -15.920
REMARK INTER:                 -12.378
REMARK INTRA:                  -3.542
REMARK UNBOUND:                -1.631
REMARK SMILES CC[C@@H](C)[C@@H](NC(=O)[C@@H](O)Cc1ccc(O)c(Cl)c1)C(=O)N1[C@H](C(=O)NCCCCN=C(N)N)C[C@H]2CC[C@H](OS(=O)(=O)O)C[C@@H]21
REMARK SMILES IDX 22 1 36 2 46 3 35 4 23 5 45 6 37 7 39 8 38 9 20 10 21 11
REMARK SMILES IDX 5 12 6 13 7 14 8 15 9 17 11 18 12 19 17 20 19 21 15 22 14 23
REMARK SMILES IDX 13 24 18 25 16 26 10 28 3 30 4 31 2 32 1 33 24 34 25 35
REMARK SMILES IDX 26 36 27 38 28 39 29 40 30 41 31 42 32 43 33 44 34 45 40 50
REMARK SMILES IDX 41 51 42 52 43 53 44 54
REMARK H PARENT 6 16 16 27 10 29 26 37 33 46 33 47 34 48 34 49 44 55
ROOT
ATOM      1  N   UNL     1       6.726   6.140   5.947  1.00  0.00    -0.326 N 
ATOM      2  C   UNL     1       4.554   5.230   5.970  1.00  0.00     0.014 C 
ATOM      3  C   UNL     1       5.862   5.243   5.173  1.00  0.00     0.091 C 
ATOM      4  C   UNL     1       4.479   6.650   6.511  1.00  0.00     0.041 C 
ATOM      5  C   UNL     1       5.931   6.837   6.988  1.00  0.00     0.175 C 
ATOM      6  C   UNL     1       6.317   3.798   4.969  1.00  0.00     0.059 C 
ATOM      7  C   UNL     1       3.413   4.694   5.129  1.00  0.00     0.008 C 
ATOM      8  C   UNL     1       5.152   2.791   4.856  1.00  0.00     0.143 C 
ATOM      9  C   UNL     1       3.862   3.453   4.329  1.00  0.00     0.034 C 
ENDROOT
BRANCH   1  10
ATOM     10  C   UNL     1       8.025   6.550   5.703  1.00  0.00     0.246 C 
ATOM     11  O   UNL     1       8.906   6.282   6.527  1.00  0.00    -0.272 OA
BRANCH  10  12
ATOM     12  C   UNL     1       8.357   7.299   4.380  1.00  0.00     0.174 C 
BRANCH  12  13
ATOM     13  N   UNL     1       8.486   6.341   3.283  1.00  0.00    -0.342 N 
ATOM     14  C   UNL     1       8.108   6.575   1.980  1.00  0.00     0.249 C 
ATOM     15  O   UNL     1       7.641   7.637   1.586  1.00  0.00    -0.272 OA
ATOM     16  H   UNL     1       8.710   5.370   3.486  1.00  0.00     0.164 HD
BRANCH  14  17
ATOM     17  C   UNL     1       8.355   5.361   1.060  1.00  0.00     0.207 C 
BRANCH  17  18
ATOM     18  C   UNL     1       7.159   4.404   1.102  1.00  0.00     0.077 C 
BRANCH  18  19
ATOM     19  C   UNL     1       5.940   4.999   0.432  1.00  0.00    -0.043 A 
ATOM     20  C   UNL     1       3.545   5.375   0.377  1.00  0.00     0.083 A 
ATOM     21  C   UNL     1       4.673   4.869   1.023  1.00  0.00     0.028 A 
ATOM     22  C   UNL     1       3.673   6.011  -0.858  1.00  0.00     0.134 A 
ATOM     23  C   UNL     1       4.921   6.146  -1.454  1.00  0.00     0.048 A 
ATOM     24  C   UNL     1       6.053   5.639  -0.812  1.00  0.00     0.008 A 
ATOM     25  Cl  UNL     1       1.997   5.206   1.119  1.00  0.00    -0.080 Cl
BRANCH  22  26
ATOM     26  O   UNL     1       2.593   6.514  -1.533  1.00  0.00    -0.506 OA
ATOM     27  H   UNL     1       1.908   5.820  -1.523  1.00  0.00     0.293 HD
ENDBRANCH  22  26
ENDBRANCH  18  19
ENDBRANCH  17  18
BRANCH  17  28
ATOM     28  O   UNL     1       9.544   4.653   1.445  1.00  0.00    -0.383 OA
ATOM     29  H   UNL     1       9.281   4.063   2.188  1.00  0.00     0.211 HD
ENDBRANCH  17  28
ENDBRANCH  14  17
ENDBRANCH  12  13
BRANCH  12  30
ATOM     30  C   UNL     1       9.599   8.222   4.508  1.00  0.00     0.018 C 
ATOM     31  C   UNL     1       9.311   9.611   3.915  1.00  0.00     0.010 C 
BRANCH  30  32
ATOM     32  C   UNL     1      10.882   7.630   3.877  1.00  0.00     0.002 C 
ATOM     33  C   UNL     1      11.917   7.114   4.868  1.00  0.00     0.004 C 
ENDBRANCH  30  32
ENDBRANCH  12  30
ENDBRANCH  10  12
ENDBRANCH   1  10
BRANCH   5  34
ATOM     34  C   UNL     1       6.163   6.194   8.381  1.00  0.00     0.242 C 
ATOM     35  O   UNL     1       5.684   6.665   9.412  1.00  0.00    -0.273 OA
ATOM     36  N   UNL     1       6.987   5.090   8.386  1.00  0.00    -0.354 N 
ATOM     37  H   UNL     1       7.451   4.819   7.518  1.00  0.00     0.163 HD
BRANCH  36  38
ATOM     38  C   UNL     1       7.139   4.244   9.552  1.00  0.00     0.116 C 
BRANCH  38  39
ATOM     39  C   UNL     1       8.232   3.208   9.302  1.00  0.00     0.023 C 
BRANCH  39  40
ATOM     40  C   UNL     1       8.141   2.022  10.256  1.00  0.00     0.026 C 
BRANCH  40  41
ATOM     41  C   UNL     1       6.831   2.060  11.044  1.00  0.00     0.146 C 
BRANCH  41  42
ATOM     42  N   UNL     1       5.980   0.949  10.637  1.00  0.00    -0.254 NA
ATOM     43  C   UNL     1       4.905   0.705  11.287  1.00  0.00     0.185 C 
ATOM     44  N   UNL     1       4.377   1.331  12.354  1.00  0.00    -0.370 N 
ATOM     45  N   UNL     1       4.136  -0.326  10.899  1.00  0.00    -0.370 N 
ATOM     46  H   UNL     1       3.664   0.889  12.909  1.00  0.00     0.159 HD
ATOM     47  H   UNL     1       4.823   2.143  12.770  1.00  0.00     0.159 HD
ATOM     48  H   UNL     1       4.458  -0.848  10.095  1.00  0.00     0.159 HD
ATOM     49  H   UNL     1       3.183  -0.436  11.195  1.00  0.00     0.159 HD
ENDBRANCH  41  42
ENDBRANCH  40  41
ENDBRANCH  39  40
ENDBRANCH  38  39
ENDBRANCH  36  38
ENDBRANCH   5  34
BRANCH   8  50
ATOM     50  O   UNL     1       4.877   2.214   6.133  1.00  0.00    -0.245 OA
BRANCH  50  51
ATOM     51  S   UNL     1       5.469   0.743   6.494  1.00  0.00     0.397 S 
ATOM     52  O   UNL     1       6.900   0.867   6.663  1.00  0.00    -0.169 OA
ATOM     53  O   UNL     1       4.892  -0.245   5.606  1.00  0.00    -0.169 OA
BRANCH  51  54
ATOM     54  O   UNL     1       4.874   0.494   7.967  1.00  0.00    -0.264 OA
ATOM     55  H   UNL     1       4.940   1.336   8.461  1.00  0.00     0.236 HD
ENDBRANCH  51  54
ENDBRANCH  50  51
ENDBRANCH   8  50
TORSDOF 19
ENDMDL
MODEL 17
REMARK VINA RESULT:    -7.060      5.171      9.836
REMARK INTER + INTRA:         -15.914
REMARK INTER:                 -12.568
REMARK INTRA:                  -3.346
REMARK UNBOUND:                -1.631
REMARK SMILES CC[C@@H](C)[C@@H](NC(=O)[C@@H](O)Cc1ccc(O)c(Cl)c1)C(=O)N1[C@H](C(=O)NCCCCN=C(N)N)C[C@H]2CC[C@H](OS(=O)(=O)O)C[C@@H]21
REMARK SMILES IDX 22 1 36 2 46 3 35 4 23 5 45 6 37 7 39 8 38 9 20 10 21 11
REMARK SMILES IDX 5 12 6 13 7 14 8 15 9 17 11 18 12 19 17 20 19 21 15 22 14 23
REMARK SMILES IDX 13 24 18 25 16 26 10 28 3 30 4 31 2 32 1 33 24 34 25 35
REMARK SMILES IDX 26 36 27 38 28 39 29 40 30 41 31 42 32 43 33 44 34 45 40 50
REMARK SMILES IDX 41 51 42 52 43 53 44 54
REMARK H PARENT 6 16 16 27 10 29 26 37 33 46 33 47 34 48 34 49 44 55
ROOT
ATOM      1  N   UNL     1       5.660   3.274  10.244  1.00  0.00    -0.326 N 
ATOM      2  C   UNL     1       6.507   5.468  10.348  1.00  0.00     0.014 C 
ATOM      3  C   UNL     1       6.166   4.338   9.373  1.00  0.00     0.091 C 
ATOM      4  C   UNL     1       6.994   4.714  11.576  1.00  0.00     0.041 C 
ATOM      5  C   UNL     1       5.919   3.615  11.665  1.00  0.00     0.175 C 
ATOM      6  C   UNL     1       5.237   4.894   8.295  1.00  0.00     0.059 C 
ATOM      7  C   UNL     1       7.416   6.491   9.696  1.00  0.00     0.008 C 
ATOM      8  C   UNL     1       5.487   6.382   7.966  1.00  0.00     0.143 C 
ATOM      9  C   UNL     1       6.941   6.803   8.261  1.00  0.00     0.034 C 
ENDROOT
BRANCH   1  10
ATOM     10  C   UNL     1       5.215   2.002   9.926  1.00  0.00     0.246 C 
ATOM     11  O   UNL     1       4.207   1.559  10.487  1.00  0.00    -0.272 OA
BRANCH  10  12
ATOM     12  C   UNL     1       5.967   1.176   8.842  1.00  0.00     0.174 C 
BRANCH  12  13
ATOM     13  N   UNL     1       5.323   1.358   7.542  1.00  0.00    -0.342 N 
ATOM     14  C   UNL     1       5.920   1.924   6.437  1.00  0.00     0.249 C 
ATOM     15  O   UNL     1       7.079   2.318   6.415  1.00  0.00    -0.272 OA
ATOM     16  H   UNL     1       4.319   1.225   7.453  1.00  0.00     0.164 HD
BRANCH  14  17
ATOM     17  C   UNL     1       4.975   1.992   5.219  1.00  0.00     0.207 C 
BRANCH  17  18
ATOM     18  C   UNL     1       4.316   3.373   5.128  1.00  0.00     0.077 C 
BRANCH  18  19
ATOM     19  C   UNL     1       4.576   4.033   3.793  1.00  0.00    -0.043 A 
ATOM     20  C   UNL     1       3.823   4.650   1.571  1.00  0.00     0.083 A 
ATOM     21  C   UNL     1       3.565   4.084   2.820  1.00  0.00     0.028 A 
ATOM     22  C   UNL     1       5.088   5.164   1.285  1.00  0.00     0.134 A 
ATOM     23  C   UNL     1       6.098   5.120   2.239  1.00  0.00     0.048 A 
ATOM     24  C   UNL     1       5.843   4.553   3.490  1.00  0.00     0.008 A 
ATOM     25  Cl  UNL     1       2.569   4.704   0.388  1.00  0.00    -0.080 Cl
BRANCH  22  26
ATOM     26  O   UNL     1       5.391   5.719   0.071  1.00  0.00    -0.506 OA
ATOM     27  H   UNL     1       4.718   6.403  -0.100  1.00  0.00     0.293 HD
ENDBRANCH  22  26
ENDBRANCH  18  19
ENDBRANCH  17  18
BRANCH  17  28
ATOM     28  O   UNL     1       3.956   0.982   5.298  1.00  0.00    -0.383 OA
ATOM     29  H   UNL     1       3.966   0.657   6.226  1.00  0.00     0.211 HD
ENDBRANCH  17  28
ENDBRANCH  14  17
ENDBRANCH  12  13
BRANCH  12  30
ATOM     30  C   UNL     1       6.115  -0.322   9.225  1.00  0.00     0.018 C 
ATOM     31  C   UNL     1       7.596  -0.723   9.297  1.00  0.00     0.010 C 
BRANCH  30  32
ATOM     32  C   UNL     1       5.349  -1.283   8.283  1.00  0.00     0.002 C 
ATOM     33  C   UNL     1       6.208  -2.014   7.260  1.00  0.00     0.004 C 
ENDBRANCH  30  32
ENDBRANCH  12  30
ENDBRANCH  10  12
ENDBRANCH   1  10
BRANCH   5  34
ATOM     34  C   UNL     1       4.627   4.133  12.351  1.00  0.00     0.242 C 
ATOM     35  O   UNL     1       3.571   4.281  11.738  1.00  0.00    -0.273 OA
ATOM     36  N   UNL     1       4.763   4.464  13.681  1.00  0.00    -0.354 N 
ATOM     37  H   UNL     1       5.692   4.434  14.103  1.00  0.00     0.163 HD
BRANCH  36  38
ATOM     38  C   UNL     1       3.623   4.756  14.525  1.00  0.00     0.116 C 
BRANCH  38  39
ATOM     39  C   UNL     1       3.436   3.638  15.548  1.00  0.00     0.023 C 
BRANCH  39  40
ATOM     40  C   UNL     1       4.663   3.447  16.433  1.00  0.00     0.026 C 
BRANCH  40  41
ATOM     41  C   UNL     1       5.258   2.052  16.242  1.00  0.00     0.146 C 
BRANCH  41  42
ATOM     42  N   UNL     1       4.696   1.436  15.047  1.00  0.00    -0.254 NA
ATOM     43  C   UNL     1       5.470   0.855  14.210  1.00  0.00     0.185 C 
ATOM     44  N   UNL     1       6.806   0.695  14.233  1.00  0.00    -0.370 N 
ATOM     45  N   UNL     1       4.932   0.297  13.113  1.00  0.00    -0.370 N 
ATOM     46  H   UNL     1       7.306   0.437  13.400  1.00  0.00     0.159 HD
ATOM     47  H   UNL     1       7.371   1.045  15.001  1.00  0.00     0.159 HD
ATOM     48  H   UNL     1       3.927   0.365  13.022  1.00  0.00     0.159 HD
ATOM     49  H   UNL     1       5.425  -0.368  12.544  1.00  0.00     0.159 HD
ENDBRANCH  41  42
ENDBRANCH  40  41
ENDBRANCH  39  40
ENDBRANCH  38  39
ENDBRANCH  36  38
ENDBRANCH   5  34
BRANCH   8  50
ATOM     50  O   UNL     1       4.612   7.208   8.734  1.00  0.00    -0.245 OA
BRANCH  50  51
ATOM     51  S   UNL     1       3.253   7.788   8.054  1.00  0.00     0.397 S 
ATOM     52  O   UNL     1       3.427   9.208   7.848  1.00  0.00    -0.169 OA
ATOM     53  O   UNL     1       2.098   7.257   8.748  1.00  0.00    -0.169 OA
BRANCH  51  54
ATOM     54  O   UNL     1       3.300   7.123   6.591  1.00  0.00    -0.264 OA
ATOM     55  H   UNL     1       3.555   6.184   6.697  1.00  0.00     0.236 HD
ENDBRANCH  51  54
ENDBRANCH  50  51
ENDBRANCH   8  50
TORSDOF 19
ENDMDL
MODEL 18
REMARK VINA RESULT:    -7.039      6.588     10.882
REMARK INTER + INTRA:         -15.871
REMARK INTER:                 -13.250
REMARK INTRA:                  -2.622
REMARK UNBOUND:                -1.631
REMARK SMILES CC[C@@H](C)[C@@H](NC(=O)[C@@H](O)Cc1ccc(O)c(Cl)c1)C(=O)N1[C@H](C(=O)NCCCCN=C(N)N)C[C@H]2CC[C@H](OS(=O)(=O)O)C[C@@H]21
REMARK SMILES IDX 22 1 36 2 46 3 35 4 23 5 45 6 37 7 39 8 38 9 20 10 21 11
REMARK SMILES IDX 5 12 6 13 7 14 8 15 9 17 11 18 12 19 17 20 19 21 15 22 14 23
REMARK SMILES IDX 13 24 18 25 16 26 10 28 3 30 4 31 2 32 1 33 24 34 25 35
REMARK SMILES IDX 26 36 27 38 28 39 29 40 30 41 31 42 32 43 33 44 34 45 40 50
REMARK SMILES IDX 41 51 42 52 43 53 44 54
REMARK H PARENT 6 16 16 27 10 29 26 37 33 46 33 47 34 48 34 49 44 55
ROOT
ATOM      1  N   UNL     1       5.228   3.652  12.633  1.00  0.00    -0.326 N 
ATOM      2  C   UNL     1       5.483   4.550  14.795  1.00  0.00     0.014 C 
ATOM      3  C   UNL     1       6.119   4.525  13.402  1.00  0.00     0.091 C 
ATOM      4  C   UNL     1       4.919   3.144  14.930  1.00  0.00     0.041 C 
ATOM      5  C   UNL     1       4.270   2.976  13.544  1.00  0.00     0.175 C 
ATOM      6  C   UNL     1       6.306   5.966  12.930  1.00  0.00     0.059 C 
ATOM      7  C   UNL     1       6.465   5.059  15.831  1.00  0.00     0.008 C 
ATOM      8  C   UNL     1       6.580   6.964  14.076  1.00  0.00     0.143 C 
ATOM      9  C   UNL     1       7.237   6.283  15.293  1.00  0.00     0.034 C 
ENDROOT
BRANCH   1  10
ATOM     10  C   UNL     1       5.307   3.242  11.313  1.00  0.00     0.246 C 
ATOM     11  O   UNL     1       4.874   2.128  11.002  1.00  0.00    -0.272 OA
BRANCH  10  12
ATOM     12  C   UNL     1       5.899   4.207  10.245  1.00  0.00     0.174 C 
BRANCH  12  13
ATOM     13  N   UNL     1       4.962   4.355   9.132  1.00  0.00    -0.342 N 
ATOM     14  C   UNL     1       4.629   5.548   8.532  1.00  0.00     0.249 C 
ATOM     15  O   UNL     1       5.109   6.629   8.851  1.00  0.00    -0.272 OA
ATOM     16  H   UNL     1       4.371   3.572   8.865  1.00  0.00     0.164 HD
BRANCH  14  17
ATOM     17  C   UNL     1       3.598   5.377   7.396  1.00  0.00     0.207 C 
BRANCH  17  18
ATOM     18  C   UNL     1       3.805   4.036   6.683  1.00  0.00     0.077 C 
BRANCH  18  19
ATOM     19  C   UNL     1       4.284   4.224   5.261  1.00  0.00    -0.043 A 
ATOM     20  C   UNL     1       6.012   4.894   3.695  1.00  0.00     0.083 A 
ATOM     21  C   UNL     1       5.589   4.674   5.007  1.00  0.00     0.028 A 
ATOM     22  C   UNL     1       5.136   4.667   2.633  1.00  0.00     0.134 A 
ATOM     23  C   UNL     1       3.841   4.221   2.870  1.00  0.00     0.048 A 
ATOM     24  C   UNL     1       3.415   4.002   4.182  1.00  0.00     0.008 A 
ATOM     25  Cl  UNL     1       7.619   5.447   3.403  1.00  0.00    -0.080 Cl
BRANCH  22  26
ATOM     26  O   UNL     1       5.502   4.878   1.331  1.00  0.00    -0.506 OA
ATOM     27  H   UNL     1       6.469   5.007   1.329  1.00  0.00     0.293 HD
ENDBRANCH  22  26
ENDBRANCH  18  19
ENDBRANCH  17  18
BRANCH  17  28
ATOM     28  O   UNL     1       3.699   6.445   6.441  1.00  0.00    -0.383 OA
ATOM     29  H   UNL     1       2.916   7.021   6.594  1.00  0.00     0.211 HD
ENDBRANCH  17  28
ENDBRANCH  14  17
ENDBRANCH  12  13
BRANCH  12  30
ATOM     30  C   UNL     1       7.317   3.784   9.774  1.00  0.00     0.018 C 
ATOM     31  C   UNL     1       8.327   4.921   9.995  1.00  0.00     0.010 C 
BRANCH  30  32
ATOM     32  C   UNL     1       7.366   3.307   8.302  1.00  0.00     0.002 C 
ATOM     33  C   UNL     1       7.401   1.797   8.108  1.00  0.00     0.004 C 
ENDBRANCH  30  32
ENDBRANCH  12  30
ENDBRANCH  10  12
ENDBRANCH   1  10
BRANCH   5  34
ATOM     34  C   UNL     1       2.876   3.654  13.478  1.00  0.00     0.242 C 
ATOM     35  O   UNL     1       1.896   3.098  12.983  1.00  0.00    -0.273 OA
ATOM     36  N   UNL     1       2.828   4.942  13.964  1.00  0.00    -0.354 N 
ATOM     37  H   UNL     1       3.698   5.392  14.250  1.00  0.00     0.163 HD
BRANCH  36  38
ATOM     38  C   UNL     1       1.578   5.642  14.178  1.00  0.00     0.116 C 
BRANCH  38  39
ATOM     39  C   UNL     1       1.687   6.530  15.415  1.00  0.00     0.023 C 
BRANCH  39  40
ATOM     40  C   UNL     1       2.505   5.883  16.527  1.00  0.00     0.026 C 
BRANCH  40  41
ATOM     41  C   UNL     1       1.637   4.942  17.362  1.00  0.00     0.146 C 
BRANCH  41  42
ATOM     42  N   UNL     1       1.857   3.565  16.940  1.00  0.00    -0.254 NA
ATOM     43  C   UNL     1       0.910   2.918  16.371  1.00  0.00     0.185 C 
ATOM     44  N   UNL     1      -0.342   3.306  16.067  1.00  0.00    -0.370 N 
ATOM     45  N   UNL     1       1.132   1.648  15.993  1.00  0.00    -0.370 N 
ATOM     46  H   UNL     1      -1.050   2.626  15.846  1.00  0.00     0.159 HD
ATOM     47  H   UNL     1      -0.674   4.243  16.271  1.00  0.00     0.159 HD
ATOM     48  H   UNL     1       2.055   1.280  16.177  1.00  0.00     0.159 HD
ATOM     49  H   UNL     1       0.540   1.163  15.343  1.00  0.00     0.159 HD
ENDBRANCH  41  42
ENDBRANCH  40  41
ENDBRANCH  39  40
ENDBRANCH  38  39
ENDBRANCH  36  38
ENDBRANCH   5  34
BRANCH   8  50
ATOM     50  O   UNL     1       5.359   7.571  14.500  1.00  0.00    -0.245 OA
BRANCH  50  51
ATOM     51  S   UNL     1       5.393   9.034  15.209  1.00  0.00     0.397 S 
ATOM     52  O   UNL     1       6.330   9.860  14.482  1.00  0.00    -0.169 OA
ATOM     53  O   UNL     1       5.475   8.876  16.646  1.00  0.00    -0.169 OA
BRANCH  51  54
ATOM     54  O   UNL     1       3.934   9.612  14.857  1.00  0.00    -0.264 OA
ATOM     55  H   UNL     1       3.319   8.853  14.800  1.00  0.00     0.236 HD
ENDBRANCH  51  54
ENDBRANCH  50  51
ENDBRANCH   8  50
TORSDOF 19
ENDMDL
MODEL 19
REMARK VINA RESULT:    -7.030      8.541     10.997
REMARK INTER + INTRA:         -15.854
REMARK INTER:                 -12.911
REMARK INTRA:                  -2.943
REMARK UNBOUND:                -1.631
REMARK SMILES CC[C@@H](C)[C@@H](NC(=O)[C@@H](O)Cc1ccc(O)c(Cl)c1)C(=O)N1[C@H](C(=O)NCCCCN=C(N)N)C[C@H]2CC[C@H](OS(=O)(=O)O)C[C@@H]21
REMARK SMILES IDX 22 1 36 2 46 3 35 4 23 5 45 6 37 7 39 8 38 9 20 10 21 11
REMARK SMILES IDX 5 12 6 13 7 14 8 15 9 17 11 18 12 19 17 20 19 21 15 22 14 23
REMARK SMILES IDX 13 24 18 25 16 26 10 28 3 30 4 31 2 32 1 33 24 34 25 35
REMARK SMILES IDX 26 36 27 38 28 39 29 40 30 41 31 42 32 43 33 44 34 45 40 50
REMARK SMILES IDX 41 51 42 52 43 53 44 54
REMARK H PARENT 6 16 16 27 10 29 26 37 33 46 33 47 34 48 34 49 44 55
ROOT
ATOM      1  N   UNL     1       4.653   2.236  11.029  1.00  0.00    -0.326 N 
ATOM      2  C   UNL     1       2.977   3.208  12.367  1.00  0.00     0.014 C 
ATOM      3  C   UNL     1       4.305   2.448  12.437  1.00  0.00     0.091 C 
ATOM      4  C   UNL     1       2.312   2.607  11.138  1.00  0.00     0.041 C 
ATOM      5  C   UNL     1       3.503   2.596  10.162  1.00  0.00     0.175 C 
ATOM      6  C   UNL     1       5.273   3.245  13.310  1.00  0.00     0.059 C 
ATOM      7  C   UNL     1       2.256   3.162  13.700  1.00  0.00     0.008 C 
ATOM      8  C   UNL     1       4.581   4.042  14.437  1.00  0.00     0.143 C 
ATOM      9  C   UNL     1       3.243   3.402  14.862  1.00  0.00     0.034 C 
ENDROOT
BRANCH   1  10
ATOM     10  C   UNL     1       5.741   1.586  10.471  1.00  0.00     0.246 C 
ATOM     11  O   UNL     1       6.768   2.230  10.234  1.00  0.00    -0.272 OA
BRANCH  10  12
ATOM     12  C   UNL     1       5.662   0.057  10.196  1.00  0.00     0.174 C 
BRANCH  12  13
ATOM     13  N   UNL     1       5.115  -0.183   8.861  1.00  0.00    -0.342 N 
ATOM     14  C   UNL     1       5.803  -0.759   7.817  1.00  0.00     0.249 C 
ATOM     15  O   UNL     1       6.955  -1.166   7.901  1.00  0.00    -0.272 OA
ATOM     16  H   UNL     1       4.229   0.241   8.596  1.00  0.00     0.164 HD
BRANCH  14  17
ATOM     17  C   UNL     1       4.957  -0.859   6.529  1.00  0.00     0.207 C 
BRANCH  17  18
ATOM     18  C   UNL     1       5.726  -1.613   5.440  1.00  0.00     0.077 C 
BRANCH  18  19
ATOM     19  C   UNL     1       5.309  -3.064   5.361  1.00  0.00    -0.043 A 
ATOM     20  C   UNL     1       3.832  -4.868   6.033  1.00  0.00     0.083 A 
ATOM     21  C   UNL     1       4.185  -3.518   6.069  1.00  0.00     0.028 A 
ATOM     22  C   UNL     1       4.597  -5.770   5.293  1.00  0.00     0.134 A 
ATOM     23  C   UNL     1       5.712  -5.334   4.586  1.00  0.00     0.048 A 
ATOM     24  C   UNL     1       6.069  -3.984   4.622  1.00  0.00     0.008 A 
ATOM     25  Cl  UNL     1       2.449  -5.407   6.911  1.00  0.00    -0.080 Cl
BRANCH  22  26
ATOM     26  O   UNL     1       4.296  -7.104   5.236  1.00  0.00    -0.506 OA
ATOM     27  H   UNL     1       3.382  -7.199   5.561  1.00  0.00     0.293 HD
ENDBRANCH  22  26
ENDBRANCH  18  19
ENDBRANCH  17  18
BRANCH  17  28
ATOM     28  O   UNL     1       4.599   0.445   6.044  1.00  0.00    -0.383 OA
ATOM     29  H   UNL     1       3.710   0.348   5.632  1.00  0.00     0.211 HD
ENDBRANCH  17  28
ENDBRANCH  14  17
ENDBRANCH  12  13
BRANCH  12  30
ATOM     30  C   UNL     1       4.888  -0.713  11.300  1.00  0.00     0.018 C 
ATOM     31  C   UNL     1       5.731  -0.827  12.580  1.00  0.00     0.010 C 
BRANCH  30  32
ATOM     32  C   UNL     1       4.401  -2.114  10.857  1.00  0.00     0.002 C 
ATOM     33  C   UNL     1       5.468  -3.201  10.846  1.00  0.00     0.004 C 
ENDBRANCH  30  32
ENDBRANCH  12  30
ENDBRANCH  10  12
ENDBRANCH   1  10
BRANCH   5  34
ATOM     34  C   UNL     1       3.721   3.987   9.509  1.00  0.00     0.242 C 
ATOM     35  O   UNL     1       4.641   4.733   9.841  1.00  0.00    -0.273 OA
ATOM     36  N   UNL     1       2.779   4.347   8.571  1.00  0.00    -0.354 N 
ATOM     37  H   UNL     1       1.973   3.738   8.425  1.00  0.00     0.163 HD
BRANCH  36  38
ATOM     38  C   UNL     1       2.944   5.502   7.714  1.00  0.00     0.116 C 
BRANCH  38  39
ATOM     39  C   UNL     1       2.214   6.701   8.314  1.00  0.00     0.023 C 
BRANCH  39  40
ATOM     40  C   UNL     1       3.013   7.994   8.186  1.00  0.00     0.026 C 
BRANCH  40  41
ATOM     41  C   UNL     1       4.464   7.699   7.807  1.00  0.00     0.146 C 
BRANCH  41  42
ATOM     42  N   UNL     1       5.344   8.053   8.914  1.00  0.00    -0.254 NA
ATOM     43  C   UNL     1       6.387   7.348   9.144  1.00  0.00     0.185 C 
ATOM     44  N   UNL     1       6.855   6.261   8.505  1.00  0.00    -0.370 N 
ATOM     45  N   UNL     1       7.182   7.689  10.172  1.00  0.00    -0.370 N 
ATOM     46  H   UNL     1       7.543   5.668   8.937  1.00  0.00     0.159 HD
ATOM     47  H   UNL     1       6.382   5.874   7.694  1.00  0.00     0.159 HD
ATOM     48  H   UNL     1       6.906   8.504  10.702  1.00  0.00     0.159 HD
ATOM     49  H   UNL     1       8.121   7.344  10.271  1.00  0.00     0.159 HD
ENDBRANCH  41  42
ENDBRANCH  40  41
ENDBRANCH  39  40
ENDBRANCH  38  39
ENDBRANCH  36  38
ENDBRANCH   5  34
BRANCH   8  50
ATOM     50  O   UNL     1       4.327   5.380  14.007  1.00  0.00    -0.245 OA
BRANCH  50  51
ATOM     51  S   UNL     1       4.445   6.602  15.074  1.00  0.00     0.397 S 
ATOM     52  O   UNL     1       5.312   7.609  14.505  1.00  0.00    -0.169 OA
ATOM     53  O   UNL     1       4.670   6.068  16.402  1.00  0.00    -0.169 OA
BRANCH  51  54
ATOM     54  O   UNL     1       2.964   7.226  15.035  1.00  0.00    -0.264 OA
ATOM     55  H   UNL     1       2.357   6.582  15.453  1.00  0.00     0.236 HD
ENDBRANCH  51  54
ENDBRANCH  50  51
ENDBRANCH   8  50
TORSDOF 19
ENDMDL
MODEL 20
REMARK VINA RESULT:    -6.973     15.463     20.085
REMARK INTER + INTRA:         -15.738
REMARK INTER:                 -10.601
REMARK INTRA:                  -5.137
REMARK UNBOUND:                -1.631
REMARK SMILES CC[C@@H](C)[C@@H](NC(=O)[C@@H](O)Cc1ccc(O)c(Cl)c1)C(=O)N1[C@H](C(=O)NCCCCN=C(N)N)C[C@H]2CC[C@H](OS(=O)(=O)O)C[C@@H]21
REMARK SMILES IDX 22 1 36 2 46 3 35 4 23 5 45 6 37 7 39 8 38 9 20 10 21 11
REMARK SMILES IDX 5 12 6 13 7 14 8 15 9 17 11 18 12 19 17 20 19 21 15 22 14 23
REMARK SMILES IDX 13 24 18 25 16 26 10 28 3 30 4 31 2 32 1 33 24 34 25 35
REMARK SMILES IDX 26 36 27 38 28 39 29 40 30 41 31 42 32 43 33 44 34 45 40 50
REMARK SMILES IDX 41 51 42 52 43 53 44 54
REMARK H PARENT 6 16 16 27 10 29 26 37 33 46 33 47 34 48 34 49 44 55
ROOT
ATOM      1  N   UNL     1      -1.885  -6.473  11.570  1.00  0.00    -0.326 N 
ATOM      2  C   UNL     1      -0.339  -6.189  13.323  1.00  0.00     0.014 C 
ATOM      3  C   UNL     1      -0.787  -7.176  12.241  1.00  0.00     0.091 C 
ATOM      4  C   UNL     1      -1.645  -5.523  13.730  1.00  0.00     0.041 C 
ATOM      5  C   UNL     1      -2.263  -5.266  12.344  1.00  0.00     0.175 C 
ATOM      6  C   UNL     1       0.434  -7.572  11.413  1.00  0.00     0.059 C 
ATOM      7  C   UNL     1       0.502  -6.884  14.376  1.00  0.00     0.008 C 
ATOM      8  C   UNL     1       1.752  -7.587  12.217  1.00  0.00     0.143 C 
ATOM      9  C   UNL     1       1.512  -7.846  13.718  1.00  0.00     0.034 C 
ENDROOT
BRANCH   1  10
ATOM     10  C   UNL     1      -2.690  -6.882  10.521  1.00  0.00     0.246 C 
ATOM     11  O   UNL     1      -2.293  -6.724   9.361  1.00  0.00    -0.272 OA
BRANCH  10  12
ATOM     12  C   UNL     1      -4.054  -7.569  10.823  1.00  0.00     0.174 C 
BRANCH  12  13
ATOM     13  N   UNL     1      -3.902  -8.513  11.929  1.00  0.00    -0.342 N 
ATOM     14  C   UNL     1      -4.807  -8.683  12.953  1.00  0.00     0.249 C 
ATOM     15  O   UNL     1      -5.866  -8.072  13.035  1.00  0.00    -0.272 OA
ATOM     16  H   UNL     1      -3.008  -8.973  12.079  1.00  0.00     0.164 HD
BRANCH  14  17
ATOM     17  C   UNL     1      -4.354  -9.743  13.978  1.00  0.00     0.207 C 
BRANCH  17  18
ATOM     18  C   UNL     1      -2.827  -9.761  14.092  1.00  0.00     0.077 C 
BRANCH  18  19
ATOM     19  C   UNL     1      -2.349  -9.070  15.349  1.00  0.00    -0.043 A 
ATOM     20  C   UNL     1      -0.813  -8.941  17.223  1.00  0.00     0.083 A 
ATOM     21  C   UNL     1      -1.222  -9.550  16.036  1.00  0.00     0.028 A 
ATOM     22  C   UNL     1      -1.525  -7.854  17.731  1.00  0.00     0.134 A 
ATOM     23  C   UNL     1      -2.642  -7.369  17.062  1.00  0.00     0.048 A 
ATOM     24  C   UNL     1      -3.055  -7.977  15.874  1.00  0.00     0.008 A 
ATOM     25  Cl  UNL     1       0.574  -9.544  18.052  1.00  0.00    -0.080 Cl
BRANCH  22  26
ATOM     26  O   UNL     1      -1.168  -7.231  18.897  1.00  0.00    -0.506 OA
ATOM     27  H   UNL     1      -0.864  -7.929  19.506  1.00  0.00     0.293 HD
ENDBRANCH  22  26
ENDBRANCH  18  19
ENDBRANCH  17  18
BRANCH  17  28
ATOM     28  O   UNL     1      -4.820 -11.052  13.610  1.00  0.00    -0.383 OA
ATOM     29  H   UNL     1      -4.045 -11.515  13.217  1.00  0.00     0.211 HD
ENDBRANCH  17  28
ENDBRANCH  14  17
ENDBRANCH  12  13
BRANCH  12  30
ATOM     30  C   UNL     1      -4.686  -8.225   9.566  1.00  0.00     0.018 C 
ATOM     31  C   UNL     1      -6.163  -7.824   9.425  1.00  0.00     0.010 C 
BRANCH  30  32
ATOM     32  C   UNL     1      -4.548  -9.766   9.533  1.00  0.00     0.002 C 
ATOM     33  C   UNL     1      -5.833 -10.541   9.790  1.00  0.00     0.004 C 
ENDBRANCH  30  32
ENDBRANCH  12  30
ENDBRANCH  10  12
ENDBRANCH   1  10
BRANCH   5  34
ATOM     34  C   UNL     1      -1.681  -3.986  11.687  1.00  0.00     0.242 C 
ATOM     35  O   UNL     1      -1.691  -2.893  12.252  1.00  0.00    -0.273 OA
ATOM     36  N   UNL     1      -1.202  -4.151  10.407  1.00  0.00    -0.354 N 
ATOM     37  H   UNL     1      -1.330  -5.053   9.947  1.00  0.00     0.163 HD
BRANCH  36  38
ATOM     38  C   UNL     1      -0.434  -3.126   9.730  1.00  0.00     0.116 C 
BRANCH  38  39
ATOM     39  C   UNL     1      -0.707  -3.181   8.228  1.00  0.00     0.023 C 
BRANCH  39  40
ATOM     40  C   UNL     1       0.417  -3.864   7.457  1.00  0.00     0.026 C 
BRANCH  40  41
ATOM     41  C   UNL     1       0.045  -5.307   7.120  1.00  0.00     0.146 C 
BRANCH  41  42
ATOM     42  N   UNL     1       1.119  -6.202   7.531  1.00  0.00    -0.254 NA
ATOM     43  C   UNL     1       0.873  -7.445   7.714  1.00  0.00     0.185 C 
ATOM     44  N   UNL     1      -0.280  -8.126   7.586  1.00  0.00    -0.370 N 
ATOM     45  N   UNL     1       1.876  -8.252   8.097  1.00  0.00    -0.370 N 
ATOM     46  H   UNL     1      -0.384  -9.040   7.995  1.00  0.00     0.159 HD
ATOM     47  H   UNL     1      -1.138  -7.672   7.290  1.00  0.00     0.159 HD
ATOM     48  H   UNL     1       2.783  -7.818   8.208  1.00  0.00     0.159 HD
ATOM     49  H   UNL     1       1.824  -9.253   8.031  1.00  0.00     0.159 HD
ENDBRANCH  41  42
ENDBRANCH  40  41
ENDBRANCH  39  40
ENDBRANCH  38  39
ENDBRANCH  36  38
ENDBRANCH   5  34
BRANCH   8  50
ATOM     50  O   UNL     1       2.427  -6.336  12.075  1.00  0.00    -0.245 OA
BRANCH  50  51
ATOM     51  S   UNL     1       3.529  -6.148  10.895  1.00  0.00     0.397 S 
ATOM     52  O   UNL     1       3.720  -7.429  10.253  1.00  0.00    -0.169 OA
ATOM     53  O   UNL     1       4.648  -5.374  11.393  1.00  0.00    -0.169 OA
BRANCH  51  54
ATOM     54  O   UNL     1       2.733  -5.240   9.833  1.00  0.00    -0.264 OA
ATOM     55  H   UNL     1       3.171  -5.344   8.964  1.00  0.00     0.236 HD
ENDBRANCH  51  54
ENDBRANCH  50  51
ENDBRANCH   8  50
TORSDOF 19
ENDMDL
MODEL 21
REMARK VINA RESULT:    -6.970     14.814     17.946
REMARK INTER + INTRA:         -15.732
REMARK INTER:                 -11.186
REMARK INTRA:                  -4.546
REMARK UNBOUND:                -1.631
REMARK SMILES CC[C@@H](C)[C@@H](NC(=O)[C@@H](O)Cc1ccc(O)c(Cl)c1)C(=O)N1[C@H](C(=O)NCCCCN=C(N)N)C[C@H]2CC[C@H](OS(=O)(=O)O)C[C@@H]21
REMARK SMILES IDX 22 1 36 2 46 3 35 4 23 5 45 6 37 7 39 8 38 9 20 10 21 11
REMARK SMILES IDX 5 12 6 13 7 14 8 15 9 17 11 18 12 19 17 20 19 21 15 22 14 23
REMARK SMILES IDX 13 24 18 25 16 26 10 28 3 30 4 31 2 32 1 33 24 34 25 35
REMARK SMILES IDX 26 36 27 38 28 39 29 40 30 41 31 42 32 43 33 44 34 45 40 50
REMARK SMILES IDX 41 51 42 52 43 53 44 54
REMARK H PARENT 6 16 16 27 10 29 26 37 33 46 33 47 34 48 34 49 44 55
ROOT
ATOM      1  N   UNL     1      -2.338  -6.277  10.908  1.00  0.00    -0.326 N 
ATOM      2  C   UNL     1      -4.560  -6.812  11.473  1.00  0.00     0.014 C 
ATOM      3  C   UNL     1      -3.545  -6.874  10.328  1.00  0.00     0.091 C 
ATOM      4  C   UNL     1      -4.192  -5.515  12.177  1.00  0.00     0.041 C 
ATOM      5  C   UNL     1      -2.658  -5.652  12.215  1.00  0.00     0.175 C 
ATOM      6  C   UNL     1      -3.471  -8.315   9.825  1.00  0.00     0.059 C 
ATOM      7  C   UNL     1      -5.973  -7.001  10.956  1.00  0.00     0.008 C 
ATOM      8  C   UNL     1      -4.804  -9.085   9.948  1.00  0.00     0.143 C 
ATOM      9  C   UNL     1      -6.023  -8.141   9.916  1.00  0.00     0.034 C 
ENDROOT
BRANCH   1  10
ATOM     10  C   UNL     1      -1.099  -6.047  10.335  1.00  0.00     0.246 C 
ATOM     11  O   UNL     1      -0.084  -6.164  11.031  1.00  0.00    -0.272 OA
BRANCH  10  12
ATOM     12  C   UNL     1      -1.006  -5.690   8.823  1.00  0.00     0.174 C 
BRANCH  12  13
ATOM     13  N   UNL     1       0.187  -6.301   8.238  1.00  0.00    -0.342 N 
ATOM     14  C   UNL     1       0.235  -7.555   7.670  1.00  0.00     0.249 C 
ATOM     15  O   UNL     1      -0.736  -8.294   7.566  1.00  0.00    -0.272 OA
ATOM     16  H   UNL     1       1.097  -5.875   8.391  1.00  0.00     0.164 HD
BRANCH  14  17
ATOM     17  C   UNL     1       1.643  -7.922   7.157  1.00  0.00     0.207 C 
BRANCH  17  18
ATOM     18  C   UNL     1       1.732  -7.716   5.642  1.00  0.00     0.077 C 
BRANCH  18  19
ATOM     19  C   UNL     1       2.785  -6.696   5.274  1.00  0.00    -0.043 A 
ATOM     20  C   UNL     1       4.937  -6.155   4.292  1.00  0.00     0.083 A 
ATOM     21  C   UNL     1       3.944  -7.090   4.587  1.00  0.00     0.028 A 
ATOM     22  C   UNL     1       4.780  -4.824   4.682  1.00  0.00     0.134 A 
ATOM     23  C   UNL     1       3.637  -4.420   5.362  1.00  0.00     0.048 A 
ATOM     24  C   UNL     1       2.642  -5.354   5.660  1.00  0.00     0.008 A 
ATOM     25  Cl  UNL     1       6.354  -6.658   3.448  1.00  0.00    -0.080 Cl
BRANCH  22  26
ATOM     26  O   UNL     1       5.730  -3.873   4.425  1.00  0.00    -0.506 OA
ATOM     27  H   UNL     1       5.431  -3.053   4.860  1.00  0.00     0.293 HD
ENDBRANCH  22  26
ENDBRANCH  18  19
ENDBRANCH  17  18
BRANCH  17  28
ATOM     28  O   UNL     1       1.970  -9.285   7.473  1.00  0.00    -0.383 OA
ATOM     29  H   UNL     1       1.718  -9.414   8.416  1.00  0.00     0.211 HD
ENDBRANCH  17  28
ENDBRANCH  14  17
ENDBRANCH  12  13
BRANCH  12  30
ATOM     30  C   UNL     1      -1.077  -4.161   8.562  1.00  0.00     0.018 C 
ATOM     31  C   UNL     1      -0.649  -3.832   7.124  1.00  0.00     0.010 C 
BRANCH  30  32
ATOM     32  C   UNL     1      -0.254  -3.320   9.568  1.00  0.00     0.002 C 
ATOM     33  C   UNL     1      -1.073  -2.530  10.580  1.00  0.00     0.004 C 
ENDBRANCH  30  32
ENDBRANCH  12  30
ENDBRANCH  10  12
ENDBRANCH   1  10
BRANCH   5  34
ATOM     34  C   UNL     1      -2.193  -6.557  13.386  1.00  0.00     0.242 C 
ATOM     35  O   UNL     1      -2.433  -6.285  14.563  1.00  0.00    -0.273 OA
ATOM     36  N   UNL     1      -1.448  -7.654  13.019  1.00  0.00    -0.354 N 
ATOM     37  H   UNL     1      -1.180  -7.761  12.039  1.00  0.00     0.163 HD
BRANCH  36  38
ATOM     38  C   UNL     1      -1.118  -8.713  13.951  1.00  0.00     0.116 C 
BRANCH  38  39
ATOM     39  C   UNL     1      -2.170  -9.816  13.875  1.00  0.00     0.023 C 
BRANCH  39  40
ATOM     40  C   UNL     1      -1.573 -11.165  13.489  1.00  0.00     0.026 C 
BRANCH  40  41
ATOM     41  C   UNL     1      -0.309 -10.978  12.649  1.00  0.00     0.146 C 
BRANCH  41  42
ATOM     42  N   UNL     1      -0.593 -11.296  11.256  1.00  0.00    -0.254 NA
ATOM     43  C   UNL     1      -0.240 -10.479  10.336  1.00  0.00     0.185 C 
ATOM     44  N   UNL     1       0.393  -9.294  10.426  1.00  0.00    -0.370 N 
ATOM     45  N   UNL     1      -0.514 -10.788   9.058  1.00  0.00    -0.370 N 
ATOM     46  H   UNL     1       0.388  -8.650   9.654  1.00  0.00     0.159 HD
ATOM     47  H   UNL     1       0.687  -8.914  11.320  1.00  0.00     0.159 HD
ATOM     48  H   UNL     1      -0.983 -11.670   8.900  1.00  0.00     0.159 HD
ATOM     49  H   UNL     1      -0.071 -10.331   8.280  1.00  0.00     0.159 HD
ENDBRANCH  41  42
ENDBRANCH  40  41
ENDBRANCH  39  40
ENDBRANCH  38  39
ENDBRANCH  36  38
ENDBRANCH   5  34
BRANCH   8  50
ATOM     50  O   UNL     1      -4.833  -9.822  11.170  1.00  0.00    -0.245 OA
BRANCH  50  51
ATOM     51  S   UNL     1      -4.875 -11.447  11.127  1.00  0.00     0.397 S 
ATOM     52  O   UNL     1      -5.791 -11.842  10.080  1.00  0.00    -0.169 OA
ATOM     53  O   UNL     1      -4.991 -11.967  12.473  1.00  0.00    -0.169 OA
BRANCH  51  54
ATOM     54  O   UNL     1      -3.406 -11.807  10.582  1.00  0.00    -0.264 OA
ATOM     55  H   UNL     1      -3.480 -11.991   9.623  1.00  0.00     0.236 HD
ENDBRANCH  51  54
ENDBRANCH  50  51
ENDBRANCH   8  50
TORSDOF 19
ENDMDL
MODEL 22
REMARK VINA RESULT:    -6.963      8.108     11.545
REMARK INTER + INTRA:         -15.717
REMARK INTER:                 -12.939
REMARK INTRA:                  -2.778
REMARK UNBOUND:                -1.631
REMARK SMILES CC[C@@H](C)[C@@H](NC(=O)[C@@H](O)Cc1ccc(O)c(Cl)c1)C(=O)N1[C@H](C(=O)NCCCCN=C(N)N)C[C@H]2CC[C@H](OS(=O)(=O)O)C[C@@H]21
REMARK SMILES IDX 22 1 36 2 46 3 35 4 23 5 45 6 37 7 39 8 38 9 20 10 21 11
REMARK SMILES IDX 5 12 6 13 7 14 8 15 9 17 11 18 12 19 17 20 19 21 15 22 14 23
REMARK SMILES IDX 13 24 18 25 16 26 10 28 3 30 4 31 2 32 1 33 24 34 25 35
REMARK SMILES IDX 26 36 27 38 28 39 29 40 30 41 31 42 32 43 33 44 34 45 40 50
REMARK SMILES IDX 41 51 42 52 43 53 44 54
REMARK H PARENT 6 16 16 27 10 29 26 37 33 46 33 47 34 48 34 49 44 55
ROOT
ATOM      1  N   UNL     1       5.018   3.079  10.030  1.00  0.00    -0.326 N 
ATOM      2  C   UNL     1       5.769   5.099   9.082  1.00  0.00     0.014 C 
ATOM      3  C   UNL     1       4.819   3.921   8.847  1.00  0.00     0.091 C 
ATOM      4  C   UNL     1       6.943   4.445   9.793  1.00  0.00     0.041 C 
ATOM      5  C   UNL     1       6.190   3.558  10.803  1.00  0.00     0.175 C 
ATOM      6  C   UNL     1       3.420   4.474   8.579  1.00  0.00     0.059 C 
ATOM      7  C   UNL     1       6.011   5.864   7.796  1.00  0.00     0.008 C 
ATOM      8  C   UNL     1       3.420   5.844   7.866  1.00  0.00     0.143 C 
ATOM      9  C   UNL     1       4.691   6.056   7.019  1.00  0.00     0.034 C 
ENDROOT
BRANCH   1  10
ATOM     10  C   UNL     1       4.440   1.866  10.364  1.00  0.00     0.246 C 
ATOM     11  O   UNL     1       3.300   1.855  10.842  1.00  0.00    -0.272 OA
BRANCH  10  12
ATOM     12  C   UNL     1       5.217   0.545  10.092  1.00  0.00     0.174 C 
BRANCH  12  13
ATOM     13  N   UNL     1       4.864   0.022   8.773  1.00  0.00    -0.342 N 
ATOM     14  C   UNL     1       5.488   0.365   7.594  1.00  0.00     0.249 C 
ATOM     15  O   UNL     1       6.437   1.136   7.524  1.00  0.00    -0.272 OA
ATOM     16  H   UNL     1       4.001  -0.502   8.653  1.00  0.00     0.164 HD
BRANCH  14  17
ATOM     17  C   UNL     1       4.875  -0.343   6.367  1.00  0.00     0.207 C 
BRANCH  17  18
ATOM     18  C   UNL     1       5.901  -1.279   5.721  1.00  0.00     0.077 C 
BRANCH  18  19
ATOM     19  C   UNL     1       5.440  -2.720   5.745  1.00  0.00    -0.043 A 
ATOM     20  C   UNL     1       5.560  -4.980   4.872  1.00  0.00     0.083 A 
ATOM     21  C   UNL     1       6.022  -3.663   4.883  1.00  0.00     0.028 A 
ATOM     22  C   UNL     1       4.518  -5.361   5.718  1.00  0.00     0.134 A 
ATOM     23  C   UNL     1       3.933  -4.437   6.576  1.00  0.00     0.048 A 
ATOM     24  C   UNL     1       4.392  -3.118   6.588  1.00  0.00     0.008 A 
ATOM     25  Cl  UNL     1       6.287  -6.124   3.806  1.00  0.00    -0.080 Cl
BRANCH  22  26
ATOM     26  O   UNL     1       4.025  -6.638   5.735  1.00  0.00    -0.506 OA
ATOM     27  H   UNL     1       3.890  -6.899   4.805  1.00  0.00     0.293 HD
ENDBRANCH  22  26
ENDBRANCH  18  19
ENDBRANCH  17  18
BRANCH  17  28
ATOM     28  O   UNL     1       4.420   0.610   5.394  1.00  0.00    -0.383 OA
ATOM     29  H   UNL     1       5.058   1.359   5.427  1.00  0.00     0.211 HD
ENDBRANCH  17  28
ENDBRANCH  14  17
ENDBRANCH  12  13
BRANCH  12  30
ATOM     30  C   UNL     1       5.024  -0.507  11.217  1.00  0.00     0.018 C 
ATOM     31  C   UNL     1       5.765  -0.083  12.495  1.00  0.00     0.010 C 
BRANCH  30  32
ATOM     32  C   UNL     1       5.445  -1.939  10.808  1.00  0.00     0.002 C 
ATOM     33  C   UNL     1       6.945  -2.156  10.650  1.00  0.00     0.004 C 
ENDBRANCH  30  32
ENDBRANCH  12  30
ENDBRANCH  10  12
ENDBRANCH   1  10
BRANCH   5  34
ATOM     34  C   UNL     1       5.736   4.367  12.047  1.00  0.00     0.242 C 
ATOM     35  O   UNL     1       4.553   4.628  12.266  1.00  0.00    -0.273 OA
ATOM     36  N   UNL     1       6.755   4.817  12.857  1.00  0.00    -0.354 N 
ATOM     37  H   UNL     1       7.720   4.672  12.559  1.00  0.00     0.163 HD
BRANCH  36  38
ATOM     38  C   UNL     1       6.507   5.395  14.162  1.00  0.00     0.116 C 
BRANCH  38  39
ATOM     39  C   UNL     1       6.296   6.902  14.029  1.00  0.00     0.023 C 
BRANCH  39  40
ATOM     40  C   UNL     1       5.167   7.412  14.918  1.00  0.00     0.026 C 
BRANCH  40  41
ATOM     41  C   UNL     1       4.362   6.247  15.495  1.00  0.00     0.146 C 
BRANCH  41  42
ATOM     42  N   UNL     1       2.993   6.674  15.753  1.00  0.00    -0.254 NA
ATOM     43  C   UNL     1       2.028   6.118  15.122  1.00  0.00     0.185 C 
ATOM     44  N   UNL     1       2.047   5.139  14.199  1.00  0.00    -0.370 N 
ATOM     45  N   UNL     1       0.773   6.528  15.370  1.00  0.00    -0.370 N 
ATOM     46  H   UNL     1       1.247   4.970  13.614  1.00  0.00     0.159 HD
ATOM     47  H   UNL     1       2.915   4.703  13.903  1.00  0.00     0.159 HD
ATOM     48  H   UNL     1       0.669   7.259  16.061  1.00  0.00     0.159 HD
ATOM     49  H   UNL     1      -0.036   5.995  15.105  1.00  0.00     0.159 HD
ENDBRANCH  41  42
ENDBRANCH  40  41
ENDBRANCH  39  40
ENDBRANCH  38  39
ENDBRANCH  36  38
ENDBRANCH   5  34
BRANCH   8  50
ATOM     50  O   UNL     1       3.333   6.896   8.826  1.00  0.00    -0.245 OA
BRANCH  50  51
ATOM     51  S   UNL     1       2.855   8.377   8.354  1.00  0.00     0.397 S 
ATOM     52  O   UNL     1       4.011   9.246   8.368  1.00  0.00    -0.169 OA
ATOM     53  O   UNL     1       1.629   8.733   9.037  1.00  0.00    -0.169 OA
BRANCH  51  54
ATOM     54  O   UNL     1       2.507   8.138   6.802  1.00  0.00    -0.264 OA
ATOM     55  H   UNL     1       3.280   7.705   6.386  1.00  0.00     0.236 HD
ENDBRANCH  51  54
ENDBRANCH  50  51
ENDBRANCH   8  50
TORSDOF 19
ENDMDL
MODEL 23
REMARK VINA RESULT:    -6.941     14.310     17.256
REMARK INTER + INTRA:         -15.673
REMARK INTER:                 -12.154
REMARK INTRA:                  -3.518
REMARK UNBOUND:                -1.631
REMARK SMILES CC[C@@H](C)[C@@H](NC(=O)[C@@H](O)Cc1ccc(O)c(Cl)c1)C(=O)N1[C@H](C(=O)NCCCCN=C(N)N)C[C@H]2CC[C@H](OS(=O)(=O)O)C[C@@H]21
REMARK SMILES IDX 22 1 36 2 46 3 35 4 23 5 45 6 37 7 39 8 38 9 20 10 21 11
REMARK SMILES IDX 5 12 6 13 7 14 8 15 9 17 11 18 12 19 17 20 19 21 15 22 14 23
REMARK SMILES IDX 13 24 18 25 16 26 10 28 3 30 4 31 2 32 1 33 24 34 25 35
REMARK SMILES IDX 26 36 27 38 28 39 29 40 30 41 31 42 32 43 33 44 34 45 40 50
REMARK SMILES IDX 41 51 42 52 43 53 44 54
REMARK H PARENT 6 16 16 27 10 29 26 37 33 46 33 47 34 48 34 49 44 55
ROOT
ATOM      1  N   UNL     1       0.032  -5.729  11.646  1.00  0.00    -0.326 N 
ATOM      2  C   UNL     1      -1.655  -6.208  13.216  1.00  0.00     0.014 C 
ATOM      3  C   UNL     1      -1.334  -5.335  11.999  1.00  0.00     0.091 C 
ATOM      4  C   UNL     1      -0.311  -6.306  13.921  1.00  0.00     0.041 C 
ATOM      5  C   UNL     1       0.609  -6.579  12.717  1.00  0.00     0.175 C 
ATOM      6  C   UNL     1      -2.437  -5.532  10.960  1.00  0.00     0.059 C 
ATOM      7  C   UNL     1      -2.853  -5.666  13.972  1.00  0.00     0.008 C 
ATOM      8  C   UNL     1      -3.823  -5.825  11.573  1.00  0.00     0.143 C 
ATOM      9  C   UNL     1      -3.965  -5.238  12.992  1.00  0.00     0.034 C 
ENDROOT
BRANCH   1  10
ATOM     10  C   UNL     1       0.858  -5.264  10.636  1.00  0.00     0.246 C 
ATOM     11  O   UNL     1       2.062  -5.110  10.867  1.00  0.00    -0.272 OA
BRANCH  10  12
ATOM     12  C   UNL     1       0.261  -4.985   9.226  1.00  0.00     0.174 C 
BRANCH  12  13
ATOM     13  N   UNL     1       0.864  -5.884   8.243  1.00  0.00    -0.342 N 
ATOM     14  C   UNL     1       0.298  -7.056   7.793  1.00  0.00     0.249 C 
ATOM     15  O   UNL     1      -0.800  -7.464   8.150  1.00  0.00    -0.272 OA
ATOM     16  H   UNL     1       1.837  -5.759   7.976  1.00  0.00     0.164 HD
BRANCH  14  17
ATOM     17  C   UNL     1       1.188  -7.792   6.769  1.00  0.00     0.207 C 
BRANCH  17  18
ATOM     18  C   UNL     1       1.254  -7.008   5.455  1.00  0.00     0.077 C 
BRANCH  18  19
ATOM     19  C   UNL     1       2.665  -6.569   5.133  1.00  0.00    -0.043 A 
ATOM     20  C   UNL     1       4.353  -4.830   5.026  1.00  0.00     0.083 A 
ATOM     21  C   UNL     1       3.066  -5.245   5.370  1.00  0.00     0.028 A 
ATOM     22  C   UNL     1       5.245  -5.731   4.444  1.00  0.00     0.134 A 
ATOM     23  C   UNL     1       4.861  -7.046   4.204  1.00  0.00     0.048 A 
ATOM     24  C   UNL     1       3.573  -7.463   4.546  1.00  0.00     0.008 A 
ATOM     25  Cl  UNL     1       4.827  -3.199   5.324  1.00  0.00    -0.080 Cl
BRANCH  22  26
ATOM     26  O   UNL     1       6.513  -5.368   4.080  1.00  0.00    -0.506 OA
ATOM     27  H   UNL     1       6.483  -5.161   3.128  1.00  0.00     0.293 HD
ENDBRANCH  22  26
ENDBRANCH  18  19
ENDBRANCH  17  18
BRANCH  17  28
ATOM     28  O   UNL     1       0.692  -9.116   6.510  1.00  0.00    -0.383 OA
ATOM     29  H   UNL     1       1.082  -9.693   7.205  1.00  0.00     0.211 HD
ENDBRANCH  17  28
ENDBRANCH  14  17
ENDBRANCH  12  13
BRANCH  12  30
ATOM     30  C   UNL     1       0.375  -3.493   8.811  1.00  0.00     0.018 C 
ATOM     31  C   UNL     1      -0.569  -2.619   9.652  1.00  0.00     0.010 C 
BRANCH  30  32
ATOM     32  C   UNL     1       0.126  -3.246   7.303  1.00  0.00     0.002 C 
ATOM     33  C   UNL     1      -1.332  -3.311   6.865  1.00  0.00     0.004 C 
ENDBRANCH  30  32
ENDBRANCH  12  30
ENDBRANCH  10  12
ENDBRANCH   1  10
BRANCH   5  34
ATOM     34  C   UNL     1       0.584  -8.075  12.306  1.00  0.00     0.242 C 
ATOM     35  O   UNL     1       1.139  -8.950  12.972  1.00  0.00    -0.273 OA
ATOM     36  N   UNL     1      -0.055  -8.345  11.117  1.00  0.00    -0.354 N 
ATOM     37  H   UNL     1      -0.389  -7.565  10.550  1.00  0.00     0.163 HD
BRANCH  36  38
ATOM     38  C   UNL     1      -0.359  -9.696  10.692  1.00  0.00     0.116 C 
BRANCH  38  39
ATOM     39  C   UNL     1      -1.808 -10.033  11.034  1.00  0.00     0.023 C 
BRANCH  39  40
ATOM     40  C   UNL     1      -1.918 -11.173  12.041  1.00  0.00     0.026 C 
BRANCH  40  41
ATOM     41  C   UNL     1      -3.239 -11.922  11.870  1.00  0.00     0.146 C 
BRANCH  41  42
ATOM     42  N   UNL     1      -3.854 -11.552  10.601  1.00  0.00    -0.254 NA
ATOM     43  C   UNL     1      -4.125 -12.460   9.741  1.00  0.00     0.185 C 
ATOM     44  N   UNL     1      -3.933 -13.791   9.796  1.00  0.00    -0.370 N 
ATOM     45  N   UNL     1      -4.687 -12.098   8.576  1.00  0.00    -0.370 N 
ATOM     46  H   UNL     1      -3.965 -14.349   8.960  1.00  0.00     0.159 HD
ATOM     47  H   UNL     1      -3.529 -14.237  10.614  1.00  0.00     0.159 HD
ATOM     48  H   UNL     1      -4.874 -11.112   8.456  1.00  0.00     0.159 HD
ATOM     49  H   UNL     1      -5.139 -12.753   7.963  1.00  0.00     0.159 HD
ENDBRANCH  41  42
ENDBRANCH  40  41
ENDBRANCH  39  40
ENDBRANCH  38  39
ENDBRANCH  36  38
ENDBRANCH   5  34
BRANCH   8  50
ATOM     50  O   UNL     1      -4.041  -7.234  11.642  1.00  0.00    -0.245 OA
BRANCH  50  51
ATOM     51  S   UNL     1      -5.562  -7.811  11.679  1.00  0.00     0.397 S 
ATOM     52  O   UNL     1      -6.384  -6.954  10.854  1.00  0.00    -0.169 OA
ATOM     53  O   UNL     1      -5.927  -8.131  13.043  1.00  0.00    -0.169 OA
BRANCH  51  54
ATOM     54  O   UNL     1      -5.417  -9.192  10.867  1.00  0.00    -0.264 OA
ATOM     55  H   UNL     1      -6.301  -9.610  10.829  1.00  0.00     0.236 HD
ENDBRANCH  51  54
ENDBRANCH  50  51
ENDBRANCH   8  50
TORSDOF 19
ENDMDL
MODEL 24
REMARK VINA RESULT:    -6.892      5.862      9.557
REMARK INTER + INTRA:         -15.573
REMARK INTER:                 -12.679
REMARK INTRA:                  -2.894
REMARK UNBOUND:                -1.631
REMARK SMILES CC[C@@H](C)[C@@H](NC(=O)[C@@H](O)Cc1ccc(O)c(Cl)c1)C(=O)N1[C@H](C(=O)NCCCCN=C(N)N)C[C@H]2CC[C@H](OS(=O)(=O)O)C[C@@H]21
REMARK SMILES IDX 22 1 36 2 46 3 35 4 23 5 45 6 37 7 39 8 38 9 20 10 21 11
REMARK SMILES IDX 5 12 6 13 7 14 8 15 9 17 11 18 12 19 17 20 19 21 15 22 14 23
REMARK SMILES IDX 13 24 18 25 16 26 10 28 3 30 4 31 2 32 1 33 24 34 25 35
REMARK SMILES IDX 26 36 27 38 28 39 29 40 30 41 31 42 32 43 33 44 34 45 40 50
REMARK SMILES IDX 41 51 42 52 43 53 44 54
REMARK H PARENT 6 16 16 27 10 29 26 37 33 46 33 47 34 48 34 49 44 55
ROOT
ATOM      1  N   UNL     1       7.149   4.012  10.649  1.00  0.00    -0.326 N 
ATOM      2  C   UNL     1       6.905   3.569  12.949  1.00  0.00     0.014 C 
ATOM      3  C   UNL     1       7.485   4.582  11.958  1.00  0.00     0.091 C 
ATOM      4  C   UNL     1       7.107   2.244  12.230  1.00  0.00     0.041 C 
ATOM      5  C   UNL     1       6.641   2.628  10.814  1.00  0.00     0.175 C 
ATOM      6  C   UNL     1       6.941   5.966  12.307  1.00  0.00     0.059 C 
ATOM      7  C   UNL     1       7.497   3.762  14.331  1.00  0.00     0.008 C 
ATOM      8  C   UNL     1       6.675   6.166  13.815  1.00  0.00     0.143 C 
ATOM      9  C   UNL     1       7.570   5.262  14.686  1.00  0.00     0.034 C 
ENDROOT
BRANCH   1  10
ATOM     10  C   UNL     1       7.434   4.480   9.378  1.00  0.00     0.246 C 
ATOM     11  O   UNL     1       8.575   4.337   8.926  1.00  0.00    -0.272 OA
BRANCH  10  12
ATOM     12  C   UNL     1       6.304   5.135   8.531  1.00  0.00     0.174 C 
BRANCH  12  13
ATOM     13  N   UNL     1       6.029   4.318   7.350  1.00  0.00    -0.342 N 
ATOM     14  C   UNL     1       4.819   3.727   7.063  1.00  0.00     0.249 C 
ATOM     15  O   UNL     1       3.819   3.846   7.761  1.00  0.00    -0.272 OA
ATOM     16  H   UNL     1       6.798   4.003   6.764  1.00  0.00     0.164 HD
BRANCH  14  17
ATOM     17  C   UNL     1       4.850   2.913   5.752  1.00  0.00     0.207 C 
BRANCH  17  18
ATOM     18  C   UNL     1       3.831   3.469   4.752  1.00  0.00     0.077 C 
BRANCH  18  19
ATOM     19  C   UNL     1       4.505   4.052   3.530  1.00  0.00    -0.043 A 
ATOM     20  C   UNL     1       6.403   5.159   2.502  1.00  0.00     0.083 A 
ATOM     21  C   UNL     1       5.804   4.576   3.620  1.00  0.00     0.028 A 
ATOM     22  C   UNL     1       5.712   5.222   1.292  1.00  0.00     0.134 A 
ATOM     23  C   UNL     1       4.425   4.707   1.189  1.00  0.00     0.048 A 
ATOM     24  C   UNL     1       3.821   4.125   2.307  1.00  0.00     0.008 A 
ATOM     25  Cl  UNL     1       8.000   5.797   2.632  1.00  0.00    -0.080 Cl
BRANCH  22  26
ATOM     26  O   UNL     1       6.254   5.793   0.173  1.00  0.00    -0.506 OA
ATOM     27  H   UNL     1       6.003   6.735   0.189  1.00  0.00     0.293 HD
ENDBRANCH  22  26
ENDBRANCH  18  19
ENDBRANCH  17  18
BRANCH  17  28
ATOM     28  O   UNL     1       4.567   1.525   5.998  1.00  0.00    -0.383 OA
ATOM     29  H   UNL     1       5.387   1.035   5.761  1.00  0.00     0.211 HD
ENDBRANCH  17  28
ENDBRANCH  14  17
ENDBRANCH  12  13
BRANCH  12  30
ATOM     30  C   UNL     1       6.607   6.615   8.170  1.00  0.00     0.018 C 
ATOM     31  C   UNL     1       6.759   7.467   9.439  1.00  0.00     0.010 C 
BRANCH  30  32
ATOM     32  C   UNL     1       5.558   7.251   7.225  1.00  0.00     0.002 C 
ATOM     33  C   UNL     1       4.410   7.973   7.919  1.00  0.00     0.004 C 
ENDBRANCH  30  32
ENDBRANCH  12  30
ENDBRANCH  10  12
ENDBRANCH   1  10
BRANCH   5  34
ATOM     34  C   UNL     1       5.094   2.592  10.692  1.00  0.00     0.242 C 
ATOM     35  O   UNL     1       4.494   1.629  10.214  1.00  0.00    -0.273 OA
ATOM     36  N   UNL     1       4.447   3.735  11.105  1.00  0.00    -0.354 N 
ATOM     37  H   UNL     1       5.005   4.544  11.379  1.00  0.00     0.163 HD
BRANCH  36  38
ATOM     38  C   UNL     1       3.008   3.794  11.263  1.00  0.00     0.116 C 
BRANCH  38  39
ATOM     39  C   UNL     1       2.618   3.299  12.653  1.00  0.00     0.023 C 
BRANCH  39  40
ATOM     40  C   UNL     1       2.038   4.407  13.526  1.00  0.00     0.026 C 
BRANCH  40  41
ATOM     41  C   UNL     1       1.117   3.825  14.599  1.00  0.00     0.146 C 
BRANCH  41  42
ATOM     42  N   UNL     1       1.567   4.252  15.917  1.00  0.00    -0.254 NA
ATOM     43  C   UNL     1       1.171   5.374  16.389  1.00  0.00     0.185 C 
ATOM     44  N   UNL     1       0.356   6.300  15.851  1.00  0.00    -0.370 N 
ATOM     45  N   UNL     1       1.601   5.751  17.604  1.00  0.00    -0.370 N 
ATOM     46  H   UNL     1       0.326   7.235  16.221  1.00  0.00     0.159 HD
ATOM     47  H   UNL     1      -0.071   6.169  14.939  1.00  0.00     0.159 HD
ATOM     48  H   UNL     1       2.214   5.106  18.083  1.00  0.00     0.159 HD
ATOM     49  H   UNL     1       1.161   6.483  18.134  1.00  0.00     0.159 HD
ENDBRANCH  41  42
ENDBRANCH  40  41
ENDBRANCH  39  40
ENDBRANCH  38  39
ENDBRANCH  36  38
ENDBRANCH   5  34
BRANCH   8  50
ATOM     50  O   UNL     1       5.309   5.875  14.114  1.00  0.00    -0.245 OA
BRANCH  50  51
ATOM     51  S   UNL     1       4.539   6.731  15.263  1.00  0.00     0.397 S 
ATOM     52  O   UNL     1       4.572   5.965  16.488  1.00  0.00    -0.169 OA
ATOM     53  O   UNL     1       3.300   7.258  14.729  1.00  0.00    -0.169 OA
BRANCH  51  54
ATOM     54  O   UNL     1       5.544   7.966  15.492  1.00  0.00    -0.264 OA
ATOM     55  H   UNL     1       5.439   8.269  16.417  1.00  0.00     0.236 HD
ENDBRANCH  51  54
ENDBRANCH  50  51
ENDBRANCH   8  50
TORSDOF 19
ENDMDL
MODEL 25
REMARK VINA RESULT:    -6.875      6.509     10.829
REMARK INTER + INTRA:         -15.539
REMARK INTER:                 -12.140
REMARK INTRA:                  -3.399
REMARK UNBOUND:                -1.631
REMARK SMILES CC[C@@H](C)[C@@H](NC(=O)[C@@H](O)Cc1ccc(O)c(Cl)c1)C(=O)N1[C@H](C(=O)NCCCCN=C(N)N)C[C@H]2CC[C@H](OS(=O)(=O)O)C[C@@H]21
REMARK SMILES IDX 22 1 36 2 46 3 35 4 23 5 45 6 37 7 39 8 38 9 20 10 21 11
REMARK SMILES IDX 5 12 6 13 7 14 8 15 9 17 11 18 12 19 17 20 19 21 15 22 14 23
REMARK SMILES IDX 13 24 18 25 16 26 10 28 3 30 4 31 2 32 1 33 24 34 25 35
REMARK SMILES IDX 26 36 27 38 28 39 29 40 30 41 31 42 32 43 33 44 34 45 40 50
REMARK SMILES IDX 41 51 42 52 43 53 44 54
REMARK H PARENT 6 16 16 27 10 29 26 37 33 46 33 47 34 48 34 49 44 55
ROOT
ATOM      1  N   UNL     1       6.026   1.792  11.539  1.00  0.00    -0.326 N 
ATOM      2  C   UNL     1       5.960   2.454  13.797  1.00  0.00     0.014 C 
ATOM      3  C   UNL     1       6.873   2.398  12.570  1.00  0.00     0.091 C 
ATOM      4  C   UNL     1       5.122   1.193  13.649  1.00  0.00     0.041 C 
ATOM      5  C   UNL     1       4.779   1.269  12.150  1.00  0.00     0.175 C 
ATOM      6  C   UNL     1       7.431   3.798  12.319  1.00  0.00     0.059 C 
ATOM      7  C   UNL     1       6.766   2.666  15.064  1.00  0.00     0.008 C 
ATOM      8  C   UNL     1       7.628   4.628  13.605  1.00  0.00     0.143 C 
ATOM      9  C   UNL     1       7.856   3.735  14.842  1.00  0.00     0.034 C 
ENDROOT
BRANCH   1  10
ATOM     10  C   UNL     1       6.318   1.474  10.223  1.00  0.00     0.246 C 
ATOM     11  O   UNL     1       6.325   0.288   9.879  1.00  0.00    -0.272 OA
BRANCH  10  12
ATOM     12  C   UNL     1       6.587   2.615   9.200  1.00  0.00     0.174 C 
BRANCH  12  13
ATOM     13  N   UNL     1       5.329   3.263   8.833  1.00  0.00    -0.342 N 
ATOM     14  C   UNL     1       4.992   4.563   9.135  1.00  0.00     0.249 C 
ATOM     15  O   UNL     1       5.730   5.339   9.729  1.00  0.00    -0.272 OA
ATOM     16  H   UNL     1       4.559   2.703   8.476  1.00  0.00     0.164 HD
BRANCH  14  17
ATOM     17  C   UNL     1       3.587   4.948   8.625  1.00  0.00     0.207 C 
BRANCH  17  18
ATOM     18  C   UNL     1       3.682   6.077   7.594  1.00  0.00     0.077 C 
BRANCH  18  19
ATOM     19  C   UNL     1       4.456   5.654   6.366  1.00  0.00    -0.043 A 
ATOM     20  C   UNL     1       6.425   5.825   4.959  1.00  0.00     0.083 A 
ATOM     21  C   UNL     1       5.733   6.181   6.118  1.00  0.00     0.028 A 
ATOM     22  C   UNL     1       5.847   4.946   4.043  1.00  0.00     0.134 A 
ATOM     23  C   UNL     1       4.583   4.416   4.277  1.00  0.00     0.048 A 
ATOM     24  C   UNL     1       3.888   4.771   5.435  1.00  0.00     0.008 A 
ATOM     25  Cl  UNL     1       7.992   6.484   4.671  1.00  0.00    -0.080 Cl
BRANCH  22  26
ATOM     26  O   UNL     1       6.482   4.576   2.888  1.00  0.00    -0.506 OA
ATOM     27  H   UNL     1       6.243   3.645   2.723  1.00  0.00     0.293 HD
ENDBRANCH  22  26
ENDBRANCH  18  19
ENDBRANCH  17  18
BRANCH  17  28
ATOM     28  O   UNL     1       2.739   5.362   9.709  1.00  0.00    -0.383 OA
ATOM     29  H   UNL     1       1.977   4.740   9.711  1.00  0.00     0.211 HD
ENDBRANCH  17  28
ENDBRANCH  14  17
ENDBRANCH  12  13
BRANCH  12  30
ATOM     30  C   UNL     1       7.389   2.133   7.961  1.00  0.00     0.018 C 
ATOM     31  C   UNL     1       8.765   2.815   7.902  1.00  0.00     0.010 C 
BRANCH  30  32
ATOM     32  C   UNL     1       6.640   2.329   6.621  1.00  0.00     0.002 C 
ATOM     33  C   UNL     1       5.733   1.177   6.208  1.00  0.00     0.004 C 
ENDBRANCH  30  32
ENDBRANCH  12  30
ENDBRANCH  10  12
ENDBRANCH   1  10
BRANCH   5  34
ATOM     34  C   UNL     1       3.590   2.230  11.883  1.00  0.00     0.242 C 
ATOM     35  O   UNL     1       3.098   2.374  10.764  1.00  0.00    -0.273 OA
ATOM     36  N   UNL     1       3.161   2.948  12.977  1.00  0.00    -0.354 N 
ATOM     37  H   UNL     1       3.685   2.875  13.850  1.00  0.00     0.163 HD
BRANCH  36  38
ATOM     38  C   UNL     1       1.937   3.722  12.962  1.00  0.00     0.116 C 
BRANCH  38  39
ATOM     39  C   UNL     1       1.746   4.416  14.309  1.00  0.00     0.023 C 
BRANCH  39  40
ATOM     40  C   UNL     1       2.754   5.538  14.534  1.00  0.00     0.026 C 
BRANCH  40  41
ATOM     41  C   UNL     1       2.225   6.545  15.556  1.00  0.00     0.146 C 
BRANCH  41  42
ATOM     42  N   UNL     1       0.818   6.279  15.825  1.00  0.00    -0.254 NA
ATOM     43  C   UNL     1       0.470   5.805  16.962  1.00  0.00     0.185 C 
ATOM     44  N   UNL     1       1.220   5.485  18.033  1.00  0.00    -0.370 N 
ATOM     45  N   UNL     1      -0.832   5.564  17.190  1.00  0.00    -0.370 N 
ATOM     46  H   UNL     1       0.850   4.898  18.761  1.00  0.00     0.159 HD
ATOM     47  H   UNL     1       2.226   5.617  18.037  1.00  0.00     0.159 HD
ATOM     48  H   UNL     1      -1.467   5.786  16.436  1.00  0.00     0.159 HD
ATOM     49  H   UNL     1      -1.206   5.423  18.111  1.00  0.00     0.159 HD
ENDBRANCH  41  42
ENDBRANCH  40  41
ENDBRANCH  39  40
ENDBRANCH  38  39
ENDBRANCH  36  38
ENDBRANCH   5  34
BRANCH   8  50
ATOM     50  O   UNL     1       6.482   5.446  13.842  1.00  0.00    -0.245 OA
BRANCH  50  51
ATOM     51  S   UNL     1       6.649   7.062  13.913  1.00  0.00     0.397 S 
ATOM     52  O   UNL     1       7.914   7.353  14.549  1.00  0.00    -0.169 OA
ATOM     53  O   UNL     1       5.413   7.659  14.373  1.00  0.00    -0.169 OA
BRANCH  51  54
ATOM     54  O   UNL     1       6.839   7.448  12.363  1.00  0.00    -0.264 OA
ATOM     55  H   UNL     1       6.656   8.405  12.270  1.00  0.00     0.236 HD
ENDBRANCH  51  54
ENDBRANCH  50  51
ENDBRANCH   8  50
TORSDOF 19
ENDMDL
MODEL 26
REMARK VINA RESULT:    -6.852      5.616      8.889
REMARK INTER + INTRA:         -15.493
REMARK INTER:                 -13.114
REMARK INTRA:                  -2.380
REMARK UNBOUND:                -1.631
REMARK SMILES CC[C@@H](C)[C@@H](NC(=O)[C@@H](O)Cc1ccc(O)c(Cl)c1)C(=O)N1[C@H](C(=O)NCCCCN=C(N)N)C[C@H]2CC[C@H](OS(=O)(=O)O)C[C@@H]21
REMARK SMILES IDX 22 1 36 2 46 3 35 4 23 5 45 6 37 7 39 8 38 9 20 10 21 11
REMARK SMILES IDX 5 12 6 13 7 14 8 15 9 17 11 18 12 19 17 20 19 21 15 22 14 23
REMARK SMILES IDX 13 24 18 25 16 26 10 28 3 30 4 31 2 32 1 33 24 34 25 35
REMARK SMILES IDX 26 36 27 38 28 39 29 40 30 41 31 42 32 43 33 44 34 45 40 50
REMARK SMILES IDX 41 51 42 52 43 53 44 54
REMARK H PARENT 6 16 16 27 10 29 26 37 33 46 33 47 34 48 34 49 44 55
ROOT
ATOM      1  N   UNL     1       6.767   3.571   7.422  1.00  0.00    -0.326 N 
ATOM      2  C   UNL     1       6.335   1.260   7.559  1.00  0.00     0.014 C 
ATOM      3  C   UNL     1       7.320   2.285   6.988  1.00  0.00     0.091 C 
ATOM      4  C   UNL     1       5.002   1.986   7.458  1.00  0.00     0.041 C 
ATOM      5  C   UNL     1       5.407   3.375   7.984  1.00  0.00     0.175 C 
ATOM      6  C   UNL     1       8.728   1.909   7.448  1.00  0.00     0.059 C 
ATOM      7  C   UNL     1       6.501  -0.087   6.883  1.00  0.00     0.008 C 
ATOM      8  C   UNL     1       8.940   0.390   7.621  1.00  0.00     0.143 C 
ATOM      9  C   UNL     1       7.997  -0.433   6.722  1.00  0.00     0.034 C 
ENDROOT
BRANCH   1  10
ATOM     10  C   UNL     1       7.221   4.857   7.187  1.00  0.00     0.246 C 
ATOM     11  O   UNL     1       7.887   5.428   8.057  1.00  0.00    -0.272 OA
BRANCH  10  12
ATOM     12  C   UNL     1       6.921   5.538   5.820  1.00  0.00     0.174 C 
BRANCH  12  13
ATOM     13  N   UNL     1       6.141   4.636   4.974  1.00  0.00    -0.342 N 
ATOM     14  C   UNL     1       4.777   4.695   4.802  1.00  0.00     0.249 C 
ATOM     15  O   UNL     1       4.060   5.539   5.325  1.00  0.00    -0.272 OA
ATOM     16  H   UNL     1       6.574   3.793   4.603  1.00  0.00     0.164 HD
BRANCH  14  17
ATOM     17  C   UNL     1       4.246   3.594   3.860  1.00  0.00     0.207 C 
BRANCH  17  18
ATOM     18  C   UNL     1       3.355   4.202   2.773  1.00  0.00     0.077 C 
BRANCH  18  19
ATOM     19  C   UNL     1       4.144   4.562   1.534  1.00  0.00    -0.043 A 
ATOM     20  C   UNL     1       6.224   4.537   0.286  1.00  0.00     0.083 A 
ATOM     21  C   UNL     1       5.484   4.162   1.408  1.00  0.00     0.028 A 
ATOM     22  C   UNL     1       5.634   5.313  -0.712  1.00  0.00     0.134 A 
ATOM     23  C   UNL     1       4.309   5.716  -0.600  1.00  0.00     0.048 A 
ATOM     24  C   UNL     1       3.565   5.343   0.523  1.00  0.00     0.008 A 
ATOM     25  Cl  UNL     1       7.869   4.037   0.149  1.00  0.00    -0.080 Cl
BRANCH  22  26
ATOM     26  O   UNL     1       6.323   5.715  -1.825  1.00  0.00    -0.506 OA
ATOM     27  H   UNL     1       5.693   6.210  -2.381  1.00  0.00     0.293 HD
ENDBRANCH  22  26
ENDBRANCH  18  19
ENDBRANCH  17  18
BRANCH  17  28
ATOM     28  O   UNL     1       3.502   2.604   4.588  1.00  0.00    -0.383 OA
ATOM     29  H   UNL     1       2.749   3.082   5.005  1.00  0.00     0.211 HD
ENDBRANCH  17  28
ENDBRANCH  14  17
ENDBRANCH  12  13
BRANCH  12  30
ATOM     30  C   UNL     1       8.203   6.054   5.113  1.00  0.00     0.018 C 
ATOM     31  C   UNL     1       8.334   7.578   5.262  1.00  0.00     0.010 C 
BRANCH  30  32
ATOM     32  C   UNL     1       8.292   5.656   3.619  1.00  0.00     0.002 C 
ATOM     33  C   UNL     1       7.971   6.768   2.629  1.00  0.00     0.004 C 
ENDBRANCH  30  32
ENDBRANCH  12  30
ENDBRANCH  10  12
ENDBRANCH   1  10
BRANCH   5  34
ATOM     34  C   UNL     1       5.442   3.411   9.535  1.00  0.00     0.242 C 
ATOM     35  O   UNL     1       6.497   3.454  10.169  1.00  0.00    -0.273 OA
ATOM     36  N   UNL     1       4.213   3.337  10.150  1.00  0.00    -0.354 N 
ATOM     37  H   UNL     1       3.384   3.182   9.575  1.00  0.00     0.163 HD
BRANCH  36  38
ATOM     38  C   UNL     1       4.043   3.573  11.569  1.00  0.00     0.116 C 
BRANCH  38  39
ATOM     39  C   UNL     1       2.584   3.349  11.961  1.00  0.00     0.023 C 
BRANCH  39  40
ATOM     40  C   UNL     1       2.195   4.115  13.221  1.00  0.00     0.026 C 
BRANCH  40  41
ATOM     41  C   UNL     1       2.031   3.162  14.405  1.00  0.00     0.146 C 
BRANCH  41  42
ATOM     42  N   UNL     1       0.667   3.236  14.912  1.00  0.00    -0.254 NA
ATOM     43  C   UNL     1       0.466   3.445  16.159  1.00  0.00     0.185 C 
ATOM     44  N   UNL     1       1.348   3.621  17.160  1.00  0.00    -0.370 N 
ATOM     45  N   UNL     1      -0.799   3.506  16.608  1.00  0.00    -0.370 N 
ATOM     46  H   UNL     1       1.059   3.531  18.120  1.00  0.00     0.159 HD
ATOM     47  H   UNL     1       2.349   3.618  16.995  1.00  0.00     0.159 HD
ATOM     48  H   UNL     1      -1.526   3.392  15.915  1.00  0.00     0.159 HD
ATOM     49  H   UNL     1      -1.040   3.894  17.502  1.00  0.00     0.159 HD
ENDBRANCH  41  42
ENDBRANCH  40  41
ENDBRANCH  39  40
ENDBRANCH  38  39
ENDBRANCH  36  38
ENDBRANCH   5  34
BRANCH   8  50
ATOM     50  O   UNL     1       8.713   0.014   8.980  1.00  0.00    -0.245 OA
BRANCH  50  51
ATOM     51  S   UNL     1       9.764   0.484  10.129  1.00  0.00     0.397 S 
ATOM     52  O   UNL     1      11.012   0.821   9.482  1.00  0.00    -0.169 OA
ATOM     53  O   UNL     1       9.711  -0.441  11.243  1.00  0.00    -0.169 OA
BRANCH  51  54
ATOM     54  O   UNL     1       9.130   1.880  10.614  1.00  0.00    -0.264 OA
ATOM     55  H   UNL     1       8.360   2.072  10.041  1.00  0.00     0.236 HD
ENDBRANCH  51  54
ENDBRANCH  50  51
ENDBRANCH   8  50
TORSDOF 19
ENDMDL
MODEL 27
REMARK VINA RESULT:    -6.815      8.184     13.726
REMARK INTER + INTRA:         -15.418
REMARK INTER:                 -11.733
REMARK INTRA:                  -3.685
REMARK UNBOUND:                -1.631
REMARK SMILES CC[C@@H](C)[C@@H](NC(=O)[C@@H](O)Cc1ccc(O)c(Cl)c1)C(=O)N1[C@H](C(=O)NCCCCN=C(N)N)C[C@H]2CC[C@H](OS(=O)(=O)O)C[C@@H]21
REMARK SMILES IDX 22 1 36 2 46 3 35 4 23 5 45 6 37 7 39 8 38 9 20 10 21 11
REMARK SMILES IDX 5 12 6 13 7 14 8 15 9 17 11 18 12 19 17 20 19 21 15 22 14 23
REMARK SMILES IDX 13 24 18 25 16 26 10 28 3 30 4 31 2 32 1 33 24 34 25 35
REMARK SMILES IDX 26 36 27 38 28 39 29 40 30 41 31 42 32 43 33 44 34 45 40 50
REMARK SMILES IDX 41 51 42 52 43 53 44 54
REMARK H PARENT 6 16 16 27 10 29 26 37 33 46 33 47 34 48 34 49 44 55
ROOT
ATOM      1  N   UNL     1       6.893   5.133  13.159  1.00  0.00    -0.326 N 
ATOM      2  C   UNL     1       6.635   2.832  12.735  1.00  0.00     0.014 C 
ATOM      3  C   UNL     1       6.249   3.941  13.718  1.00  0.00     0.091 C 
ATOM      4  C   UNL     1       8.036   3.238  12.304  1.00  0.00     0.041 C 
ATOM      5  C   UNL     1       7.822   4.745  12.069  1.00  0.00     0.175 C 
ATOM      6  C   UNL     1       4.730   3.943  13.872  1.00  0.00     0.059 C 
ATOM      7  C   UNL     1       6.414   1.463  13.348  1.00  0.00     0.008 C 
ATOM      8  C   UNL     1       4.089   2.546  13.727  1.00  0.00     0.143 C 
ATOM      9  C   UNL     1       5.069   1.416  14.104  1.00  0.00     0.034 C 
ENDROOT
BRANCH   1  10
ATOM     10  C   UNL     1       6.910   6.435  13.629  1.00  0.00     0.246 C 
ATOM     11  O   UNL     1       6.474   7.340  12.909  1.00  0.00    -0.272 OA
BRANCH  10  12
ATOM     12  C   UNL     1       7.437   6.726  15.064  1.00  0.00     0.174 C 
BRANCH  12  13
ATOM     13  N   UNL     1       6.392   6.439  16.046  1.00  0.00    -0.342 N 
ATOM     14  C   UNL     1       6.481   5.494  17.043  1.00  0.00     0.249 C 
ATOM     15  O   UNL     1       7.470   4.798  17.236  1.00  0.00    -0.272 OA
ATOM     16  H   UNL     1       5.459   6.824  15.916  1.00  0.00     0.164 HD
BRANCH  14  17
ATOM     17  C   UNL     1       5.205   5.417  17.908  1.00  0.00     0.207 C 
BRANCH  17  18
ATOM     18  C   UNL     1       4.093   6.278  17.300  1.00  0.00     0.077 C 
BRANCH  18  19
ATOM     19  C   UNL     1       2.916   5.442  16.852  1.00  0.00    -0.043 A 
ATOM     20  C   UNL     1       1.810   3.290  16.679  1.00  0.00     0.083 A 
ATOM     21  C   UNL     1       2.874   4.068  17.136  1.00  0.00     0.028 A 
ATOM     22  C   UNL     1       0.785   3.876  15.937  1.00  0.00     0.134 A 
ATOM     23  C   UNL     1       0.813   5.236  15.649  1.00  0.00     0.048 A 
ATOM     24  C   UNL     1       1.878   6.017  16.103  1.00  0.00     0.008 A 
ATOM     25  Cl  UNL     1       1.777   1.603  17.037  1.00  0.00    -0.080 Cl
BRANCH  22  26
ATOM     26  O   UNL     1      -0.274   3.152  15.458  1.00  0.00    -0.506 OA
ATOM     27  H   UNL     1      -1.023   3.771  15.377  1.00  0.00     0.293 HD
ENDBRANCH  22  26
ENDBRANCH  18  19
ENDBRANCH  17  18
BRANCH  17  28
ATOM     28  O   UNL     1       5.464   5.853  19.252  1.00  0.00    -0.383 OA
ATOM     29  H   UNL     1       6.443   5.917  19.333  1.00  0.00     0.211 HD
ENDBRANCH  17  28
ENDBRANCH  14  17
ENDBRANCH  12  13
BRANCH  12  30
ATOM     30  C   UNL     1       8.013   8.159  15.214  1.00  0.00     0.018 C 
ATOM     31  C   UNL     1       9.359   8.133  15.955  1.00  0.00     0.010 C 
BRANCH  30  32
ATOM     32  C   UNL     1       7.044   9.150  15.905  1.00  0.00     0.002 C 
ATOM     33  C   UNL     1       6.528  10.278  15.022  1.00  0.00     0.004 C 
ENDBRANCH  30  32
ENDBRANCH  12  30
ENDBRANCH  10  12
ENDBRANCH   1  10
BRANCH   5  34
ATOM     34  C   UNL     1       7.189   5.023  10.680  1.00  0.00     0.242 C 
ATOM     35  O   UNL     1       6.679   4.133  10.000  1.00  0.00    -0.273 OA
ATOM     36  N   UNL     1       7.287   6.325  10.242  1.00  0.00    -0.354 N 
ATOM     37  H   UNL     1       7.826   6.991  10.796  1.00  0.00     0.163 HD
BRANCH  36  38
ATOM     38  C   UNL     1       6.569   6.805   9.079  1.00  0.00     0.116 C 
BRANCH  38  39
ATOM     39  C   UNL     1       7.385   6.534   7.817  1.00  0.00     0.023 C 
BRANCH  39  40
ATOM     40  C   UNL     1       6.528   6.007   6.671  1.00  0.00     0.026 C 
BRANCH  40  41
ATOM     41  C   UNL     1       5.076   6.460   6.827  1.00  0.00     0.146 C 
BRANCH  41  42
ATOM     42  N   UNL     1       4.209   5.629   6.002  1.00  0.00    -0.254 NA
ATOM     43  C   UNL     1       3.485   4.728   6.552  1.00  0.00     0.185 C 
ATOM     44  N   UNL     1       3.368   4.384   7.848  1.00  0.00    -0.370 N 
ATOM     45  N   UNL     1       2.696   3.970   5.773  1.00  0.00    -0.370 N 
ATOM     46  H   UNL     1       2.954   3.506   8.109  1.00  0.00     0.159 HD
ATOM     47  H   UNL     1       3.885   4.866   8.576  1.00  0.00     0.159 HD
ATOM     48  H   UNL     1       2.718   4.170   4.783  1.00  0.00     0.159 HD
ATOM     49  H   UNL     1       1.939   3.419   6.138  1.00  0.00     0.159 HD
ENDBRANCH  41  42
ENDBRANCH  40  41
ENDBRANCH  39  40
ENDBRANCH  38  39
ENDBRANCH  36  38
ENDBRANCH   5  34
BRANCH   8  50
ATOM     50  O   UNL     1       3.658   2.342  12.380  1.00  0.00    -0.245 OA
BRANCH  50  51
ATOM     51  S   UNL     1       2.685   3.437  11.674  1.00  0.00     0.397 S 
ATOM     52  O   UNL     1       3.513   4.340  10.906  1.00  0.00    -0.169 OA
ATOM     53  O   UNL     1       1.722   3.925  12.638  1.00  0.00    -0.169 OA
BRANCH  51  54
ATOM     54  O   UNL     1       1.898   2.541  10.596  1.00  0.00    -0.264 OA
ATOM     55  H   UNL     1       1.468   1.804  11.077  1.00  0.00     0.236 HD
ENDBRANCH  51  54
ENDBRANCH  50  51
ENDBRANCH   8  50
TORSDOF 19
ENDMDL
MODEL 28
REMARK VINA RESULT:    -6.779     13.452     16.853
REMARK INTER + INTRA:         -15.346
REMARK INTER:                 -11.464
REMARK INTRA:                  -3.882
REMARK UNBOUND:                -1.631
REMARK SMILES CC[C@@H](C)[C@@H](NC(=O)[C@@H](O)Cc1ccc(O)c(Cl)c1)C(=O)N1[C@H](C(=O)NCCCCN=C(N)N)C[C@H]2CC[C@H](OS(=O)(=O)O)C[C@@H]21
REMARK SMILES IDX 22 1 36 2 46 3 35 4 23 5 45 6 37 7 39 8 38 9 20 10 21 11
REMARK SMILES IDX 5 12 6 13 7 14 8 15 9 17 11 18 12 19 17 20 19 21 15 22 14 23
REMARK SMILES IDX 13 24 18 25 16 26 10 28 3 30 4 31 2 32 1 33 24 34 25 35
REMARK SMILES IDX 26 36 27 38 28 39 29 40 30 41 31 42 32 43 33 44 34 45 40 50
REMARK SMILES IDX 41 51 42 52 43 53 44 54
REMARK H PARENT 6 16 16 27 10 29 26 37 33 46 33 47 34 48 34 49 44 55
ROOT
ATOM      1  N   UNL     1      -0.403  -6.430   9.683  1.00  0.00    -0.326 N 
ATOM      2  C   UNL     1      -1.055  -5.678  11.816  1.00  0.00     0.014 C 
ATOM      3  C   UNL     1      -1.530  -5.787  10.365  1.00  0.00     0.091 C 
ATOM      4  C   UNL     1       0.438  -5.429  11.663  1.00  0.00     0.041 C 
ATOM      5  C   UNL     1       0.778  -6.471  10.582  1.00  0.00     0.175 C 
ATOM      6  C   UNL     1      -2.884  -6.493  10.351  1.00  0.00     0.059 C 
ATOM      7  C   UNL     1      -1.899  -4.683  12.590  1.00  0.00     0.008 C 
ATOM      8  C   UNL     1      -3.740  -6.220  11.606  1.00  0.00     0.143 C 
ATOM      9  C   UNL     1      -3.395  -4.866  12.259  1.00  0.00     0.034 C 
ENDROOT
BRANCH   1  10
ATOM     10  C   UNL     1      -0.248  -6.769   8.350  1.00  0.00     0.246 C 
ATOM     11  O   UNL     1      -0.575  -7.899   7.974  1.00  0.00    -0.272 OA
BRANCH  10  12
ATOM     12  C   UNL     1       0.293  -5.708   7.347  1.00  0.00     0.174 C 
BRANCH  12  13
ATOM     13  N   UNL     1       1.588  -6.136   6.818  1.00  0.00    -0.342 N 
ATOM     14  C   UNL     1       1.946  -6.112   5.489  1.00  0.00     0.249 C 
ATOM     15  O   UNL     1       1.219  -5.697   4.595  1.00  0.00    -0.272 OA
ATOM     16  H   UNL     1       2.232  -6.647   7.417  1.00  0.00     0.164 HD
BRANCH  14  17
ATOM     17  C   UNL     1       3.374  -6.645   5.247  1.00  0.00     0.207 C 
BRANCH  17  18
ATOM     18  C   UNL     1       4.250  -5.560   4.612  1.00  0.00     0.077 C 
BRANCH  18  19
ATOM     19  C   UNL     1       4.739  -4.562   5.637  1.00  0.00    -0.043 A 
ATOM     20  C   UNL     1       5.093  -2.265   6.333  1.00  0.00     0.083 A 
ATOM     21  C   UNL     1       4.596  -3.184   5.408  1.00  0.00     0.028 A 
ATOM     22  C   UNL     1       5.736  -2.714   7.487  1.00  0.00     0.134 A 
ATOM     23  C   UNL     1       5.885  -4.075   7.726  1.00  0.00     0.048 A 
ATOM     24  C   UNL     1       5.390  -4.998   6.801  1.00  0.00     0.008 A 
ATOM     25  Cl  UNL     1       4.907  -0.577   6.035  1.00  0.00    -0.080 Cl
BRANCH  22  26
ATOM     26  O   UNL     1       6.249  -1.850   8.417  1.00  0.00    -0.506 OA
ATOM     27  H   UNL     1       7.185  -1.710   8.182  1.00  0.00     0.293 HD
ENDBRANCH  22  26
ENDBRANCH  18  19
ENDBRANCH  17  18
BRANCH  17  28
ATOM     28  O   UNL     1       3.357  -7.803   4.396  1.00  0.00    -0.383 OA
ATOM     29  H   UNL     1       2.978  -8.532   4.937  1.00  0.00     0.211 HD
ENDBRANCH  17  28
ENDBRANCH  14  17
ENDBRANCH  12  13
BRANCH  12  30
ATOM     30  C   UNL     1       0.344  -4.280   7.954  1.00  0.00     0.018 C 
ATOM     31  C   UNL     1      -0.708  -3.371   7.299  1.00  0.00     0.010 C 
BRANCH  30  32
ATOM     32  C   UNL     1       1.742  -3.620   7.873  1.00  0.00     0.002 C 
ATOM     33  C   UNL     1       2.499  -3.535   9.192  1.00  0.00     0.004 C 
ENDBRANCH  30  32
ENDBRANCH  12  30
ENDBRANCH  10  12
ENDBRANCH   1  10
BRANCH   5  34
ATOM     34  C   UNL     1       0.958  -7.888  11.189  1.00  0.00     0.242 C 
ATOM     35  O   UNL     1       0.566  -8.905  10.615  1.00  0.00    -0.273 OA
ATOM     36  N   UNL     1       1.537  -7.921  12.437  1.00  0.00    -0.354 N 
ATOM     37  H   UNL     1       1.730  -7.039  12.913  1.00  0.00     0.163 HD
BRANCH  36  38
ATOM     38  C   UNL     1       1.974  -9.156  13.055  1.00  0.00     0.116 C 
BRANCH  38  39
ATOM     39  C   UNL     1       1.225  -9.373  14.367  1.00  0.00     0.023 C 
BRANCH  39  40
ATOM     40  C   UNL     1       0.331  -8.192  14.730  1.00  0.00     0.026 C 
BRANCH  40  41
ATOM     41  C   UNL     1      -1.140  -8.535  14.500  1.00  0.00     0.146 C 
BRANCH  41  42
ATOM     42  N   UNL     1      -1.859  -8.498  15.767  1.00  0.00    -0.254 NA
ATOM     43  C   UNL     1      -2.499  -7.441  16.101  1.00  0.00     0.185 C 
ATOM     44  N   UNL     1      -2.642  -6.273  15.449  1.00  0.00    -0.370 N 
ATOM     45  N   UNL     1      -3.152  -7.426  17.275  1.00  0.00    -0.370 N 
ATOM     46  H   UNL     1      -2.962  -5.452  15.932  1.00  0.00     0.159 HD
ATOM     47  H   UNL     1      -2.223  -6.117  14.537  1.00  0.00     0.159 HD
ATOM     48  H   UNL     1      -3.103  -8.272  17.826  1.00  0.00     0.159 HD
ATOM     49  H   UNL     1      -3.856  -6.745  17.497  1.00  0.00     0.159 HD
ENDBRANCH  41  42
ENDBRANCH  40  41
ENDBRANCH  39  40
ENDBRANCH  38  39
ENDBRANCH  36  38
ENDBRANCH   5  34
BRANCH   8  50
ATOM     50  O   UNL     1      -3.540  -7.253  12.571  1.00  0.00    -0.245 OA
BRANCH  50  51
ATOM     51  S   UNL     1      -4.713  -8.351  12.826  1.00  0.00     0.397 S 
ATOM     52  O   UNL     1      -4.259  -9.619  12.302  1.00  0.00    -0.169 OA
ATOM     53  O   UNL     1      -5.994  -7.790  12.453  1.00  0.00    -0.169 OA
BRANCH  51  54
ATOM     54  O   UNL     1      -4.686  -8.504  14.427  1.00  0.00    -0.264 OA
ATOM     55  H   UNL     1      -5.609  -8.444  14.748  1.00  0.00     0.236 HD
ENDBRANCH  51  54
ENDBRANCH  50  51
ENDBRANCH   8  50
TORSDOF 19
ENDMDL
MODEL 29
REMARK VINA RESULT:    -6.767     14.343     17.246
REMARK INTER + INTRA:         -15.321
REMARK INTER:                 -11.967
REMARK INTRA:                  -3.354
REMARK UNBOUND:                -1.631
REMARK SMILES CC[C@@H](C)[C@@H](NC(=O)[C@@H](O)Cc1ccc(O)c(Cl)c1)C(=O)N1[C@H](C(=O)NCCCCN=C(N)N)C[C@H]2CC[C@H](OS(=O)(=O)O)C[C@@H]21
REMARK SMILES IDX 22 1 36 2 46 3 35 4 23 5 45 6 37 7 39 8 38 9 20 10 21 11
REMARK SMILES IDX 5 12 6 13 7 14 8 15 9 17 11 18 12 19 17 20 19 21 15 22 14 23
REMARK SMILES IDX 13 24 18 25 16 26 10 28 3 30 4 31 2 32 1 33 24 34 25 35
REMARK SMILES IDX 26 36 27 38 28 39 29 40 30 41 31 42 32 43 33 44 34 45 40 50
REMARK SMILES IDX 41 51 42 52 43 53 44 54
REMARK H PARENT 6 16 16 27 10 29 26 37 33 46 33 47 34 48 34 49 44 55
ROOT
ATOM      1  N   UNL     1      -0.729  -6.473   9.879  1.00  0.00    -0.326 N 
ATOM      2  C   UNL     1      -1.372  -5.999  12.093  1.00  0.00     0.014 C 
ATOM      3  C   UNL     1      -1.839  -5.892  10.639  1.00  0.00     0.091 C 
ATOM      4  C   UNL     1       0.129  -5.782  11.980  1.00  0.00     0.041 C 
ATOM      5  C   UNL     1       0.443  -6.676  10.766  1.00  0.00     0.175 C 
ATOM      6  C   UNL     1      -3.215  -6.545  10.525  1.00  0.00     0.059 C 
ATOM      7  C   UNL     1      -2.188  -5.093  12.994  1.00  0.00     0.008 C 
ATOM      8  C   UNL     1      -4.072  -6.419  11.803  1.00  0.00     0.143 C 
ATOM      9  C   UNL     1      -3.687  -5.180  12.637  1.00  0.00     0.034 C 
ENDROOT
BRANCH   1  10
ATOM     10  C   UNL     1      -0.575  -6.630   8.512  1.00  0.00     0.246 C 
ATOM     11  O   UNL     1      -0.798  -7.735   8.005  1.00  0.00    -0.272 OA
BRANCH  10  12
ATOM     12  C   UNL     1      -0.169  -5.407   7.640  1.00  0.00     0.174 C 
BRANCH  12  13
ATOM     13  N   UNL     1       1.287  -5.270   7.620  1.00  0.00    -0.342 N 
ATOM     14  C   UNL     1       2.050  -5.113   6.485  1.00  0.00     0.249 C 
ATOM     15  O   UNL     1       1.585  -5.041   5.354  1.00  0.00    -0.272 OA
ATOM     16  H   UNL     1       1.823  -5.467   8.462  1.00  0.00     0.164 HD
BRANCH  14  17
ATOM     17  C   UNL     1       3.560  -5.015   6.791  1.00  0.00     0.207 C 
BRANCH  17  18
ATOM     18  C   UNL     1       4.113  -6.383   7.203  1.00  0.00     0.077 C 
BRANCH  18  19
ATOM     19  C   UNL     1       4.452  -7.237   6.002  1.00  0.00    -0.043 A 
ATOM     20  C   UNL     1       5.289  -7.438   3.734  1.00  0.00     0.083 A 
ATOM     21  C   UNL     1       5.023  -6.656   4.859  1.00  0.00     0.028 A 
ATOM     22  C   UNL     1       4.986  -8.800   3.742  1.00  0.00     0.134 A 
ATOM     23  C   UNL     1       4.420  -9.388   4.868  1.00  0.00     0.048 A 
ATOM     24  C   UNL     1       4.151  -8.608   5.995  1.00  0.00     0.008 A 
ATOM     25  Cl  UNL     1       5.991  -6.706   2.339  1.00  0.00    -0.080 Cl
BRANCH  22  26
ATOM     26  O   UNL     1       5.219  -9.604   2.660  1.00  0.00    -0.506 OA
ATOM     27  H   UNL     1       5.281 -10.517   2.997  1.00  0.00     0.293 HD
ENDBRANCH  22  26
ENDBRANCH  18  19
ENDBRANCH  17  18
BRANCH  17  28
ATOM     28  O   UNL     1       3.815  -4.064   7.837  1.00  0.00    -0.383 OA
ATOM     29  H   UNL     1       4.606  -3.552   7.553  1.00  0.00     0.211 HD
ENDBRANCH  17  28
ENDBRANCH  14  17
ENDBRANCH  12  13
BRANCH  12  30
ATOM     30  C   UNL     1      -0.880  -4.097   8.075  1.00  0.00     0.018 C 
ATOM     31  C   UNL     1      -1.400  -3.325   6.852  1.00  0.00     0.010 C 
BRANCH  30  32
ATOM     32  C   UNL     1      -0.001  -3.174   8.953  1.00  0.00     0.002 C 
ATOM     33  C   UNL     1      -0.722  -2.493  10.108  1.00  0.00     0.004 C 
ENDBRANCH  30  32
ENDBRANCH  12  30
ENDBRANCH  10  12
ENDBRANCH   1  10
BRANCH   5  34
ATOM     34  C   UNL     1       0.573  -8.168  11.173  1.00  0.00     0.242 C 
ATOM     35  O   UNL     1       1.467  -8.572  11.917  1.00  0.00    -0.273 OA
ATOM     36  N   UNL     1      -0.350  -9.014  10.600  1.00  0.00    -0.354 N 
ATOM     37  H   UNL     1      -0.991  -8.640   9.899  1.00  0.00     0.163 HD
BRANCH  36  38
ATOM     38  C   UNL     1      -0.512 -10.387  11.030  1.00  0.00     0.116 C 
BRANCH  38  39
ATOM     39  C   UNL     1      -0.236 -11.332   9.863  1.00  0.00     0.023 C 
BRANCH  39  40
ATOM     40  C   UNL     1      -1.102 -12.587   9.911  1.00  0.00     0.026 C 
BRANCH  40  41
ATOM     41  C   UNL     1      -2.357 -12.347  10.751  1.00  0.00     0.146 C 
BRANCH  41  42
ATOM     42  N   UNL     1      -3.524 -12.866  10.050  1.00  0.00    -0.254 NA
ATOM     43  C   UNL     1      -4.236 -12.076   9.336  1.00  0.00     0.185 C 
ATOM     44  N   UNL     1      -4.093 -10.760   9.097  1.00  0.00    -0.370 N 
ATOM     45  N   UNL     1      -5.311 -12.573   8.701  1.00  0.00    -0.370 N 
ATOM     46  H   UNL     1      -4.855 -10.221   8.722  1.00  0.00     0.159 HD
ATOM     47  H   UNL     1      -3.322 -10.228   9.489  1.00  0.00     0.159 HD
ATOM     48  H   UNL     1      -5.486 -13.561   8.822  1.00  0.00     0.159 HD
ATOM     49  H   UNL     1      -5.770 -12.089   7.951  1.00  0.00     0.159 HD
ENDBRANCH  41  42
ENDBRANCH  40  41
ENDBRANCH  39  40
ENDBRANCH  38  39
ENDBRANCH  36  38
ENDBRANCH   5  34
BRANCH   8  50
ATOM     50  O   UNL     1      -3.912  -7.581  12.617  1.00  0.00    -0.245 OA
BRANCH  50  51
ATOM     51  S   UNL     1      -5.126  -8.657  12.727  1.00  0.00     0.397 S 
ATOM     52  O   UNL     1      -5.468  -8.805  14.123  1.00  0.00    -0.169 OA
ATOM     53  O   UNL     1      -4.836  -9.804  11.891  1.00  0.00    -0.169 OA
BRANCH  51  54
ATOM     54  O   UNL     1      -6.348  -7.854  12.059  1.00  0.00    -0.264 OA
ATOM     55  H   UNL     1      -6.014  -6.975  11.786  1.00  0.00     0.236 HD
ENDBRANCH  51  54
ENDBRANCH  50  51
ENDBRANCH   8  50
TORSDOF 19
ENDMDL
MODEL 30
REMARK VINA RESULT:    -6.756      5.811      9.602
REMARK INTER + INTRA:         -15.298
REMARK INTER:                 -12.317
REMARK INTRA:                  -2.981
REMARK UNBOUND:                -1.631
REMARK SMILES CC[C@@H](C)[C@@H](NC(=O)[C@@H](O)Cc1ccc(O)c(Cl)c1)C(=O)N1[C@H](C(=O)NCCCCN=C(N)N)C[C@H]2CC[C@H](OS(=O)(=O)O)C[C@@H]21
REMARK SMILES IDX 22 1 36 2 46 3 35 4 23 5 45 6 37 7 39 8 38 9 20 10 21 11
REMARK SMILES IDX 5 12 6 13 7 14 8 15 9 17 11 18 12 19 17 20 19 21 15 22 14 23
REMARK SMILES IDX 13 24 18 25 16 26 10 28 3 30 4 31 2 32 1 33 24 34 25 35
REMARK SMILES IDX 26 36 27 38 28 39 29 40 30 41 31 42 32 43 33 44 34 45 40 50
REMARK SMILES IDX 41 51 42 52 43 53 44 54
REMARK H PARENT 6 16 16 27 10 29 26 37 33 46 33 47 34 48 34 49 44 55
ROOT
ATOM      1  N   UNL     1       5.062   3.081  11.689  1.00  0.00    -0.326 N 
ATOM      2  C   UNL     1       4.744   3.827  13.900  1.00  0.00     0.014 C 
ATOM      3  C   UNL     1       4.146   3.897  12.492  1.00  0.00     0.091 C 
ATOM      4  C   UNL     1       6.239   3.781  13.626  1.00  0.00     0.041 C 
ATOM      5  C   UNL     1       6.275   2.755  12.478  1.00  0.00     0.175 C 
ATOM      6  C   UNL     1       2.679   3.476  12.569  1.00  0.00     0.059 C 
ATOM      7  C   UNL     1       4.183   4.924  14.782  1.00  0.00     0.008 C 
ATOM      8  C   UNL     1       1.996   3.844  13.904  1.00  0.00     0.143 C 
ATOM      9  C   UNL     1       2.660   5.062  14.577  1.00  0.00     0.034 C 
ENDROOT
BRANCH   1  10
ATOM     10  C   UNL     1       5.040   2.794  10.335  1.00  0.00     0.246 C 
ATOM     11  O   UNL     1       4.288   1.906   9.920  1.00  0.00    -0.272 OA
BRANCH  10  12
ATOM     12  C   UNL     1       5.928   3.623   9.361  1.00  0.00     0.174 C 
BRANCH  12  13
ATOM     13  N   UNL     1       5.217   3.842   8.102  1.00  0.00    -0.342 N 
ATOM     14  C   UNL     1       4.305   4.849   7.875  1.00  0.00     0.249 C 
ATOM     15  O   UNL     1       4.006   5.699   8.704  1.00  0.00    -0.272 OA
ATOM     16  H   UNL     1       5.243   3.129   7.378  1.00  0.00     0.164 HD
BRANCH  14  17
ATOM     17  C   UNL     1       3.713   4.804   6.450  1.00  0.00     0.207 C 
BRANCH  17  18
ATOM     18  C   UNL     1       4.393   3.710   5.621  1.00  0.00     0.077 C 
BRANCH  18  19
ATOM     19  C   UNL     1       4.619   4.147   4.191  1.00  0.00    -0.043 A 
ATOM     20  C   UNL     1       3.783   4.496   1.941  1.00  0.00     0.083 A 
ATOM     21  C   UNL     1       3.559   4.139   3.272  1.00  0.00     0.028 A 
ATOM     22  C   UNL     1       5.062   4.860   1.522  1.00  0.00     0.134 A 
ATOM     23  C   UNL     1       6.121   4.873   2.422  1.00  0.00     0.048 A 
ATOM     24  C   UNL     1       5.901   4.515   3.754  1.00  0.00     0.008 A 
ATOM     25  Cl  UNL     1       2.467   4.479   0.826  1.00  0.00    -0.080 Cl
BRANCH  22  26
ATOM     26  O   UNL     1       5.332   5.208   0.225  1.00  0.00    -0.506 OA
ATOM     27  H   UNL     1       5.922   5.983   0.260  1.00  0.00     0.293 HD
ENDBRANCH  22  26
ENDBRANCH  18  19
ENDBRANCH  17  18
BRANCH  17  28
ATOM     28  O   UNL     1       3.866   6.069   5.786  1.00  0.00    -0.383 OA
ATOM     29  H   UNL     1       3.863   6.751   6.496  1.00  0.00     0.211 HD
ENDBRANCH  17  28
ENDBRANCH  14  17
ENDBRANCH  12  13
BRANCH  12  30
ATOM     30  C   UNL     1       7.331   2.995   9.148  1.00  0.00     0.018 C 
ATOM     31  C   UNL     1       8.431   3.913   9.704  1.00  0.00     0.010 C 
BRANCH  30  32
ATOM     32  C   UNL     1       7.633   2.636   7.672  1.00  0.00     0.002 C 
ATOM     33  C   UNL     1       8.437   1.359   7.464  1.00  0.00     0.004 C 
ENDBRANCH  30  32
ENDBRANCH  12  30
ENDBRANCH  10  12
ENDBRANCH   1  10
BRANCH   5  34
ATOM     34  C   UNL     1       6.210   1.298  13.011  1.00  0.00     0.242 C 
ATOM     35  O   UNL     1       6.472   1.013  14.179  1.00  0.00    -0.273 OA
ATOM     36  N   UNL     1       5.891   0.345  12.070  1.00  0.00    -0.354 N 
ATOM     37  H   UNL     1       5.803   0.628  11.094  1.00  0.00     0.163 HD
BRANCH  36  38
ATOM     38  C   UNL     1       5.577  -1.022  12.431  1.00  0.00     0.116 C 
BRANCH  38  39
ATOM     39  C   UNL     1       6.689  -1.953  11.953  1.00  0.00     0.023 C 
BRANCH  39  40
ATOM     40  C   UNL     1       7.137  -1.641  10.529  1.00  0.00     0.026 C 
BRANCH  40  41
ATOM     41  C   UNL     1       6.087  -2.098   9.517  1.00  0.00     0.146 C 
BRANCH  41  42
ATOM     42  N   UNL     1       5.401  -0.939   8.961  1.00  0.00    -0.254 NA
ATOM     43  C   UNL     1       5.482  -0.697   7.707  1.00  0.00     0.185 C 
ATOM     44  N   UNL     1       6.130  -1.366   6.736  1.00  0.00    -0.370 N 
ATOM     45  N   UNL     1       4.847   0.380   7.215  1.00  0.00    -0.370 N 
ATOM     46  H   UNL     1       6.311  -0.933   5.847  1.00  0.00     0.159 HD
ATOM     47  H   UNL     1       6.653  -2.215   6.932  1.00  0.00     0.159 HD
ATOM     48  H   UNL     1       4.326   0.936   7.879  1.00  0.00     0.159 HD
ATOM     49  H   UNL     1       4.665   0.503   6.234  1.00  0.00     0.159 HD
ENDBRANCH  41  42
ENDBRANCH  40  41
ENDBRANCH  39  40
ENDBRANCH  38  39
ENDBRANCH  36  38
ENDBRANCH   5  34
BRANCH   8  50
ATOM     50  O   UNL     1       2.056   2.738  14.806  1.00  0.00    -0.245 OA
BRANCH  50  51
ATOM     51  S   UNL     1       1.237   2.802  16.209  1.00  0.00     0.397 S 
ATOM     52  O   UNL     1      -0.019   3.474  15.963  1.00  0.00    -0.169 OA
ATOM     53  O   UNL     1       2.126   3.219  17.273  1.00  0.00    -0.169 OA
BRANCH  51  54
ATOM     54  O   UNL     1       0.866   1.256  16.451  1.00  0.00    -0.264 OA
ATOM     55  H   UNL     1       0.869   0.809  15.581  1.00  0.00     0.236 HD
ENDBRANCH  51  54
ENDBRANCH  50  51
ENDBRANCH   8  50
TORSDOF 19
ENDMDL
MODEL 31
REMARK VINA RESULT:    -6.748      6.662     10.289
REMARK INTER + INTRA:         -15.282
REMARK INTER:                 -11.455
REMARK INTRA:                  -3.827
REMARK UNBOUND:                -1.631
REMARK SMILES CC[C@@H](C)[C@@H](NC(=O)[C@@H](O)Cc1ccc(O)c(Cl)c1)C(=O)N1[C@H](C(=O)NCCCCN=C(N)N)C[C@H]2CC[C@H](OS(=O)(=O)O)C[C@@H]21
REMARK SMILES IDX 22 1 36 2 46 3 35 4 23 5 45 6 37 7 39 8 38 9 20 10 21 11
REMARK SMILES IDX 5 12 6 13 7 14 8 15 9 17 11 18 12 19 17 20 19 21 15 22 14 23
REMARK SMILES IDX 13 24 18 25 16 26 10 28 3 30 4 31 2 32 1 33 24 34 25 35
REMARK SMILES IDX 26 36 27 38 28 39 29 40 30 41 31 42 32 43 33 44 34 45 40 50
REMARK SMILES IDX 41 51 42 52 43 53 44 54
REMARK H PARENT 6 16 16 27 10 29 26 37 33 46 33 47 34 48 34 49 44 55
ROOT
ATOM      1  N   UNL     1       6.268   0.664   8.839  1.00  0.00    -0.326 N 
ATOM      2  C   UNL     1       8.055  -0.171   7.553  1.00  0.00     0.014 C 
ATOM      3  C   UNL     1       7.605   0.083   8.994  1.00  0.00     0.091 C 
ATOM      4  C   UNL     1       7.431   0.993   6.797  1.00  0.00     0.041 C 
ATOM      5  C   UNL     1       6.019   0.992   7.414  1.00  0.00     0.175 C 
ATOM      6  C   UNL     1       7.743  -1.220   9.780  1.00  0.00     0.059 C 
ATOM      7  C   UNL     1       9.554  -0.384   7.482  1.00  0.00     0.008 C 
ATOM      8  C   UNL     1       8.903  -2.117   9.296  1.00  0.00     0.143 C 
ATOM      9  C   UNL     1      10.028  -1.300   8.630  1.00  0.00     0.034 C 
ENDROOT
BRANCH   1  10
ATOM     10  C   UNL     1       5.378   1.112   9.800  1.00  0.00     0.246 C 
ATOM     11  O   UNL     1       4.704   0.288  10.426  1.00  0.00    -0.272 OA
BRANCH  10  12
ATOM     12  C   UNL     1       5.278   2.636  10.101  1.00  0.00     0.174 C 
BRANCH  12  13
ATOM     13  N   UNL     1       4.645   3.325   8.977  1.00  0.00    -0.342 N 
ATOM     14  C   UNL     1       3.639   4.259   9.088  1.00  0.00     0.249 C 
ATOM     15  O   UNL     1       3.177   4.639  10.157  1.00  0.00    -0.272 OA
ATOM     16  H   UNL     1       4.813   3.001   8.028  1.00  0.00     0.164 HD
BRANCH  14  17
ATOM     17  C   UNL     1       3.168   4.792   7.719  1.00  0.00     0.207 C 
BRANCH  17  18
ATOM     18  C   UNL     1       4.331   5.454   6.973  1.00  0.00     0.077 C 
BRANCH  18  19
ATOM     19  C   UNL     1       4.426   4.975   5.542  1.00  0.00    -0.043 A 
ATOM     20  C   UNL     1       5.614   4.885   3.429  1.00  0.00     0.083 A 
ATOM     21  C   UNL     1       5.552   5.287   4.764  1.00  0.00     0.028 A 
ATOM     22  C   UNL     1       4.556   4.173   2.864  1.00  0.00     0.134 A 
ATOM     23  C   UNL     1       3.435   3.857   3.623  1.00  0.00     0.048 A 
ATOM     24  C   UNL     1       3.369   4.259   4.959  1.00  0.00     0.008 A 
ATOM     25  Cl  UNL     1       7.005   5.278   2.489  1.00  0.00    -0.080 Cl
BRANCH  22  26
ATOM     26  O   UNL     1       4.567   3.767   1.556  1.00  0.00    -0.506 OA
ATOM     27  H   UNL     1       5.064   4.442   1.058  1.00  0.00     0.293 HD
ENDBRANCH  22  26
ENDBRANCH  18  19
ENDBRANCH  17  18
BRANCH  17  28
ATOM     28  O   UNL     1       2.099   5.740   7.872  1.00  0.00    -0.383 OA
ATOM     29  H   UNL     1       1.783   5.943   6.963  1.00  0.00     0.211 HD
ENDBRANCH  17  28
ENDBRANCH  14  17
ENDBRANCH  12  13
BRANCH  12  30
ATOM     30  C   UNL     1       6.645   3.263  10.486  1.00  0.00     0.018 C 
ATOM     31  C   UNL     1       6.492   4.211  11.686  1.00  0.00     0.010 C 
BRANCH  30  32
ATOM     32  C   UNL     1       7.346   3.994   9.315  1.00  0.00     0.002 C 
ATOM     33  C   UNL     1       7.409   5.511   9.440  1.00  0.00     0.004 C 
ENDBRANCH  30  32
ENDBRANCH  12  30
ENDBRANCH  10  12
ENDBRANCH   1  10
BRANCH   5  34
ATOM     34  C   UNL     1       5.108  -0.077   6.754  1.00  0.00     0.242 C 
ATOM     35  O   UNL     1       4.641   0.064   5.624  1.00  0.00    -0.273 OA
ATOM     36  N   UNL     1       4.817  -1.167   7.544  1.00  0.00    -0.354 N 
ATOM     37  H   UNL     1       5.135  -1.169   8.514  1.00  0.00     0.163 HD
BRANCH  36  38
ATOM     38  C   UNL     1       4.166  -2.349   7.020  1.00  0.00     0.116 C 
BRANCH  38  39
ATOM     39  C   UNL     1       5.210  -3.416   6.699  1.00  0.00     0.023 C 
BRANCH  39  40
ATOM     40  C   UNL     1       5.794  -3.257   5.299  1.00  0.00     0.026 C 
BRANCH  40  41
ATOM     41  C   UNL     1       5.904  -4.612   4.601  1.00  0.00     0.146 C 
BRANCH  41  42
ATOM     42  N   UNL     1       6.809  -5.478   5.345  1.00  0.00    -0.254 NA
ATOM     43  C   UNL     1       6.389  -6.605   5.785  1.00  0.00     0.185 C 
ATOM     44  N   UNL     1       5.177  -7.178   5.676  1.00  0.00    -0.370 N 
ATOM     45  N   UNL     1       7.238  -7.386   6.473  1.00  0.00    -0.370 N 
ATOM     46  H   UNL     1       4.917  -7.945   6.272  1.00  0.00     0.159 HD
ATOM     47  H   UNL     1       4.418  -6.729   5.174  1.00  0.00     0.159 HD
ATOM     48  H   UNL     1       8.177  -7.031   6.593  1.00  0.00     0.159 HD
ATOM     49  H   UNL     1       7.065  -8.362   6.639  1.00  0.00     0.159 HD
ENDBRANCH  41  42
ENDBRANCH  40  41
ENDBRANCH  39  40
ENDBRANCH  38  39
ENDBRANCH  36  38
ENDBRANCH   5  34
BRANCH   8  50
ATOM     50  O   UNL     1       8.421  -3.077   8.356  1.00  0.00    -0.245 OA
BRANCH  50  51
ATOM     51  S   UNL     1       8.741  -4.655   8.584  1.00  0.00     0.397 S 
ATOM     52  O   UNL     1       7.486  -5.337   8.808  1.00  0.00    -0.169 OA
ATOM     53  O   UNL     1       9.857  -4.798   9.496  1.00  0.00    -0.169 OA
BRANCH  51  54
ATOM     54  O   UNL     1       9.233  -5.113   7.123  1.00  0.00    -0.264 OA
ATOM     55  H   UNL     1      10.212  -5.087   7.116  1.00  0.00     0.236 HD
ENDBRANCH  51  54
ENDBRANCH  50  51
ENDBRANCH   8  50
TORSDOF 19
ENDMDL
MODEL 32
REMARK VINA RESULT:    -6.738      5.310     10.889
REMARK INTER + INTRA:         -15.263
REMARK INTER:                 -12.703
REMARK INTRA:                  -2.560
REMARK UNBOUND:                -1.631
REMARK SMILES CC[C@@H](C)[C@@H](NC(=O)[C@@H](O)Cc1ccc(O)c(Cl)c1)C(=O)N1[C@H](C(=O)NCCCCN=C(N)N)C[C@H]2CC[C@H](OS(=O)(=O)O)C[C@@H]21
REMARK SMILES IDX 22 1 36 2 46 3 35 4 23 5 45 6 37 7 39 8 38 9 20 10 21 11
REMARK SMILES IDX 5 12 6 13 7 14 8 15 9 17 11 18 12 19 17 20 19 21 15 22 14 23
REMARK SMILES IDX 13 24 18 25 16 26 10 28 3 30 4 31 2 32 1 33 24 34 25 35
REMARK SMILES IDX 26 36 27 38 28 39 29 40 30 41 31 42 32 43 33 44 34 45 40 50
REMARK SMILES IDX 41 51 42 52 43 53 44 54
REMARK H PARENT 6 16 16 27 10 29 26 37 33 46 33 47 34 48 34 49 44 55
ROOT
ATOM      1  N   UNL     1       5.510   3.765   6.335  1.00  0.00    -0.326 N 
ATOM      2  C   UNL     1       5.972   6.045   5.973  1.00  0.00     0.014 C 
ATOM      3  C   UNL     1       6.611   4.729   6.425  1.00  0.00     0.091 C 
ATOM      4  C   UNL     1       4.552   5.928   6.505  1.00  0.00     0.041 C 
ATOM      5  C   UNL     1       4.229   4.477   6.105  1.00  0.00     0.175 C 
ATOM      6  C   UNL     1       7.860   4.483   5.581  1.00  0.00     0.059 C 
ATOM      7  C   UNL     1       6.824   7.230   6.381  1.00  0.00     0.008 C 
ATOM      8  C   UNL     1       8.577   5.778   5.140  1.00  0.00     0.143 C 
ATOM      9  C   UNL     1       8.317   6.945   6.115  1.00  0.00     0.034 C 
ENDROOT
BRANCH   1  10
ATOM     10  C   UNL     1       5.487   2.414   6.637  1.00  0.00     0.246 C 
ATOM     11  O   UNL     1       5.368   1.595   5.719  1.00  0.00    -0.272 OA
BRANCH  10  12
ATOM     12  C   UNL     1       5.654   1.955   8.115  1.00  0.00     0.174 C 
BRANCH  12  13
ATOM     13  N   UNL     1       4.895   2.838   9.000  1.00  0.00    -0.342 N 
ATOM     14  C   UNL     1       4.246   2.440  10.147  1.00  0.00     0.249 C 
ATOM     15  O   UNL     1       4.258   1.292  10.573  1.00  0.00    -0.272 OA
ATOM     16  H   UNL     1       4.667   3.781   8.695  1.00  0.00     0.164 HD
BRANCH  14  17
ATOM     17  C   UNL     1       3.518   3.603  10.854  1.00  0.00     0.207 C 
BRANCH  17  18
ATOM     18  C   UNL     1       2.340   3.075  11.678  1.00  0.00     0.077 C 
BRANCH  18  19
ATOM     19  C   UNL     1       2.444   3.479  13.132  1.00  0.00    -0.043 A 
ATOM     20  C   UNL     1       1.949   5.041  14.920  1.00  0.00     0.083 A 
ATOM     21  C   UNL     1       1.809   4.644  13.590  1.00  0.00     0.028 A 
ATOM     22  C   UNL     1       2.721   4.280  15.799  1.00  0.00     0.134 A 
ATOM     23  C   UNL     1       3.355   3.124  15.358  1.00  0.00     0.048 A 
ATOM     24  C   UNL     1       3.219   2.725  14.026  1.00  0.00     0.008 A 
ATOM     25  Cl  UNL     1       1.162   6.476  15.465  1.00  0.00    -0.080 Cl
BRANCH  22  26
ATOM     26  O   UNL     1       2.895   4.635  17.109  1.00  0.00    -0.506 OA
ATOM     27  H   UNL     1       2.049   4.461  17.561  1.00  0.00     0.293 HD
ENDBRANCH  22  26
ENDBRANCH  18  19
ENDBRANCH  17  18
BRANCH  17  28
ATOM     28  O   UNL     1       3.041   4.569   9.904  1.00  0.00    -0.383 OA
ATOM     29  H   UNL     1       2.789   4.058   9.101  1.00  0.00     0.211 HD
ENDBRANCH  17  28
ENDBRANCH  14  17
ENDBRANCH  12  13
BRANCH  12  30
ATOM     30  C   UNL     1       7.141   1.828   8.539  1.00  0.00     0.018 C 
ATOM     31  C   UNL     1       7.406   0.467   9.202  1.00  0.00     0.010 C 
BRANCH  30  32
ATOM     32  C   UNL     1       7.625   2.972   9.463  1.00  0.00     0.002 C 
ATOM     33  C   UNL     1       8.950   3.611   9.070  1.00  0.00     0.004 C 
ENDBRANCH  30  32
ENDBRANCH  12  30
ENDBRANCH  10  12
ENDBRANCH   1  10
BRANCH   5  34
ATOM     34  C   UNL     1       3.803   4.376   4.616  1.00  0.00     0.242 C 
ATOM     35  O   UNL     1       2.642   4.559   4.250  1.00  0.00    -0.273 OA
ATOM     36  N   UNL     1       4.805   4.013   3.744  1.00  0.00    -0.354 N 
ATOM     37  H   UNL     1       5.718   3.758   4.122  1.00  0.00     0.163 HD
BRANCH  36  38
ATOM     38  C   UNL     1       4.640   4.081   2.306  1.00  0.00     0.116 C 
BRANCH  38  39
ATOM     39  C   UNL     1       5.831   4.804   1.681  1.00  0.00     0.023 C 
BRANCH  39  40
ATOM     40  C   UNL     1       5.418   5.732   0.544  1.00  0.00     0.026 C 
BRANCH  40  41
ATOM     41  C   UNL     1       6.337   5.551  -0.664  1.00  0.00     0.146 C 
BRANCH  41  42
ATOM     42  N   UNL     1       6.566   6.839  -1.305  1.00  0.00    -0.254 NA
ATOM     43  C   UNL     1       5.886   7.161  -2.341  1.00  0.00     0.185 C 
ATOM     44  N   UNL     1       4.927   6.478  -2.993  1.00  0.00    -0.370 N 
ATOM     45  N   UNL     1       6.115   8.351  -2.920  1.00  0.00    -0.370 N 
ATOM     46  H   UNL     1       4.654   6.741  -3.925  1.00  0.00     0.159 HD
ATOM     47  H   UNL     1       4.619   5.562  -2.681  1.00  0.00     0.159 HD
ATOM     48  H   UNL     1       6.818   8.933  -2.485  1.00  0.00     0.159 HD
ATOM     49  H   UNL     1       5.477   8.770  -3.573  1.00  0.00     0.159 HD
ENDBRANCH  41  42
ENDBRANCH  40  41
ENDBRANCH  39  40
ENDBRANCH  38  39
ENDBRANCH  36  38
ENDBRANCH   5  34
BRANCH   8  50
ATOM     50  O   UNL     1       8.132   6.166   3.840  1.00  0.00    -0.245 OA
BRANCH  50  51
ATOM     51  S   UNL     1       8.968   7.284   3.005  1.00  0.00     0.397 S 
ATOM     52  O   UNL     1      10.365   7.144   3.348  1.00  0.00    -0.169 OA
ATOM     53  O   UNL     1       8.289   8.560   3.088  1.00  0.00    -0.169 OA
BRANCH  51  54
ATOM     54  O   UNL     1       8.832   6.747   1.496  1.00  0.00    -0.264 OA
ATOM     55  H   UNL     1       8.612   5.794   1.537  1.00  0.00     0.236 HD
ENDBRANCH  51  54
ENDBRANCH  50  51
ENDBRANCH   8  50
TORSDOF 19
ENDMDL
MODEL 33
REMARK VINA RESULT:    -6.722     15.362     19.330
REMARK INTER + INTRA:         -15.230
REMARK INTER:                 -11.526
REMARK INTRA:                  -3.704
REMARK UNBOUND:                -1.631
REMARK SMILES CC[C@@H](C)[C@@H](NC(=O)[C@@H](O)Cc1ccc(O)c(Cl)c1)C(=O)N1[C@H](C(=O)NCCCCN=C(N)N)C[C@H]2CC[C@H](OS(=O)(=O)O)C[C@@H]21
REMARK SMILES IDX 22 1 36 2 46 3 35 4 23 5 45 6 37 7 39 8 38 9 20 10 21 11
REMARK SMILES IDX 5 12 6 13 7 14 8 15 9 17 11 18 12 19 17 20 19 21 15 22 14 23
REMARK SMILES IDX 13 24 18 25 16 26 10 28 3 30 4 31 2 32 1 33 24 34 25 35
REMARK SMILES IDX 26 36 27 38 28 39 29 40 30 41 31 42 32 43 33 44 34 45 40 50
REMARK SMILES IDX 41 51 42 52 43 53 44 54
REMARK H PARENT 6 16 16 27 10 29 26 37 33 46 33 47 34 48 34 49 44 55
ROOT
ATOM      1  N   UNL     1       1.647  -7.620   8.403  1.00  0.00    -0.326 N 
ATOM      2  C   UNL     1       0.758  -8.450   6.387  1.00  0.00     0.014 C 
ATOM      3  C   UNL     1       2.043  -7.910   7.022  1.00  0.00     0.091 C 
ATOM      4  C   UNL     1      -0.325  -7.642   7.085  1.00  0.00     0.041 C 
ATOM      5  C   UNL     1       0.173  -7.718   8.540  1.00  0.00     0.175 C 
ATOM      6  C   UNL     1       3.161  -8.924   6.785  1.00  0.00     0.059 C 
ATOM      7  C   UNL     1       0.847  -8.422   4.874  1.00  0.00     0.008 C 
ATOM      8  C   UNL     1       3.018  -9.710   5.464  1.00  0.00     0.143 C 
ATOM      9  C   UNL     1       2.230  -8.918   4.401  1.00  0.00     0.034 C 
ENDROOT
BRANCH   1  10
ATOM     10  C   UNL     1       2.389  -7.093   9.447  1.00  0.00     0.246 C 
ATOM     11  O   UNL     1       3.273  -7.783   9.964  1.00  0.00    -0.272 OA
BRANCH  10  12
ATOM     12  C   UNL     1       2.123  -5.633   9.915  1.00  0.00     0.174 C 
BRANCH  12  13
ATOM     13  N   UNL     1       1.090  -5.622  10.951  1.00  0.00    -0.342 N 
ATOM     14  C   UNL     1       1.316  -5.818  12.295  1.00  0.00     0.249 C 
ATOM     15  O   UNL     1       2.426  -5.997  12.780  1.00  0.00    -0.272 OA
ATOM     16  H   UNL     1       0.109  -5.641  10.684  1.00  0.00     0.164 HD
BRANCH  14  17
ATOM     17  C   UNL     1       0.020  -5.765  13.131  1.00  0.00     0.207 C 
BRANCH  17  18
ATOM     18  C   UNL     1      -1.105  -5.097  12.334  1.00  0.00     0.077 C 
BRANCH  18  19
ATOM     19  C   UNL     1      -2.405  -5.860  12.448  1.00  0.00    -0.043 A 
ATOM     20  C   UNL     1      -3.658  -7.770  13.265  1.00  0.00     0.083 A 
ATOM     21  C   UNL     1      -2.469  -7.041  13.203  1.00  0.00     0.028 A 
ATOM     22  C   UNL     1      -4.786  -7.325  12.576  1.00  0.00     0.134 A 
ATOM     23  C   UNL     1      -4.737  -6.156  11.824  1.00  0.00     0.048 A 
ATOM     24  C   UNL     1      -3.548  -5.426  11.758  1.00  0.00     0.008 A 
ATOM     25  Cl  UNL     1      -3.717  -9.219  14.198  1.00  0.00    -0.080 Cl
BRANCH  22  26
ATOM     26  O   UNL     1      -5.971  -8.011  12.598  1.00  0.00    -0.506 OA
ATOM     27  H   UNL     1      -6.655  -7.378  12.885  1.00  0.00     0.293 HD
ENDBRANCH  22  26
ENDBRANCH  18  19
ENDBRANCH  17  18
BRANCH  17  28
ATOM     28  O   UNL     1       0.225  -5.049  14.359  1.00  0.00    -0.383 OA
ATOM     29  H   UNL     1       1.198  -4.931  14.446  1.00  0.00     0.211 HD
ENDBRANCH  17  28
ENDBRANCH  14  17
ENDBRANCH  12  13
BRANCH  12  30
ATOM     30  C   UNL     1       1.792  -4.676   8.739  1.00  0.00     0.018 C 
ATOM     31  C   UNL     1       3.056  -3.946   8.256  1.00  0.00     0.010 C 
BRANCH  30  32
ATOM     32  C   UNL     1       0.678  -3.652   9.065  1.00  0.00     0.002 C 
ATOM     33  C   UNL     1      -0.612  -3.819   8.272  1.00  0.00     0.004 C 
ENDBRANCH  30  32
ENDBRANCH  12  30
ENDBRANCH  10  12
ENDBRANCH   1  10
BRANCH   5  34
ATOM     34  C   UNL     1      -0.229  -9.058   9.213  1.00  0.00     0.242 C 
ATOM     35  O   UNL     1       0.604  -9.854   9.645  1.00  0.00    -0.273 OA
ATOM     36  N   UNL     1      -1.582  -9.315   9.244  1.00  0.00    -0.354 N 
ATOM     37  H   UNL     1      -2.215  -8.674   8.763  1.00  0.00     0.163 HD
BRANCH  36  38
ATOM     38  C   UNL     1      -2.145 -10.402  10.017  1.00  0.00     0.116 C 
BRANCH  38  39
ATOM     39  C   UNL     1      -3.620 -10.128  10.299  1.00  0.00     0.023 C 
BRANCH  39  40
ATOM     40  C   UNL     1      -4.450 -11.405  10.355  1.00  0.00     0.026 C 
BRANCH  40  41
ATOM     41  C   UNL     1      -5.891 -11.135   9.923  1.00  0.00     0.146 C 
BRANCH  41  42
ATOM     42  N   UNL     1      -6.252  -9.760  10.242  1.00  0.00    -0.254 NA
ATOM     43  C   UNL     1      -6.926  -9.071   9.401  1.00  0.00     0.185 C 
ATOM     44  N   UNL     1      -7.399  -9.408   8.187  1.00  0.00    -0.370 N 
ATOM     45  N   UNL     1      -7.245  -7.803   9.713  1.00  0.00    -0.370 N 
ATOM     46  H   UNL     1      -7.696  -8.700   7.538  1.00  0.00     0.159 HD
ATOM     47  H   UNL     1      -7.260 -10.336   7.800  1.00  0.00     0.159 HD
ATOM     48  H   UNL     1      -6.934  -7.472  10.616  1.00  0.00     0.159 HD
ATOM     49  H   UNL     1      -7.957  -7.286   9.228  1.00  0.00     0.159 HD
ENDBRANCH  41  42
ENDBRANCH  40  41
ENDBRANCH  39  40
ENDBRANCH  38  39
ENDBRANCH  36  38
ENDBRANCH   5  34
BRANCH   8  50
ATOM     50  O   UNL     1       2.345 -10.947   5.699  1.00  0.00    -0.245 OA
BRANCH  50  51
ATOM     51  S   UNL     1       3.008 -12.335   5.171  1.00  0.00     0.397 S 
ATOM     52  O   UNL     1       3.066 -13.254   6.286  1.00  0.00    -0.169 OA
ATOM     53  O   UNL     1       4.176 -12.041   4.367  1.00  0.00    -0.169 OA
BRANCH  51  54
ATOM     54  O   UNL     1       1.864 -12.903   4.194  1.00  0.00    -0.264 OA
ATOM     55  H   UNL     1       2.290 -13.148   3.348  1.00  0.00     0.236 HD
ENDBRANCH  51  54
ENDBRANCH  50  51
ENDBRANCH   8  50
TORSDOF 19
ENDMDL
MODEL 34
REMARK VINA RESULT:    -6.705      8.634     13.823
REMARK INTER + INTRA:         -15.196
REMARK INTER:                 -12.009
REMARK INTRA:                  -3.187
REMARK UNBOUND:                -1.631
REMARK SMILES CC[C@@H](C)[C@@H](NC(=O)[C@@H](O)Cc1ccc(O)c(Cl)c1)C(=O)N1[C@H](C(=O)NCCCCN=C(N)N)C[C@H]2CC[C@H](OS(=O)(=O)O)C[C@@H]21
REMARK SMILES IDX 22 1 36 2 46 3 35 4 23 5 45 6 37 7 39 8 38 9 20 10 21 11
REMARK SMILES IDX 5 12 6 13 7 14 8 15 9 17 11 18 12 19 17 20 19 21 15 22 14 23
REMARK SMILES IDX 13 24 18 25 16 26 10 28 3 30 4 31 2 32 1 33 24 34 25 35
REMARK SMILES IDX 26 36 27 38 28 39 29 40 30 41 31 42 32 43 33 44 34 45 40 50
REMARK SMILES IDX 41 51 42 52 43 53 44 54
REMARK H PARENT 6 16 16 27 10 29 26 37 33 46 33 47 34 48 34 49 44 55
ROOT
ATOM      1  N   UNL     1       7.250   5.913  12.991  1.00  0.00    -0.326 N 
ATOM      2  C   UNL     1       7.381   3.874  11.822  1.00  0.00     0.014 C 
ATOM      3  C   UNL     1       6.763   4.532  13.059  1.00  0.00     0.091 C 
ATOM      4  C   UNL     1       8.728   4.571  11.710  1.00  0.00     0.041 C 
ATOM      5  C   UNL     1       8.300   6.031  11.950  1.00  0.00     0.175 C 
ATOM      6  C   UNL     1       5.254   4.293  13.029  1.00  0.00     0.059 C 
ATOM      7  C   UNL     1       7.334   2.362  11.931  1.00  0.00     0.008 C 
ATOM      8  C   UNL     1       4.849   2.958  12.368  1.00  0.00     0.143 C 
ATOM      9  C   UNL     1       5.965   1.898  12.472  1.00  0.00     0.034 C 
ENDROOT
BRANCH   1  10
ATOM     10  C   UNL     1       7.033   6.973  13.855  1.00  0.00     0.246 C 
ATOM     11  O   UNL     1       6.402   7.957  13.453  1.00  0.00    -0.272 OA
BRANCH  10  12
ATOM     12  C   UNL     1       7.550   6.887  15.320  1.00  0.00     0.174 C 
BRANCH  12  13
ATOM     13  N   UNL     1       6.436   6.612  16.227  1.00  0.00    -0.342 N 
ATOM     14  C   UNL     1       6.286   5.462  16.970  1.00  0.00     0.249 C 
ATOM     15  O   UNL     1       7.096   4.543  16.974  1.00  0.00    -0.272 OA
ATOM     16  H   UNL     1       5.613   7.209  16.209  1.00  0.00     0.164 HD
BRANCH  14  17
ATOM     17  C   UNL     1       4.996   5.464  17.816  1.00  0.00     0.207 C 
BRANCH  17  18
ATOM     18  C   UNL     1       3.923   6.337  17.156  1.00  0.00     0.077 C 
BRANCH  18  19
ATOM     19  C   UNL     1       2.757   5.513  16.658  1.00  0.00    -0.043 A 
ATOM     20  C   UNL     1       0.435   4.834  16.835  1.00  0.00     0.083 A 
ATOM     21  C   UNL     1       1.497   5.631  17.265  1.00  0.00     0.028 A 
ATOM     22  C   UNL     1       0.625   3.915  15.801  1.00  0.00     0.134 A 
ATOM     23  C   UNL     1       1.868   3.789  15.192  1.00  0.00     0.048 A 
ATOM     24  C   UNL     1       2.933   4.584  15.621  1.00  0.00     0.008 A 
ATOM     25  Cl  UNL     1      -1.106   4.992  17.592  1.00  0.00    -0.080 Cl
BRANCH  22  26
ATOM     26  O   UNL     1      -0.383   3.105  15.353  1.00  0.00    -0.506 OA
ATOM     27  H   UNL     1       0.036   2.277  15.054  1.00  0.00     0.293 HD
ENDBRANCH  22  26
ENDBRANCH  18  19
ENDBRANCH  17  18
BRANCH  17  28
ATOM     28  O   UNL     1       5.250   5.945  19.146  1.00  0.00    -0.383 OA
ATOM     29  H   UNL     1       6.228   5.943  19.254  1.00  0.00     0.211 HD
ENDBRANCH  17  28
ENDBRANCH  14  17
ENDBRANCH  12  13
BRANCH  12  30
ATOM     30  C   UNL     1       8.363   8.139  15.744  1.00  0.00     0.018 C 
ATOM     31  C   UNL     1       9.458   8.455  14.713  1.00  0.00     0.010 C 
BRANCH  30  32
ATOM     32  C   UNL     1       8.982   8.029  17.159  1.00  0.00     0.002 C 
ATOM     33  C   UNL     1       8.265   8.818  18.247  1.00  0.00     0.004 C 
ENDBRANCH  30  32
ENDBRANCH  12  30
ENDBRANCH  10  12
ENDBRANCH   1  10
BRANCH   5  34
ATOM     34  C   UNL     1       7.726   6.678  10.661  1.00  0.00     0.242 C 
ATOM     35  O   UNL     1       6.851   7.544  10.693  1.00  0.00    -0.273 OA
ATOM     36  N   UNL     1       8.226   6.175   9.481  1.00  0.00    -0.354 N 
ATOM     37  H   UNL     1       8.860   5.376   9.516  1.00  0.00     0.163 HD
BRANCH  36  38
ATOM     38  C   UNL     1       7.967   6.803   8.202  1.00  0.00     0.116 C 
BRANCH  38  39
ATOM     39  C   UNL     1       6.990   5.951   7.395  1.00  0.00     0.023 C 
BRANCH  39  40
ATOM     40  C   UNL     1       5.907   6.787   6.720  1.00  0.00     0.026 C 
BRANCH  40  41
ATOM     41  C   UNL     1       5.167   7.645   7.746  1.00  0.00     0.146 C 
BRANCH  41  42
ATOM     42  N   UNL     1       4.084   6.874   8.342  1.00  0.00    -0.254 NA
ATOM     43  C   UNL     1       2.872   7.249   8.172  1.00  0.00     0.185 C 
ATOM     44  N   UNL     1       2.378   8.300   7.492  1.00  0.00    -0.370 N 
ATOM     45  N   UNL     1       1.888   6.527   8.734  1.00  0.00    -0.370 N 
ATOM     46  H   UNL     1       1.434   8.612   7.644  1.00  0.00     0.159 HD
ATOM     47  H   UNL     1       2.984   8.945   6.994  1.00  0.00     0.159 HD
ATOM     48  H   UNL     1       2.174   5.711   9.257  1.00  0.00     0.159 HD
ATOM     49  H   UNL     1       0.926   6.611   8.457  1.00  0.00     0.159 HD
ENDBRANCH  41  42
ENDBRANCH  40  41
ENDBRANCH  39  40
ENDBRANCH  38  39
ENDBRANCH  36  38
ENDBRANCH   5  34
BRANCH   8  50
ATOM     50  O   UNL     1       4.547   3.166  10.988  1.00  0.00    -0.245 OA
BRANCH  50  51
ATOM     51  S   UNL     1       3.000   3.359  10.525  1.00  0.00     0.397 S 
ATOM     52  O   UNL     1       2.217   2.307  11.133  1.00  0.00    -0.169 OA
ATOM     53  O   UNL     1       2.948   3.619   9.101  1.00  0.00    -0.169 OA
BRANCH  51  54
ATOM     54  O   UNL     1       2.587   4.711  11.291  1.00  0.00    -0.264 OA
ATOM     55  H   UNL     1       2.644   4.538  12.253  1.00  0.00     0.236 HD
ENDBRANCH  51  54
ENDBRANCH  50  51
ENDBRANCH   8  50
TORSDOF 19
ENDMDL
MODEL 35
REMARK VINA RESULT:    -6.682     10.557     15.096
REMARK INTER + INTRA:         -15.148
REMARK INTER:                 -11.757
REMARK INTRA:                  -3.391
REMARK UNBOUND:                -1.631
REMARK SMILES CC[C@@H](C)[C@@H](NC(=O)[C@@H](O)Cc1ccc(O)c(Cl)c1)C(=O)N1[C@H](C(=O)NCCCCN=C(N)N)C[C@H]2CC[C@H](OS(=O)(=O)O)C[C@@H]21
REMARK SMILES IDX 22 1 36 2 46 3 35 4 23 5 45 6 37 7 39 8 38 9 20 10 21 11
REMARK SMILES IDX 5 12 6 13 7 14 8 15 9 17 11 18 12 19 17 20 19 21 15 22 14 23
REMARK SMILES IDX 13 24 18 25 16 26 10 28 3 30 4 31 2 32 1 33 24 34 25 35
REMARK SMILES IDX 26 36 27 38 28 39 29 40 30 41 31 42 32 43 33 44 34 45 40 50
REMARK SMILES IDX 41 51 42 52 43 53 44 54
REMARK H PARENT 6 16 16 27 10 29 26 37 33 46 33 47 34 48 34 49 44 55
ROOT
ATOM      1  N   UNL     1       5.511  -5.313   7.644  1.00  0.00    -0.326 N 
ATOM      2  C   UNL     1       5.673  -5.336   5.296  1.00  0.00     0.014 C 
ATOM      3  C   UNL     1       5.331  -6.215   6.502  1.00  0.00     0.091 C 
ATOM      4  C   UNL     1       6.774  -4.437   5.837  1.00  0.00     0.041 C 
ATOM      5  C   UNL     1       6.170  -4.059   7.202  1.00  0.00     0.175 C 
ATOM      6  C   UNL     1       3.952  -6.831   6.276  1.00  0.00     0.059 C 
ATOM      7  C   UNL     1       5.943  -6.183   4.067  1.00  0.00     0.008 C 
ATOM      8  C   UNL     1       3.628  -7.100   4.790  1.00  0.00     0.143 C 
ATOM      9  C   UNL     1       4.902  -7.317   3.950  1.00  0.00     0.034 C 
ENDROOT
BRANCH   1  10
ATOM     10  C   UNL     1       5.362  -5.556   8.999  1.00  0.00     0.246 C 
ATOM     11  O   UNL     1       6.293  -5.284   9.764  1.00  0.00    -0.272 OA
BRANCH  10  12
ATOM     12  C   UNL     1       4.015  -6.125   9.533  1.00  0.00     0.174 C 
BRANCH  12  13
ATOM     13  N   UNL     1       2.990  -5.083   9.511  1.00  0.00    -0.342 N 
ATOM     14  C   UNL     1       1.720  -5.234   9.002  1.00  0.00     0.249 C 
ATOM     15  O   UNL     1       1.294  -6.282   8.530  1.00  0.00    -0.272 OA
ATOM     16  H   UNL     1       3.245  -4.121   9.723  1.00  0.00     0.164 HD
BRANCH  14  17
ATOM     17  C   UNL     1       0.878  -3.945   9.108  1.00  0.00     0.207 C 
BRANCH  17  18
ATOM     18  C   UNL     1      -0.606  -4.254   8.883  1.00  0.00     0.077 C 
BRANCH  18  19
ATOM     19  C   UNL     1      -1.336  -4.485  10.187  1.00  0.00    -0.043 A 
ATOM     20  C   UNL     1      -2.966  -5.717  11.495  1.00  0.00     0.083 A 
ATOM     21  C   UNL     1      -2.257  -5.537  10.306  1.00  0.00     0.028 A 
ATOM     22  C   UNL     1      -2.761  -4.849  12.568  1.00  0.00     0.134 A 
ATOM     23  C   UNL     1      -1.852  -3.803  12.463  1.00  0.00     0.048 A 
ATOM     24  C   UNL     1      -1.142  -3.619  11.274  1.00  0.00     0.008 A 
ATOM     25  Cl  UNL     1      -4.094  -7.015  11.622  1.00  0.00    -0.080 Cl
BRANCH  22  26
ATOM     26  O   UNL     1      -3.440  -4.979  13.749  1.00  0.00    -0.506 OA
ATOM     27  H   UNL     1      -4.390  -4.948  13.531  1.00  0.00     0.293 HD
ENDBRANCH  22  26
ENDBRANCH  18  19
ENDBRANCH  17  18
BRANCH  17  28
ATOM     28  O   UNL     1       1.311  -2.964   8.152  1.00  0.00    -0.383 OA
ATOM     29  H   UNL     1       1.686  -3.469   7.395  1.00  0.00     0.211 HD
ENDBRANCH  17  28
ENDBRANCH  14  17
ENDBRANCH  12  13
BRANCH  12  30
ATOM     30  C   UNL     1       4.156  -6.788  10.929  1.00  0.00     0.018 C 
ATOM     31  C   UNL     1       3.374  -8.110  10.988  1.00  0.00     0.010 C 
BRANCH  30  32
ATOM     32  C   UNL     1       3.734  -5.868  12.100  1.00  0.00     0.002 C 
ATOM     33  C   UNL     1       4.849  -5.489  13.066  1.00  0.00     0.004 C 
ENDBRANCH  30  32
ENDBRANCH  12  30
ENDBRANCH  10  12
ENDBRANCH   1  10
BRANCH   5  34
ATOM     34  C   UNL     1       5.134  -2.910   7.072  1.00  0.00     0.242 C 
ATOM     35  O   UNL     1       3.988  -3.005   7.509  1.00  0.00    -0.273 OA
ATOM     36  N   UNL     1       5.574  -1.801   6.385  1.00  0.00    -0.354 N 
ATOM     37  H   UNL     1       6.494  -1.830   5.943  1.00  0.00     0.163 HD
BRANCH  36  38
ATOM     38  C   UNL     1       4.824  -0.562   6.355  1.00  0.00     0.116 C 
BRANCH  38  39
ATOM     39  C   UNL     1       5.779   0.618   6.187  1.00  0.00     0.023 C 
BRANCH  39  40
ATOM     40  C   UNL     1       5.602   1.670   7.277  1.00  0.00     0.026 C 
BRANCH  40  41
ATOM     41  C   UNL     1       5.134   2.996   6.679  1.00  0.00     0.146 C 
BRANCH  41  42
ATOM     42  N   UNL     1       4.760   2.803   5.284  1.00  0.00    -0.254 NA
ATOM     43  C   UNL     1       4.057   3.691   4.688  1.00  0.00     0.185 C 
ATOM     44  N   UNL     1       3.564   4.856   5.147  1.00  0.00    -0.370 N 
ATOM     45  N   UNL     1       3.719   3.492   3.404  1.00  0.00    -0.370 N 
ATOM     46  H   UNL     1       2.830   5.333   4.652  1.00  0.00     0.159 HD
ATOM     47  H   UNL     1       3.736   5.170   6.097  1.00  0.00     0.159 HD
ATOM     48  H   UNL     1       4.058   2.640   2.977  1.00  0.00     0.159 HD
ATOM     49  H   UNL     1       3.383   4.229   2.809  1.00  0.00     0.159 HD
ENDBRANCH  41  42
ENDBRANCH  40  41
ENDBRANCH  39  40
ENDBRANCH  38  39
ENDBRANCH  36  38
ENDBRANCH   5  34
BRANCH   8  50
ATOM     50  O   UNL     1       2.903  -6.000   4.239  1.00  0.00    -0.245 OA
BRANCH  50  51
ATOM     51  S   UNL     1       1.308  -5.865   4.526  1.00  0.00     0.397 S 
ATOM     52  O   UNL     1       0.835  -7.136   5.025  1.00  0.00    -0.169 OA
ATOM     53  O   UNL     1       0.668  -5.200   3.410  1.00  0.00    -0.169 OA
BRANCH  51  54
ATOM     54  O   UNL     1       1.277  -4.863   5.784  1.00  0.00    -0.264 OA
ATOM     55  H   UNL     1       1.849  -5.242   6.482  1.00  0.00     0.236 HD
ENDBRANCH  51  54
ENDBRANCH  50  51
ENDBRANCH   8  50
TORSDOF 19
ENDMDL
MODEL 36
REMARK VINA RESULT:    -6.650     13.603     17.077
REMARK INTER + INTRA:         -15.085
REMARK INTER:                 -12.167
REMARK INTRA:                  -2.917
REMARK UNBOUND:                -1.631
REMARK SMILES CC[C@@H](C)[C@@H](NC(=O)[C@@H](O)Cc1ccc(O)c(Cl)c1)C(=O)N1[C@H](C(=O)NCCCCN=C(N)N)C[C@H]2CC[C@H](OS(=O)(=O)O)C[C@@H]21
REMARK SMILES IDX 22 1 36 2 46 3 35 4 23 5 45 6 37 7 39 8 38 9 20 10 21 11
REMARK SMILES IDX 5 12 6 13 7 14 8 15 9 17 11 18 12 19 17 20 19 21 15 22 14 23
REMARK SMILES IDX 13 24 18 25 16 26 10 28 3 30 4 31 2 32 1 33 24 34 25 35
REMARK SMILES IDX 26 36 27 38 28 39 29 40 30 41 31 42 32 43 33 44 34 45 40 50
REMARK SMILES IDX 41 51 42 52 43 53 44 54
REMARK H PARENT 6 16 16 27 10 29 26 37 33 46 33 47 34 48 34 49 44 55
ROOT
ATOM      1  N   UNL     1      -1.141  -5.888  10.873  1.00  0.00    -0.326 N 
ATOM      2  C   UNL     1      -2.950  -5.800  12.376  1.00  0.00     0.014 C 
ATOM      3  C   UNL     1      -2.600  -6.022  10.902  1.00  0.00     0.091 C 
ATOM      4  C   UNL     1      -1.921  -4.769  12.813  1.00  0.00     0.041 C 
ATOM      5  C   UNL     1      -0.653  -5.360  12.171  1.00  0.00     0.175 C 
ATOM      6  C   UNL     1      -3.216  -7.346  10.454  1.00  0.00     0.059 C 
ATOM      7  C   UNL     1      -4.426  -5.495  12.543  1.00  0.00     0.008 C 
ATOM      8  C   UNL     1      -4.538  -7.692  11.172  1.00  0.00     0.143 C 
ATOM      9  C   UNL     1      -5.278  -6.431  11.661  1.00  0.00     0.034 C 
ENDROOT
BRANCH   1  10
ATOM     10  C   UNL     1      -0.264  -5.970   9.805  1.00  0.00     0.246 C 
ATOM     11  O   UNL     1       0.897  -6.343  10.008  1.00  0.00    -0.272 OA
BRANCH  10  12
ATOM     12  C   UNL     1      -0.767  -5.635   8.371  1.00  0.00     0.174 C 
BRANCH  12  13
ATOM     13  N   UNL     1       0.137  -6.213   7.377  1.00  0.00    -0.342 N 
ATOM     14  C   UNL     1       0.179  -7.543   7.026  1.00  0.00     0.249 C 
ATOM     15  O   UNL     1      -0.565  -8.396   7.494  1.00  0.00    -0.272 OA
ATOM     16  H   UNL     1       0.913  -5.660   7.021  1.00  0.00     0.164 HD
BRANCH  14  17
ATOM     17  C   UNL     1       1.255  -7.844   5.960  1.00  0.00     0.207 C 
BRANCH  17  18
ATOM     18  C   UNL     1       1.591  -6.578   5.166  1.00  0.00     0.077 C 
BRANCH  18  19
ATOM     19  C   UNL     1       3.076  -6.451   4.913  1.00  0.00    -0.043 A 
ATOM     20  C   UNL     1       5.069  -5.080   4.730  1.00  0.00     0.083 A 
ATOM     21  C   UNL     1       3.708  -5.202   5.013  1.00  0.00     0.028 A 
ATOM     22  C   UNL     1       5.805  -6.201   4.346  1.00  0.00     0.134 A 
ATOM     23  C   UNL     1       5.193  -7.444   4.243  1.00  0.00     0.048 A 
ATOM     24  C   UNL     1       3.830  -7.569   4.523  1.00  0.00     0.008 A 
ATOM     25  Cl  UNL     1       5.827  -3.536   4.858  1.00  0.00    -0.080 Cl
BRANCH  22  26
ATOM     26  O   UNL     1       7.139  -6.128   4.049  1.00  0.00    -0.506 OA
ATOM     27  H   UNL     1       7.285  -6.700   3.272  1.00  0.00     0.293 HD
ENDBRANCH  22  26
ENDBRANCH  18  19
ENDBRANCH  17  18
BRANCH  17  28
ATOM     28  O   UNL     1       0.814  -8.870   5.056  1.00  0.00    -0.383 OA
ATOM     29  H   UNL     1       0.278  -9.495   5.595  1.00  0.00     0.211 HD
ENDBRANCH  17  28
ENDBRANCH  14  17
ENDBRANCH  12  13
BRANCH  12  30
ATOM     30  C   UNL     1      -0.992  -4.114   8.154  1.00  0.00     0.018 C 
ATOM     31  C   UNL     1      -0.760  -3.732   6.684  1.00  0.00     0.010 C 
BRANCH  30  32
ATOM     32  C   UNL     1      -0.129  -3.221   9.079  1.00  0.00     0.002 C 
ATOM     33  C   UNL     1      -0.910  -2.322  10.029  1.00  0.00     0.004 C 
ENDBRANCH  30  32
ENDBRANCH  12  30
ENDBRANCH  10  12
ENDBRANCH   1  10
BRANCH   5  34
ATOM     34  C   UNL     1      -0.051  -6.499  13.036  1.00  0.00     0.242 C 
ATOM     35  O   UNL     1      -0.136  -7.684  12.715  1.00  0.00    -0.273 OA
ATOM     36  N   UNL     1       0.536  -6.092  14.213  1.00  0.00    -0.354 N 
ATOM     37  H   UNL     1       0.469  -5.110  14.482  1.00  0.00     0.163 HD
BRANCH  36  38
ATOM     38  C   UNL     1       1.330  -6.986  15.031  1.00  0.00     0.116 C 
BRANCH  38  39
ATOM     39  C   UNL     1       2.538  -6.239  15.592  1.00  0.00     0.023 C 
BRANCH  39  40
ATOM     40  C   UNL     1       3.850  -6.965  15.321  1.00  0.00     0.026 C 
BRANCH  40  41
ATOM     41  C   UNL     1       4.708  -6.183  14.326  1.00  0.00     0.146 C 
BRANCH  41  42
ATOM     42  N   UNL     1       3.852  -5.534  13.342  1.00  0.00    -0.254 NA
ATOM     43  C   UNL     1       3.968  -5.836  12.104  1.00  0.00     0.185 C 
ATOM     44  N   UNL     1       4.797  -6.708  11.500  1.00  0.00    -0.370 N 
ATOM     45  N   UNL     1       3.173  -5.223  11.212  1.00  0.00    -0.370 N 
ATOM     46  H   UNL     1       4.950  -6.666  10.507  1.00  0.00     0.159 HD
ATOM     47  H   UNL     1       5.458  -7.268  12.029  1.00  0.00     0.159 HD
ATOM     48  H   UNL     1       2.511  -4.556  11.585  1.00  0.00     0.159 HD
ATOM     49  H   UNL     1       3.037  -5.567  10.278  1.00  0.00     0.159 HD
ENDBRANCH  41  42
ENDBRANCH  40  41
ENDBRANCH  39  40
ENDBRANCH  38  39
ENDBRANCH  36  38
ENDBRANCH   5  34
BRANCH   8  50
ATOM     50  O   UNL     1      -4.278  -8.531  12.299  1.00  0.00    -0.245 OA
BRANCH  50  51
ATOM     51  S   UNL     1      -4.398 -10.146  12.142  1.00  0.00     0.397 S 
ATOM     52  O   UNL     1      -3.073 -10.669  11.891  1.00  0.00    -0.169 OA
ATOM     53  O   UNL     1      -5.517 -10.469  11.282  1.00  0.00    -0.169 OA
BRANCH  51  54
ATOM     54  O   UNL     1      -4.773 -10.601  13.637  1.00  0.00    -0.264 OA
ATOM     55  H   UNL     1      -4.373 -11.482  13.790  1.00  0.00     0.236 HD
ENDBRANCH  51  54
ENDBRANCH  50  51
ENDBRANCH   8  50
TORSDOF 19
ENDMDL
MODEL 37
REMARK VINA RESULT:    -6.569     14.570     18.348
REMARK INTER + INTRA:         -14.919
REMARK INTER:                 -10.528
REMARK INTRA:                  -4.391
REMARK UNBOUND:                -1.631
REMARK SMILES CC[C@@H](C)[C@@H](NC(=O)[C@@H](O)Cc1ccc(O)c(Cl)c1)C(=O)N1[C@H](C(=O)NCCCCN=C(N)N)C[C@H]2CC[C@H](OS(=O)(=O)O)C[C@@H]21
REMARK SMILES IDX 22 1 36 2 46 3 35 4 23 5 45 6 37 7 39 8 38 9 20 10 21 11
REMARK SMILES IDX 5 12 6 13 7 14 8 15 9 17 11 18 12 19 17 20 19 21 15 22 14 23
REMARK SMILES IDX 13 24 18 25 16 26 10 28 3 30 4 31 2 32 1 33 24 34 25 35
REMARK SMILES IDX 26 36 27 38 28 39 29 40 30 41 31 42 32 43 33 44 34 45 40 50
REMARK SMILES IDX 41 51 42 52 43 53 44 54
REMARK H PARENT 6 16 16 27 10 29 26 37 33 46 33 47 34 48 34 49 44 55
ROOT
ATOM      1  N   UNL     1      -2.752  -5.638  11.220  1.00  0.00    -0.326 N 
ATOM      2  C   UNL     1      -4.670  -6.858  11.832  1.00  0.00     0.014 C 
ATOM      3  C   UNL     1      -3.785  -6.497  10.635  1.00  0.00     0.091 C 
ATOM      4  C   UNL     1      -4.625  -5.593  12.676  1.00  0.00     0.041 C 
ATOM      5  C   UNL     1      -3.119  -5.277  12.612  1.00  0.00     0.175 C 
ATOM      6  C   UNL     1      -3.349  -7.790   9.950  1.00  0.00     0.059 C 
ATOM      7  C   UNL     1      -6.010  -7.398  11.373  1.00  0.00     0.008 C 
ATOM      8  C   UNL     1      -4.391  -8.926  10.045  1.00  0.00     0.143 C 
ATOM      9  C   UNL     1      -5.826  -8.384  10.200  1.00  0.00     0.034 C 
ENDROOT
BRANCH   1  10
ATOM     10  C   UNL     1      -1.686  -4.994  10.615  1.00  0.00     0.246 C 
ATOM     11  O   UNL     1      -1.580  -3.768  10.729  1.00  0.00    -0.272 OA
BRANCH  10  12
ATOM     12  C   UNL     1      -0.623  -5.830   9.844  1.00  0.00     0.174 C 
BRANCH  12  13
ATOM     13  N   UNL     1       0.721  -5.370  10.191  1.00  0.00    -0.342 N 
ATOM     14  C   UNL     1       1.669  -6.123  10.846  1.00  0.00     0.249 C 
ATOM     15  O   UNL     1       1.498  -7.286  11.190  1.00  0.00    -0.272 OA
ATOM     16  H   UNL     1       0.952  -4.383  10.111  1.00  0.00     0.164 HD
BRANCH  14  17
ATOM     17  C   UNL     1       2.984  -5.350  11.084  1.00  0.00     0.207 C 
BRANCH  17  18
ATOM     18  C   UNL     1       4.118  -5.953  10.248  1.00  0.00     0.077 C 
BRANCH  18  19
ATOM     19  C   UNL     1       4.108  -5.431   8.829  1.00  0.00    -0.043 A 
ATOM     20  C   UNL     1       4.217  -3.575   7.270  1.00  0.00     0.083 A 
ATOM     21  C   UNL     1       4.276  -4.060   8.577  1.00  0.00     0.028 A 
ATOM     22  C   UNL     1       3.990  -4.453   6.210  1.00  0.00     0.134 A 
ATOM     23  C   UNL     1       3.822  -5.813   6.444  1.00  0.00     0.048 A 
ATOM     24  C   UNL     1       3.879  -6.301   7.752  1.00  0.00     0.008 A 
ATOM     25  Cl  UNL     1       4.425  -1.888   6.981  1.00  0.00    -0.080 Cl
BRANCH  22  26
ATOM     26  O   UNL     1       3.914  -4.023   4.912  1.00  0.00    -0.506 OA
ATOM     27  H   UNL     1       3.343  -3.232   4.912  1.00  0.00     0.293 HD
ENDBRANCH  22  26
ENDBRANCH  18  19
ENDBRANCH  17  18
BRANCH  17  28
ATOM     28  O   UNL     1       3.352  -5.371  12.472  1.00  0.00    -0.383 OA
ATOM     29  H   UNL     1       2.509  -5.328  12.978  1.00  0.00     0.211 HD
ENDBRANCH  17  28
ENDBRANCH  14  17
ENDBRANCH  12  13
BRANCH  12  30
ATOM     30  C   UNL     1      -0.868  -5.842   8.311  1.00  0.00     0.018 C 
ATOM     31  C   UNL     1       0.008  -6.903   7.626  1.00  0.00     0.010 C 
BRANCH  30  32
ATOM     32  C   UNL     1      -0.658  -4.464   7.637  1.00  0.00     0.002 C 
ATOM     33  C   UNL     1       0.280  -4.462   6.437  1.00  0.00     0.004 C 
ENDBRANCH  30  32
ENDBRANCH  12  30
ENDBRANCH  10  12
ENDBRANCH   1  10
BRANCH   5  34
ATOM     34  C   UNL     1      -2.313  -6.125  13.631  1.00  0.00     0.242 C 
ATOM     35  O   UNL     1      -1.144  -6.456  13.432  1.00  0.00    -0.273 OA
ATOM     36  N   UNL     1      -3.015  -6.524  14.747  1.00  0.00    -0.354 N 
ATOM     37  H   UNL     1      -4.014  -6.320  14.798  1.00  0.00     0.163 HD
BRANCH  36  38
ATOM     38  C   UNL     1      -2.368  -7.131  15.891  1.00  0.00     0.116 C 
BRANCH  38  39
ATOM     39  C   UNL     1      -2.465  -8.651  15.796  1.00  0.00     0.023 C 
BRANCH  39  40
ATOM     40  C   UNL     1      -1.117  -9.335  15.997  1.00  0.00     0.026 C 
BRANCH  40  41
ATOM     41  C   UNL     1      -0.019  -8.304  16.257  1.00  0.00     0.146 C 
BRANCH  41  42
ATOM     42  N   UNL     1       1.105  -8.545  15.362  1.00  0.00    -0.254 NA
ATOM     43  C   UNL     1       1.690  -7.555  14.801  1.00  0.00     0.185 C 
ATOM     44  N   UNL     1       1.440  -6.236  14.893  1.00  0.00    -0.370 N 
ATOM     45  N   UNL     1       2.722  -7.798  13.975  1.00  0.00    -0.370 N 
ATOM     46  H   UNL     1       1.815  -5.594  14.214  1.00  0.00     0.159 HD
ATOM     47  H   UNL     1       0.700  -5.874  15.486  1.00  0.00     0.159 HD
ATOM     48  H   UNL     1       2.982  -8.768  13.857  1.00  0.00     0.159 HD
ATOM     49  H   UNL     1       3.371  -7.086  13.691  1.00  0.00     0.159 HD
ENDBRANCH  41  42
ENDBRANCH  40  41
ENDBRANCH  39  40
ENDBRANCH  38  39
ENDBRANCH  36  38
ENDBRANCH   5  34
BRANCH   8  50
ATOM     50  O   UNL     1      -4.100  -9.766  11.163  1.00  0.00    -0.245 OA
BRANCH  50  51
ATOM     51  S   UNL     1      -4.396 -11.362  11.066  1.00  0.00     0.397 S 
ATOM     52  O   UNL     1      -4.224 -11.766   9.689  1.00  0.00    -0.169 OA
ATOM     53  O   UNL     1      -5.600 -11.678  11.806  1.00  0.00    -0.169 OA
BRANCH  51  54
ATOM     54  O   UNL     1      -3.146 -11.984  11.864  1.00  0.00    -0.264 OA
ATOM     55  H   UNL     1      -2.890 -11.347  12.562  1.00  0.00     0.236 HD
ENDBRANCH  51  54
ENDBRANCH  50  51
ENDBRANCH   8  50
TORSDOF 19
ENDMDL
MODEL 38
REMARK VINA RESULT:    -6.563      4.462      7.444
REMARK INTER + INTRA:         -14.908
REMARK INTER:                 -12.006
REMARK INTRA:                  -2.902
REMARK UNBOUND:                -1.631
REMARK SMILES CC[C@@H](C)[C@@H](NC(=O)[C@@H](O)Cc1ccc(O)c(Cl)c1)C(=O)N1[C@H](C(=O)NCCCCN=C(N)N)C[C@H]2CC[C@H](OS(=O)(=O)O)C[C@@H]21
REMARK SMILES IDX 22 1 36 2 46 3 35 4 23 5 45 6 37 7 39 8 38 9 20 10 21 11
REMARK SMILES IDX 5 12 6 13 7 14 8 15 9 17 11 18 12 19 17 20 19 21 15 22 14 23
REMARK SMILES IDX 13 24 18 25 16 26 10 28 3 30 4 31 2 32 1 33 24 34 25 35
REMARK SMILES IDX 26 36 27 38 28 39 29 40 30 41 31 42 32 43 33 44 34 45 40 50
REMARK SMILES IDX 41 51 42 52 43 53 44 54
REMARK H PARENT 6 16 16 27 10 29 26 37 33 46 33 47 34 48 34 49 44 55
ROOT
ATOM      1  N   UNL     1       5.195   2.670  10.867  1.00  0.00    -0.326 N 
ATOM      2  C   UNL     1       3.290   3.051  12.196  1.00  0.00     0.014 C 
ATOM      3  C   UNL     1       4.780   2.706  12.272  1.00  0.00     0.091 C 
ATOM      4  C   UNL     1       2.846   2.342  10.926  1.00  0.00     0.041 C 
ATOM      5  C   UNL     1       4.003   2.722   9.984  1.00  0.00     0.175 C 
ATOM      6  C   UNL     1       5.460   3.708  13.203  1.00  0.00     0.059 C 
ATOM      7  C   UNL     1       2.593   2.735  13.506  1.00  0.00     0.008 C 
ATOM      8  C   UNL     1       4.550   4.216  14.342  1.00  0.00     0.143 C 
ATOM      9  C   UNL     1       3.450   3.196  14.703  1.00  0.00     0.034 C 
ENDROOT
BRANCH   1  10
ATOM     10  C   UNL     1       6.433   2.391  10.314  1.00  0.00     0.246 C 
ATOM     11  O   UNL     1       6.670   1.245   9.919  1.00  0.00    -0.272 OA
BRANCH  10  12
ATOM     12  C   UNL     1       7.480   3.532  10.162  1.00  0.00     0.174 C 
BRANCH  12  13
ATOM     13  N   UNL     1       7.649   3.870   8.749  1.00  0.00    -0.342 N 
ATOM     14  C   UNL     1       7.703   5.149   8.244  1.00  0.00     0.249 C 
ATOM     15  O   UNL     1       7.642   6.159   8.934  1.00  0.00    -0.272 OA
ATOM     16  H   UNL     1       7.558   3.143   8.044  1.00  0.00     0.164 HD
BRANCH  14  17
ATOM     17  C   UNL     1       7.870   5.176   6.709  1.00  0.00     0.207 C 
BRANCH  17  18
ATOM     18  C   UNL     1       7.041   6.311   6.100  1.00  0.00     0.077 C 
BRANCH  18  19
ATOM     19  C   UNL     1       7.640   6.812   4.805  1.00  0.00    -0.043 A 
ATOM     20  C   UNL     1       8.174   6.468   2.464  1.00  0.00     0.083 A 
ATOM     21  C   UNL     1       7.578   6.025   3.645  1.00  0.00     0.028 A 
ATOM     22  C   UNL     1       8.836   7.696   2.435  1.00  0.00     0.134 A 
ATOM     23  C   UNL     1       8.906   8.486   3.576  1.00  0.00     0.048 A 
ATOM     24  C   UNL     1       8.311   8.044   4.760  1.00  0.00     0.008 A 
ATOM     25  Cl  UNL     1       8.087   5.486   1.049  1.00  0.00    -0.080 Cl
BRANCH  22  26
ATOM     26  O   UNL     1       9.445   8.168   1.303  1.00  0.00    -0.506 OA
ATOM     27  H   UNL     1       9.781   7.390   0.821  1.00  0.00     0.293 HD
ENDBRANCH  22  26
ENDBRANCH  18  19
ENDBRANCH  17  18
BRANCH  17  28
ATOM     28  O   UNL     1       7.471   3.927   6.123  1.00  0.00    -0.383 OA
ATOM     29  H   UNL     1       7.733   3.229   6.766  1.00  0.00     0.211 HD
ENDBRANCH  17  28
ENDBRANCH  14  17
ENDBRANCH  12  13
BRANCH  12  30
ATOM     30  C   UNL     1       8.829   3.205  10.859  1.00  0.00     0.018 C 
ATOM     31  C   UNL     1       9.335   4.412  11.663  1.00  0.00     0.010 C 
BRANCH  30  32
ATOM     32  C   UNL     1       9.928   2.715   9.885  1.00  0.00     0.002 C 
ATOM     33  C   UNL     1      10.968   3.759   9.499  1.00  0.00     0.004 C 
ENDBRANCH  30  32
ENDBRANCH  12  30
ENDBRANCH  10  12
ENDBRANCH   1  10
BRANCH   5  34
ATOM     34  C   UNL     1       3.817   4.145   9.394  1.00  0.00     0.242 C 
ATOM     35  O   UNL     1       4.429   5.122   9.825  1.00  0.00    -0.273 OA
ATOM     36  N   UNL     1       2.878   4.245   8.391  1.00  0.00    -0.354 N 
ATOM     37  H   UNL     1       2.317   3.424   8.160  1.00  0.00     0.163 HD
BRANCH  36  38
ATOM     38  C   UNL     1       2.730   5.440   7.587  1.00  0.00     0.116 C 
BRANCH  38  39
ATOM     39  C   UNL     1       3.731   5.416   6.434  1.00  0.00     0.023 C 
BRANCH  39  40
ATOM     40  C   UNL     1       3.753   4.075   5.709  1.00  0.00     0.026 C 
BRANCH  40  41
ATOM     41  C   UNL     1       4.400   4.214   4.331  1.00  0.00     0.146 C 
BRANCH  41  42
ATOM     42  N   UNL     1       3.366   4.311   3.309  1.00  0.00    -0.254 NA
ATOM     43  C   UNL     1       3.695   4.298   2.072  1.00  0.00     0.185 C 
ATOM     44  N   UNL     1       4.910   4.204   1.501  1.00  0.00    -0.370 N 
ATOM     45  N   UNL     1       2.728   4.393   1.146  1.00  0.00    -0.370 N 
ATOM     46  H   UNL     1       5.043   4.452   0.535  1.00  0.00     0.159 HD
ATOM     47  H   UNL     1       5.755   4.112   2.057  1.00  0.00     0.159 HD
ATOM     48  H   UNL     1       1.780   4.458   1.492  1.00  0.00     0.159 HD
ATOM     49  H   UNL     1       2.873   4.155   0.181  1.00  0.00     0.159 HD
ENDBRANCH  41  42
ENDBRANCH  40  41
ENDBRANCH  39  40
ENDBRANCH  38  39
ENDBRANCH  36  38
ENDBRANCH   5  34
BRANCH   8  50
ATOM     50  O   UNL     1       3.924   5.441  13.960  1.00  0.00    -0.245 OA
BRANCH  50  51
ATOM     51  S   UNL     1       3.264   6.395  15.100  1.00  0.00     0.397 S 
ATOM     52  O   UNL     1       3.933   6.123  16.352  1.00  0.00    -0.169 OA
ATOM     53  O   UNL     1       1.821   6.360  14.988  1.00  0.00    -0.169 OA
BRANCH  51  54
ATOM     54  O   UNL     1       3.762   7.855  14.646  1.00  0.00    -0.264 OA
ATOM     55  H   UNL     1       3.250   8.110  13.851  1.00  0.00     0.236 HD
ENDBRANCH  51  54
ENDBRANCH  50  51
ENDBRANCH   8  50
TORSDOF 19
ENDMDL
MODEL 39
REMARK VINA RESULT:    -6.562      5.538     10.773
REMARK INTER + INTRA:         -14.905
REMARK INTER:                 -13.161
REMARK INTRA:                  -1.744
REMARK UNBOUND:                -1.631
REMARK SMILES CC[C@@H](C)[C@@H](NC(=O)[C@@H](O)Cc1ccc(O)c(Cl)c1)C(=O)N1[C@H](C(=O)NCCCCN=C(N)N)C[C@H]2CC[C@H](OS(=O)(=O)O)C[C@@H]21
REMARK SMILES IDX 22 1 36 2 46 3 35 4 23 5 45 6 37 7 39 8 38 9 20 10 21 11
REMARK SMILES IDX 5 12 6 13 7 14 8 15 9 17 11 18 12 19 17 20 19 21 15 22 14 23
REMARK SMILES IDX 13 24 18 25 16 26 10 28 3 30 4 31 2 32 1 33 24 34 25 35
REMARK SMILES IDX 26 36 27 38 28 39 29 40 30 41 31 42 32 43 33 44 34 45 40 50
REMARK SMILES IDX 41 51 42 52 43 53 44 54
REMARK H PARENT 6 16 16 27 10 29 26 37 33 46 33 47 34 48 34 49 44 55
ROOT
ATOM      1  N   UNL     1       5.361   3.607   6.282  1.00  0.00    -0.326 N 
ATOM      2  C   UNL     1       5.950   5.883   6.147  1.00  0.00     0.014 C 
ATOM      3  C   UNL     1       6.313   4.569   6.845  1.00  0.00     0.091 C 
ATOM      4  C   UNL     1       4.440   5.775   5.994  1.00  0.00     0.041 C 
ATOM      5  C   UNL     1       4.320   4.321   5.501  1.00  0.00     0.175 C 
ATOM      6  C   UNL     1       7.805   4.312   6.646  1.00  0.00     0.059 C 
ATOM      7  C   UNL     1       6.540   7.069   6.884  1.00  0.00     0.008 C 
ATOM      8  C   UNL     1       8.652   5.601   6.560  1.00  0.00     0.143 C 
ATOM      9  C   UNL     1       7.994   6.777   7.310  1.00  0.00     0.034 C 
ENDROOT
BRANCH   1  10
ATOM     10  C   UNL     1       5.197   2.259   6.550  1.00  0.00     0.246 C 
ATOM     11  O   UNL     1       5.063   1.470   5.609  1.00  0.00    -0.272 OA
BRANCH  10  12
ATOM     12  C   UNL     1       5.227   1.762   8.025  1.00  0.00     0.174 C 
BRANCH  12  13
ATOM     13  N   UNL     1       4.684   2.792   8.910  1.00  0.00    -0.342 N 
ATOM     14  C   UNL     1       4.015   2.548  10.088  1.00  0.00     0.249 C 
ATOM     15  O   UNL     1       3.823   1.428  10.545  1.00  0.00    -0.272 OA
ATOM     16  H   UNL     1       4.629   3.755   8.587  1.00  0.00     0.164 HD
BRANCH  14  17
ATOM     17  C   UNL     1       3.549   3.843  10.787  1.00  0.00     0.207 C 
BRANCH  17  18
ATOM     18  C   UNL     1       2.491   3.528  11.849  1.00  0.00     0.077 C 
BRANCH  18  19
ATOM     19  C   UNL     1       2.810   4.187  13.173  1.00  0.00    -0.043 A 
ATOM     20  C   UNL     1       2.090   5.409  15.140  1.00  0.00     0.083 A 
ATOM     21  C   UNL     1       1.786   4.759  13.944  1.00  0.00     0.028 A 
ATOM     22  C   UNL     1       3.414   5.494  15.572  1.00  0.00     0.134 A 
ATOM     23  C   UNL     1       4.437   4.932  14.818  1.00  0.00     0.048 A 
ATOM     24  C   UNL     1       4.137   4.282  13.619  1.00  0.00     0.008 A 
ATOM     25  Cl  UNL     1       0.818   6.106  16.074  1.00  0.00    -0.080 Cl
BRANCH  22  26
ATOM     26  O   UNL     1       3.761   6.131  16.733  1.00  0.00    -0.506 OA
ATOM     27  H   UNL     1       4.510   5.634  17.111  1.00  0.00     0.293 HD
ENDBRANCH  22  26
ENDBRANCH  18  19
ENDBRANCH  17  18
BRANCH  17  28
ATOM     28  O   UNL     1       3.008   4.777   9.838  1.00  0.00    -0.383 OA
ATOM     29  H   UNL     1       2.139   5.063  10.203  1.00  0.00     0.211 HD
ENDBRANCH  17  28
ENDBRANCH  14  17
ENDBRANCH  12  13
BRANCH  12  30
ATOM     30  C   UNL     1       6.636   1.283   8.467  1.00  0.00     0.018 C 
ATOM     31  C   UNL     1       6.597  -0.186   8.917  1.00  0.00     0.010 C 
BRANCH  30  32
ATOM     32  C   UNL     1       7.272   2.161   9.572  1.00  0.00     0.002 C 
ATOM     33  C   UNL     1       7.497   1.466  10.909  1.00  0.00     0.004 C 
ENDBRANCH  30  32
ENDBRANCH  12  30
ENDBRANCH  10  12
ENDBRANCH   1  10
BRANCH   5  34
ATOM     34  C   UNL     1       4.599   4.208   3.979  1.00  0.00     0.242 C 
ATOM     35  O   UNL     1       5.738   4.099   3.525  1.00  0.00    -0.273 OA
ATOM     36  N   UNL     1       3.487   4.292   3.172  1.00  0.00    -0.354 N 
ATOM     37  H   UNL     1       2.584   4.503   3.599  1.00  0.00     0.163 HD
BRANCH  36  38
ATOM     38  C   UNL     1       3.535   3.993   1.755  1.00  0.00     0.116 C 
BRANCH  38  39
ATOM     39  C   UNL     1       2.990   5.175   0.957  1.00  0.00     0.023 C 
BRANCH  39  40
ATOM     40  C   UNL     1       1.560   4.948   0.481  1.00  0.00     0.026 C 
BRANCH  40  41
ATOM     41  C   UNL     1       1.340   5.576  -0.895  1.00  0.00     0.146 C 
BRANCH  41  42
ATOM     42  N   UNL     1       0.903   4.555  -1.839  1.00  0.00    -0.254 NA
ATOM     43  C   UNL     1       0.875   4.820  -3.091  1.00  0.00     0.185 C 
ATOM     44  N   UNL     1       1.200   5.951  -3.743  1.00  0.00    -0.370 N 
ATOM     45  N   UNL     1       0.465   3.867  -3.943  1.00  0.00    -0.370 N 
ATOM     46  H   UNL     1       0.900   6.100  -4.691  1.00  0.00     0.159 HD
ATOM     47  H   UNL     1       1.544   6.770  -3.251  1.00  0.00     0.159 HD
ATOM     48  H   UNL     1       0.209   2.979  -3.534  1.00  0.00     0.159 HD
ATOM     49  H   UNL     1       0.637   3.911  -4.932  1.00  0.00     0.159 HD
ENDBRANCH  41  42
ENDBRANCH  40  41
ENDBRANCH  39  40
ENDBRANCH  38  39
ENDBRANCH  36  38
ENDBRANCH   5  34
BRANCH   8  50
ATOM     50  O   UNL     1       8.833   5.979   5.195  1.00  0.00    -0.245 OA
BRANCH  50  51
ATOM     51  S   UNL     1      10.338   6.113   4.593  1.00  0.00     0.397 S 
ATOM     52  O   UNL     1      10.741   4.814   4.105  1.00  0.00    -0.169 OA
ATOM     53  O   UNL     1      11.163   6.870   5.511  1.00  0.00    -0.169 OA
BRANCH  51  54
ATOM     54  O   UNL     1      10.096   7.016   3.284  1.00  0.00    -0.264 OA
ATOM     55  H   UNL     1      10.569   7.863   3.415  1.00  0.00     0.236 HD
ENDBRANCH  51  54
ENDBRANCH  50  51
ENDBRANCH   8  50
TORSDOF 19
ENDMDL
MODEL 40
REMARK VINA RESULT:    -6.509      5.318     10.898
REMARK INTER + INTRA:         -14.798
REMARK INTER:                 -11.499
REMARK INTRA:                  -3.299
REMARK UNBOUND:                -1.631
REMARK SMILES CC[C@@H](C)[C@@H](NC(=O)[C@@H](O)Cc1ccc(O)c(Cl)c1)C(=O)N1[C@H](C(=O)NCCCCN=C(N)N)C[C@H]2CC[C@H](OS(=O)(=O)O)C[C@@H]21
REMARK SMILES IDX 22 1 36 2 46 3 35 4 23 5 45 6 37 7 39 8 38 9 20 10 21 11
REMARK SMILES IDX 5 12 6 13 7 14 8 15 9 17 11 18 12 19 17 20 19 21 15 22 14 23
REMARK SMILES IDX 13 24 18 25 16 26 10 28 3 30 4 31 2 32 1 33 24 34 25 35
REMARK SMILES IDX 26 36 27 38 28 39 29 40 30 41 31 42 32 43 33 44 34 45 40 50
REMARK SMILES IDX 41 51 42 52 43 53 44 54
REMARK H PARENT 6 16 16 27 10 29 26 37 33 46 33 47 34 48 34 49 44 55
ROOT
ATOM      1  N   UNL     1       6.508   4.363   7.463  1.00  0.00    -0.326 N 
ATOM      2  C   UNL     1       6.586   6.336   6.181  1.00  0.00     0.014 C 
ATOM      3  C   UNL     1       7.465   5.225   6.764  1.00  0.00     0.091 C 
ATOM      4  C   UNL     1       5.511   6.504   7.243  1.00  0.00     0.041 C 
ATOM      5  C   UNL     1       5.184   5.028   7.536  1.00  0.00     0.175 C 
ATOM      6  C   UNL     1       8.293   4.620   5.632  1.00  0.00     0.059 C 
ATOM      7  C   UNL     1       7.424   7.532   5.774  1.00  0.00     0.008 C 
ATOM      8  C   UNL     1       8.659   5.628   4.521  1.00  0.00     0.143 C 
ATOM      9  C   UNL     1       8.707   7.077   5.048  1.00  0.00     0.034 C 
ENDROOT
BRANCH   1  10
ATOM     10  C   UNL     1       6.724   3.208   8.196  1.00  0.00     0.246 C 
ATOM     11  O   UNL     1       6.504   2.112   7.670  1.00  0.00    -0.272 OA
BRANCH  10  12
ATOM     12  C   UNL     1       7.278   3.314   9.647  1.00  0.00     0.174 C 
BRANCH  12  13
ATOM     13  N   UNL     1       6.227   2.980  10.607  1.00  0.00    -0.342 N 
ATOM     14  C   UNL     1       5.992   1.723  11.117  1.00  0.00     0.249 C 
ATOM     15  O   UNL     1       6.663   0.738  10.838  1.00  0.00    -0.272 OA
ATOM     16  H   UNL     1       5.497   3.658  10.810  1.00  0.00     0.164 HD
BRANCH  14  17
ATOM     17  C   UNL     1       4.799   1.691  12.096  1.00  0.00     0.207 C 
BRANCH  17  18
ATOM     18  C   UNL     1       5.111   2.520  13.347  1.00  0.00     0.077 C 
BRANCH  18  19
ATOM     19  C   UNL     1       3.947   3.401  13.742  1.00  0.00    -0.043 A 
ATOM     20  C   UNL     1       3.099   5.508  14.594  1.00  0.00     0.083 A 
ATOM     21  C   UNL     1       4.171   4.714  14.183  1.00  0.00     0.028 A 
ATOM     22  C   UNL     1       1.802   4.996  14.568  1.00  0.00     0.134 A 
ATOM     23  C   UNL     1       1.566   3.697  14.134  1.00  0.00     0.048 A 
ATOM     24  C   UNL     1       2.637   2.899  13.724  1.00  0.00     0.008 A 
ATOM     25  Cl  UNL     1       3.394   7.119  15.132  1.00  0.00    -0.080 Cl
BRANCH  22  26
ATOM     26  O   UNL     1       0.721   5.732  14.971  1.00  0.00    -0.506 OA
ATOM     27  H   UNL     1      -0.072   5.207  14.756  1.00  0.00     0.293 HD
ENDBRANCH  22  26
ENDBRANCH  18  19
ENDBRANCH  17  18
BRANCH  17  28
ATOM     28  O   UNL     1       4.484   0.344  12.484  1.00  0.00    -0.383 OA
ATOM     29  H   UNL     1       4.831  -0.233  11.766  1.00  0.00     0.211 HD
ENDBRANCH  17  28
ENDBRANCH  14  17
ENDBRANCH  12  13
BRANCH  12  30
ATOM     30  C   UNL     1       7.934   4.690   9.940  1.00  0.00     0.018 C 
ATOM     31  C   UNL     1       9.281   4.511  10.659  1.00  0.00     0.010 C 
BRANCH  30  32
ATOM     32  C   UNL     1       7.026   5.653  10.743  1.00  0.00     0.002 C 
ATOM     33  C   UNL     1       7.263   7.135  10.489  1.00  0.00     0.004 C 
ENDBRANCH  30  32
ENDBRANCH  12  30
ENDBRANCH  10  12
ENDBRANCH   1  10
BRANCH   5  34
ATOM     34  C   UNL     1       4.212   4.438   6.480  1.00  0.00     0.242 C 
ATOM     35  O   UNL     1       2.999   4.646   6.512  1.00  0.00    -0.273 OA
ATOM     36  N   UNL     1       4.797   3.621   5.538  1.00  0.00    -0.354 N 
ATOM     37  H   UNL     1       5.786   3.389   5.635  1.00  0.00     0.163 HD
BRANCH  36  38
ATOM     38  C   UNL     1       4.085   3.162   4.363  1.00  0.00     0.116 C 
BRANCH  38  39
ATOM     39  C   UNL     1       4.322   4.128   3.204  1.00  0.00     0.023 C 
BRANCH  39  40
ATOM     40  C   UNL     1       3.035   4.475   2.463  1.00  0.00     0.026 C 
BRANCH  40  41
ATOM     41  C   UNL     1       3.301   4.645   0.967  1.00  0.00     0.146 C 
BRANCH  41  42
ATOM     42  N   UNL     1       4.519   5.418   0.767  1.00  0.00    -0.254 NA
ATOM     43  C   UNL     1       4.692   6.055  -0.329  1.00  0.00     0.185 C 
ATOM     44  N   UNL     1       3.897   6.149  -1.410  1.00  0.00    -0.370 N 
ATOM     45  N   UNL     1       5.824   6.759  -0.496  1.00  0.00    -0.370 N 
ATOM     46  H   UNL     1       4.261   6.478  -2.288  1.00  0.00     0.159 HD
ATOM     47  H   UNL     1       2.993   5.688  -1.448  1.00  0.00     0.159 HD
ATOM     48  H   UNL     1       6.476   6.748   0.277  1.00  0.00     0.159 HD
ATOM     49  H   UNL     1       5.929   7.461  -1.206  1.00  0.00     0.159 HD
ENDBRANCH  41  42
ENDBRANCH  40  41
ENDBRANCH  39  40
ENDBRANCH  38  39
ENDBRANCH  36  38
ENDBRANCH   5  34
BRANCH   8  50
ATOM     50  O   UNL     1       7.702   5.562   3.464  1.00  0.00    -0.245 OA
BRANCH  50  51
ATOM     51  S   UNL     1       8.185   5.796   1.928  1.00  0.00     0.397 S 
ATOM     52  O   UNL     1       7.918   7.174   1.582  1.00  0.00    -0.169 OA
ATOM     53  O   UNL     1       7.723   4.702   1.101  1.00  0.00    -0.169 OA
BRANCH  51  54
ATOM     54  O   UNL     1       9.784   5.679   2.058  1.00  0.00    -0.264 OA
ATOM     55  H   UNL     1      10.075   6.313   2.745  1.00  0.00     0.236 HD
ENDBRANCH  51  54
ENDBRANCH  50  51
ENDBRANCH   8  50
TORSDOF 19
ENDMDL
MODEL 41
REMARK VINA RESULT:    -6.482     15.560     20.255
REMARK INTER + INTRA:         -14.745
REMARK INTER:                 -11.788
REMARK INTRA:                  -2.957
REMARK UNBOUND:                -1.631
REMARK SMILES CC[C@@H](C)[C@@H](NC(=O)[C@@H](O)Cc1ccc(O)c(Cl)c1)C(=O)N1[C@H](C(=O)NCCCCN=C(N)N)C[C@H]2CC[C@H](OS(=O)(=O)O)C[C@@H]21
REMARK SMILES IDX 22 1 36 2 46 3 35 4 23 5 45 6 37 7 39 8 38 9 20 10 21 11
REMARK SMILES IDX 5 12 6 13 7 14 8 15 9 17 11 18 12 19 17 20 19 21 15 22 14 23
REMARK SMILES IDX 13 24 18 25 16 26 10 28 3 30 4 31 2 32 1 33 24 34 25 35
REMARK SMILES IDX 26 36 27 38 28 39 29 40 30 41 31 42 32 43 33 44 34 45 40 50
REMARK SMILES IDX 41 51 42 52 43 53 44 54
REMARK H PARENT 6 16 16 27 10 29 26 37 33 46 33 47 34 48 34 49 44 55
ROOT
ATOM      1  N   UNL     1      -2.106  -6.952   9.830  1.00  0.00    -0.326 N 
ATOM      2  C   UNL     1      -1.043  -4.934  10.415  1.00  0.00     0.014 C 
ATOM      3  C   UNL     1      -1.970  -6.026  10.958  1.00  0.00     0.091 C 
ATOM      4  C   UNL     1      -1.449  -4.849   8.951  1.00  0.00     0.041 C 
ATOM      5  C   UNL     1      -1.531  -6.347   8.604  1.00  0.00     0.175 C 
ATOM      6  C   UNL     1      -1.379  -6.555  12.263  1.00  0.00     0.059 C 
ATOM      7  C   UNL     1      -1.108  -3.689  11.277  1.00  0.00     0.008 C 
ATOM      8  C   UNL     1      -0.597  -5.494  13.067  1.00  0.00     0.143 C 
ATOM      9  C   UNL     1      -1.094  -4.064  12.775  1.00  0.00     0.034 C 
ENDROOT
BRANCH   1  10
ATOM     10  C   UNL     1      -2.841  -8.121   9.725  1.00  0.00     0.246 C 
ATOM     11  O   UNL     1      -2.360  -9.080   9.113  1.00  0.00    -0.272 OA
BRANCH  10  12
ATOM     12  C   UNL     1      -4.233  -8.216  10.414  1.00  0.00     0.174 C 
BRANCH  12  13
ATOM     13  N   UNL     1      -4.094  -8.818  11.739  1.00  0.00    -0.342 N 
ATOM     14  C   UNL     1      -4.896  -8.539  12.823  1.00  0.00     0.249 C 
ATOM     15  O   UNL     1      -5.845  -7.765  12.787  1.00  0.00    -0.272 OA
ATOM     16  H   UNL     1      -3.261  -9.358  11.962  1.00  0.00     0.164 HD
BRANCH  14  17
ATOM     17  C   UNL     1      -4.485  -9.324  14.087  1.00  0.00     0.207 C 
BRANCH  17  18
ATOM     18  C   UNL     1      -2.974  -9.218  14.314  1.00  0.00     0.077 C 
BRANCH  18  19
ATOM     19  C   UNL     1      -2.641  -8.963  15.767  1.00  0.00    -0.043 A 
ATOM     20  C   UNL     1      -2.119  -9.801  17.983  1.00  0.00     0.083 A 
ATOM     21  C   UNL     1      -2.377 -10.037  16.632  1.00  0.00     0.028 A 
ATOM     22  C   UNL     1      -2.124  -8.496  18.478  1.00  0.00     0.134 A 
ATOM     23  C   UNL     1      -2.383  -7.424  17.632  1.00  0.00     0.048 A 
ATOM     24  C   UNL     1      -2.644  -7.657  16.280  1.00  0.00     0.008 A 
ATOM     25  Cl  UNL     1      -1.797 -11.133  19.031  1.00  0.00    -0.080 Cl
BRANCH  22  26
ATOM     26  O   UNL     1      -1.886  -8.217  19.796  1.00  0.00    -0.506 OA
ATOM     27  H   UNL     1      -2.413  -8.852  20.316  1.00  0.00     0.293 HD
ENDBRANCH  22  26
ENDBRANCH  18  19
ENDBRANCH  17  18
BRANCH  17  28
ATOM     28  O   UNL     1      -4.855 -10.708  13.980  1.00  0.00    -0.383 OA
ATOM     29  H   UNL     1      -4.340 -11.182  14.671  1.00  0.00     0.211 HD
ENDBRANCH  17  28
ENDBRANCH  14  17
ENDBRANCH  12  13
BRANCH  12  30
ATOM     30  C   UNL     1      -5.287  -8.946   9.539  1.00  0.00     0.018 C 
ATOM     31  C   UNL     1      -6.531  -8.067   9.333  1.00  0.00     0.010 C 
BRANCH  30  32
ATOM     32  C   UNL     1      -5.700 -10.332  10.091  1.00  0.00     0.002 C 
ATOM     33  C   UNL     1      -4.995 -11.523   9.456  1.00  0.00     0.004 C 
ENDBRANCH  30  32
ENDBRANCH  12  30
ENDBRANCH  10  12
ENDBRANCH   1  10
BRANCH   5  34
ATOM     34  C   UNL     1      -0.130  -6.942   8.302  1.00  0.00     0.242 C 
ATOM     35  O   UNL     1       0.546  -7.503   9.163  1.00  0.00    -0.273 OA
ATOM     36  N   UNL     1       0.324  -6.748   7.016  1.00  0.00    -0.354 N 
ATOM     37  H   UNL     1      -0.229  -6.171   6.381  1.00  0.00     0.163 HD
BRANCH  36  38
ATOM     38  C   UNL     1       1.502  -7.416   6.503  1.00  0.00     0.116 C 
BRANCH  38  39
ATOM     39  C   UNL     1       2.667  -6.432   6.433  1.00  0.00     0.023 C 
BRANCH  39  40
ATOM     40  C   UNL     1       3.728  -6.708   7.493  1.00  0.00     0.026 C 
BRANCH  40  41
ATOM     41  C   UNL     1       4.087  -5.428   8.248  1.00  0.00     0.146 C 
BRANCH  41  42
ATOM     42  N   UNL     1       2.870  -4.761   8.692  1.00  0.00    -0.254 NA
ATOM     43  C   UNL     1       2.669  -3.536   8.379  1.00  0.00     0.185 C 
ATOM     44  N   UNL     1       3.431  -2.690   7.661  1.00  0.00    -0.370 N 
ATOM     45  N   UNL     1       1.543  -2.938   8.801  1.00  0.00    -0.370 N 
ATOM     46  H   UNL     1       3.271  -1.698   7.700  1.00  0.00     0.159 HD
ATOM     47  H   UNL     1       4.313  -2.983   7.254  1.00  0.00     0.159 HD
ATOM     48  H   UNL     1       0.908  -3.509   9.342  1.00  0.00     0.159 HD
ATOM     49  H   UNL     1       1.204  -2.078   8.409  1.00  0.00     0.159 HD
ENDBRANCH  41  42
ENDBRANCH  40  41
ENDBRANCH  39  40
ENDBRANCH  38  39
ENDBRANCH  36  38
ENDBRANCH   5  34
BRANCH   8  50
ATOM     50  O   UNL     1       0.793  -5.565  12.751  1.00  0.00    -0.245 OA
BRANCH  50  51
ATOM     51  S   UNL     1       1.822  -6.259  13.802  1.00  0.00     0.397 S 
ATOM     52  O   UNL     1       3.167  -5.893  13.418  1.00  0.00    -0.169 OA
ATOM     53  O   UNL     1       1.441  -7.640  14.015  1.00  0.00    -0.169 OA
BRANCH  51  54
ATOM     54  O   UNL     1       1.517  -5.446  15.156  1.00  0.00    -0.264 OA
ATOM     55  H   UNL     1       1.201  -6.088  15.824  1.00  0.00     0.236 HD
ENDBRANCH  51  54
ENDBRANCH  50  51
ENDBRANCH   8  50
TORSDOF 19
ENDMDL
MODEL 42
REMARK VINA RESULT:    -6.479     12.461     15.532
REMARK INTER + INTRA:         -14.739
REMARK INTER:                 -10.065
REMARK INTRA:                  -4.673
REMARK UNBOUND:                -1.631
REMARK SMILES CC[C@@H](C)[C@@H](NC(=O)[C@@H](O)Cc1ccc(O)c(Cl)c1)C(=O)N1[C@H](C(=O)NCCCCN=C(N)N)C[C@H]2CC[C@H](OS(=O)(=O)O)C[C@@H]21
REMARK SMILES IDX 22 1 36 2 46 3 35 4 23 5 45 6 37 7 39 8 38 9 20 10 21 11
REMARK SMILES IDX 5 12 6 13 7 14 8 15 9 17 11 18 12 19 17 20 19 21 15 22 14 23
REMARK SMILES IDX 13 24 18 25 16 26 10 28 3 30 4 31 2 32 1 33 24 34 25 35
REMARK SMILES IDX 26 36 27 38 28 39 29 40 30 41 31 42 32 43 33 44 34 45 40 50
REMARK SMILES IDX 41 51 42 52 43 53 44 54
REMARK H PARENT 6 16 16 27 10 29 26 37 33 46 33 47 34 48 34 49 44 55
ROOT
ATOM      1  N   UNL     1       2.677  -4.793   7.524  1.00  0.00    -0.326 N 
ATOM      2  C   UNL     1       1.439  -6.795   7.571  1.00  0.00     0.014 C 
ATOM      3  C   UNL     1       2.772  -6.175   8.001  1.00  0.00     0.091 C 
ATOM      4  C   UNL     1       1.154  -6.093   6.252  1.00  0.00     0.041 C 
ATOM      5  C   UNL     1       1.498  -4.642   6.636  1.00  0.00     0.175 C 
ATOM      6  C   UNL     1       2.954  -6.414   9.498  1.00  0.00     0.059 C 
ATOM      7  C   UNL     1       1.508  -8.309   7.607  1.00  0.00     0.008 C 
ATOM      8  C   UNL     1       2.319  -7.729  10.000  1.00  0.00     0.143 C 
ATOM      9  C   UNL     1       2.226  -8.790   8.885  1.00  0.00     0.034 C 
ENDROOT
BRANCH   1  10
ATOM     10  C   UNL     1       3.594  -3.759   7.608  1.00  0.00     0.246 C 
ATOM     11  O   UNL     1       3.676  -3.112   8.658  1.00  0.00    -0.272 OA
BRANCH  10  12
ATOM     12  C   UNL     1       4.530  -3.464   6.401  1.00  0.00     0.174 C 
BRANCH  12  13
ATOM     13  N   UNL     1       5.214  -4.689   5.988  1.00  0.00    -0.342 N 
ATOM     14  C   UNL     1       4.915  -5.419   4.860  1.00  0.00     0.249 C 
ATOM     15  O   UNL     1       4.050  -5.103   4.052  1.00  0.00    -0.272 OA
ATOM     16  H   UNL     1       5.844  -5.156   6.635  1.00  0.00     0.164 HD
BRANCH  14  17
ATOM     17  C   UNL     1       5.804  -6.672   4.709  1.00  0.00     0.207 C 
BRANCH  17  18
ATOM     18  C   UNL     1       5.728  -7.538   5.971  1.00  0.00     0.077 C 
BRANCH  18  19
ATOM     19  C   UNL     1       4.798  -8.716   5.789  1.00  0.00    -0.043 A 
ATOM     20  C   UNL     1       4.104 -10.960   6.395  1.00  0.00     0.083 A 
ATOM     21  C   UNL     1       4.932  -9.855   6.598  1.00  0.00     0.028 A 
ATOM     22  C   UNL     1       3.141 -10.934   5.386  1.00  0.00     0.134 A 
ATOM     23  C   UNL     1       2.997  -9.812   4.578  1.00  0.00     0.048 A 
ATOM     24  C   UNL     1       3.825  -8.706   4.778  1.00  0.00     0.008 A 
ATOM     25  Cl  UNL     1       4.285 -12.351   7.398  1.00  0.00    -0.080 Cl
BRANCH  22  26
ATOM     26  O   UNL     1       2.313 -11.997   5.142  1.00  0.00    -0.506 OA
ATOM     27  H   UNL     1       2.789 -12.588   4.530  1.00  0.00     0.293 HD
ENDBRANCH  22  26
ENDBRANCH  18  19
ENDBRANCH  17  18
BRANCH  17  28
ATOM     28  O   UNL     1       7.172  -6.310   4.461  1.00  0.00    -0.383 OA
ATOM     29  H   UNL     1       7.301  -6.386   3.488  1.00  0.00     0.211 HD
ENDBRANCH  17  28
ENDBRANCH  14  17
ENDBRANCH  12  13
BRANCH  12  30
ATOM     30  C   UNL     1       5.518  -2.299   6.678  1.00  0.00     0.018 C 
ATOM     31  C   UNL     1       5.566  -1.328   5.488  1.00  0.00     0.010 C 
BRANCH  30  32
ATOM     32  C   UNL     1       6.948  -2.769   7.039  1.00  0.00     0.002 C 
ATOM     33  C   UNL     1       7.250  -2.849   8.530  1.00  0.00     0.004 C 
ENDBRANCH  30  32
ENDBRANCH  12  30
ENDBRANCH  10  12
ENDBRANCH   1  10
BRANCH   5  34
ATOM     34  C   UNL     1       0.326  -3.956   7.388  1.00  0.00     0.242 C 
ATOM     35  O   UNL     1      -0.780  -3.793   6.874  1.00  0.00    -0.273 OA
ATOM     36  N   UNL     1       0.630  -3.495   8.649  1.00  0.00    -0.354 N 
ATOM     37  H   UNL     1       1.597  -3.551   8.973  1.00  0.00     0.163 HD
BRANCH  36  38
ATOM     38  C   UNL     1      -0.387  -3.028   9.568  1.00  0.00     0.116 C 
BRANCH  38  39
ATOM     39  C   UNL     1      -0.644  -4.086  10.638  1.00  0.00     0.023 C 
BRANCH  39  40
ATOM     40  C   UNL     1      -1.532  -5.219  10.137  1.00  0.00     0.026 C 
BRANCH  40  41
ATOM     41  C   UNL     1      -2.794  -5.337  10.991  1.00  0.00     0.146 C 
BRANCH  41  42
ATOM     42  N   UNL     1      -2.430  -5.648  12.367  1.00  0.00    -0.254 NA
ATOM     43  C   UNL     1      -3.295  -5.504  13.299  1.00  0.00     0.185 C 
ATOM     44  N   UNL     1      -4.574  -5.088  13.237  1.00  0.00    -0.370 N 
ATOM     45  N   UNL     1      -2.938  -5.791  14.562  1.00  0.00    -0.370 N 
ATOM     46  H   UNL     1      -5.057  -4.790  14.066  1.00  0.00     0.159 HD
ATOM     47  H   UNL     1      -5.011  -4.841  12.354  1.00  0.00     0.159 HD
ATOM     48  H   UNL     1      -1.992  -6.120  14.696  1.00  0.00     0.159 HD
ATOM     49  H   UNL     1      -3.608  -5.932  15.298  1.00  0.00     0.159 HD
ENDBRANCH  41  42
ENDBRANCH  40  41
ENDBRANCH  39  40
ENDBRANCH  38  39
ENDBRANCH  36  38
ENDBRANCH   5  34
BRANCH   8  50
ATOM     50  O   UNL     1       1.004  -7.479  10.498  1.00  0.00    -0.245 OA
BRANCH  50  51
ATOM     51  S   UNL     1       0.636  -7.880  12.031  1.00  0.00     0.397 S 
ATOM     52  O   UNL     1       0.722  -6.684  12.838  1.00  0.00    -0.169 OA
ATOM     53  O   UNL     1       1.334  -9.095  12.396  1.00  0.00    -0.169 OA
BRANCH  51  54
ATOM     54  O   UNL     1      -0.931  -8.222  11.921  1.00  0.00    -0.264 OA
ATOM     55  H   UNL     1      -1.130  -8.411  10.982  1.00  0.00     0.236 HD
ENDBRANCH  51  54
ENDBRANCH  50  51
ENDBRANCH   8  50
TORSDOF 19
ENDMDL
MODEL 43
REMARK VINA RESULT:    -6.444     12.901     16.083
REMARK INTER + INTRA:         -14.667
REMARK INTER:                 -10.357
REMARK INTRA:                  -4.310
REMARK UNBOUND:                -1.631
REMARK SMILES CC[C@@H](C)[C@@H](NC(=O)[C@@H](O)Cc1ccc(O)c(Cl)c1)C(=O)N1[C@H](C(=O)NCCCCN=C(N)N)C[C@H]2CC[C@H](OS(=O)(=O)O)C[C@@H]21
REMARK SMILES IDX 22 1 36 2 46 3 35 4 23 5 45 6 37 7 39 8 38 9 20 10 21 11
REMARK SMILES IDX 5 12 6 13 7 14 8 15 9 17 11 18 12 19 17 20 19 21 15 22 14 23
REMARK SMILES IDX 13 24 18 25 16 26 10 28 3 30 4 31 2 32 1 33 24 34 25 35
REMARK SMILES IDX 26 36 27 38 28 39 29 40 30 41 31 42 32 43 33 44 34 45 40 50
REMARK SMILES IDX 41 51 42 52 43 53 44 54
REMARK H PARENT 6 16 16 27 10 29 26 37 33 46 33 47 34 48 34 49 44 55
ROOT
ATOM      1  N   UNL     1      -0.065  -4.638  10.733  1.00  0.00    -0.326 N 
ATOM      2  C   UNL     1      -0.781  -6.019  12.500  1.00  0.00     0.014 C 
ATOM      3  C   UNL     1      -1.156  -4.766  11.703  1.00  0.00     0.091 C 
ATOM      4  C   UNL     1       0.738  -5.948  12.540  1.00  0.00     0.041 C 
ATOM      5  C   UNL     1       1.032  -5.576  11.075  1.00  0.00     0.175 C 
ATOM      6  C   UNL     1      -2.579  -4.938  11.175  1.00  0.00     0.059 C 
ATOM      7  C   UNL     1      -1.557  -6.088  13.801  1.00  0.00     0.008 C 
ATOM      8  C   UNL     1      -3.488  -5.776  12.100  1.00  0.00     0.143 C 
ATOM      9  C   UNL     1      -3.035  -5.710  13.573  1.00  0.00     0.034 C 
ENDROOT
BRANCH   1  10
ATOM     10  C   UNL     1       0.147  -3.678   9.758  1.00  0.00     0.246 C 
ATOM     11  O   UNL     1      -0.256  -2.526   9.951  1.00  0.00    -0.272 OA
BRANCH  10  12
ATOM     12  C   UNL     1       0.924  -4.058   8.464  1.00  0.00     0.174 C 
BRANCH  12  13
ATOM     13  N   UNL     1       2.141  -3.253   8.359  1.00  0.00    -0.342 N 
ATOM     14  C   UNL     1       3.419  -3.724   8.560  1.00  0.00     0.249 C 
ATOM     15  O   UNL     1       3.683  -4.890   8.826  1.00  0.00    -0.272 OA
ATOM     16  H   UNL     1       2.072  -2.241   8.300  1.00  0.00     0.164 HD
BRANCH  14  17
ATOM     17  C   UNL     1       4.491  -2.626   8.394  1.00  0.00     0.207 C 
BRANCH  17  18
ATOM     18  C   UNL     1       4.721  -2.322   6.910  1.00  0.00     0.077 C 
BRANCH  18  19
ATOM     19  C   UNL     1       4.994  -3.580   6.115  1.00  0.00    -0.043 A 
ATOM     20  C   UNL     1       6.472  -5.404   5.508  1.00  0.00     0.083 A 
ATOM     21  C   UNL     1       6.203  -4.273   6.279  1.00  0.00     0.028 A 
ATOM     22  C   UNL     1       5.539  -5.849   4.571  1.00  0.00     0.134 A 
ATOM     23  C   UNL     1       4.337  -5.172   4.398  1.00  0.00     0.048 A 
ATOM     24  C   UNL     1       4.066  -4.038   5.167  1.00  0.00     0.008 A 
ATOM     25  Cl  UNL     1       7.964  -6.243   5.723  1.00  0.00    -0.080 Cl
BRANCH  22  26
ATOM     26  O   UNL     1       5.763  -6.947   3.785  1.00  0.00    -0.506 OA
ATOM     27  H   UNL     1       4.934  -7.119   3.301  1.00  0.00     0.293 HD
ENDBRANCH  22  26
ENDBRANCH  18  19
ENDBRANCH  17  18
BRANCH  17  28
ATOM     28  O   UNL     1       5.734  -3.020   8.998  1.00  0.00    -0.383 OA
ATOM     29  H   UNL     1       5.638  -2.836   9.960  1.00  0.00     0.211 HD
ENDBRANCH  17  28
ENDBRANCH  14  17
ENDBRANCH  12  13
BRANCH  12  30
ATOM     30  C   UNL     1       0.044  -3.970   7.188  1.00  0.00     0.018 C 
ATOM     31  C   UNL     1      -1.400  -4.400   7.491  1.00  0.00     0.010 C 
BRANCH  30  32
ATOM     32  C   UNL     1       0.601  -4.780   5.992  1.00  0.00     0.002 C 
ATOM     33  C   UNL     1       1.192  -6.139   6.345  1.00  0.00     0.004 C 
ENDBRANCH  30  32
ENDBRANCH  12  30
ENDBRANCH  10  12
ENDBRANCH   1  10
BRANCH   5  34
ATOM     34  C   UNL     1       0.999  -6.823  10.151  1.00  0.00     0.242 C 
ATOM     35  O   UNL     1      -0.011  -7.155   9.531  1.00  0.00    -0.273 OA
ATOM     36  N   UNL     1       2.163  -7.558  10.118  1.00  0.00    -0.354 N 
ATOM     37  H   UNL     1       2.925  -7.301  10.746  1.00  0.00     0.163 HD
BRANCH  36  38
ATOM     38  C   UNL     1       2.380  -8.618   9.155  1.00  0.00     0.116 C 
BRANCH  38  39
ATOM     39  C   UNL     1       2.597  -9.943   9.882  1.00  0.00     0.023 C 
BRANCH  39  40
ATOM     40  C   UNL     1       1.581 -10.168  10.997  1.00  0.00     0.026 C 
BRANCH  40  41
ATOM     41  C   UNL     1       0.502 -11.157  10.556  1.00  0.00     0.146 C 
BRANCH  41  42
ATOM     42  N   UNL     1      -0.457 -10.484   9.689  1.00  0.00    -0.254 NA
ATOM     43  C   UNL     1      -1.499  -9.943  10.197  1.00  0.00     0.185 C 
ATOM     44  N   UNL     1      -1.902  -9.876  11.479  1.00  0.00    -0.370 N 
ATOM     45  N   UNL     1      -2.373  -9.332   9.380  1.00  0.00    -0.370 N 
ATOM     46  H   UNL     1      -2.852  -9.639  11.707  1.00  0.00     0.159 HD
ATOM     47  H   UNL     1      -1.351 -10.276  12.232  1.00  0.00     0.159 HD
ATOM     48  H   UNL     1      -2.140  -9.329   8.396  1.00  0.00     0.159 HD
ATOM     49  H   UNL     1      -3.073  -8.693   9.712  1.00  0.00     0.159 HD
ENDBRANCH  41  42
ENDBRANCH  40  41
ENDBRANCH  39  40
ENDBRANCH  38  39
ENDBRANCH  36  38
ENDBRANCH   5  34
BRANCH   8  50
ATOM     50  O   UNL     1      -3.483  -7.143  11.685  1.00  0.00    -0.245 OA
BRANCH  50  51
ATOM     51  S   UNL     1      -4.744  -8.100  12.058  1.00  0.00     0.397 S 
ATOM     52  O   UNL     1      -5.932  -7.278  12.099  1.00  0.00    -0.169 OA
ATOM     53  O   UNL     1      -4.384  -8.971  13.158  1.00  0.00    -0.169 OA
BRANCH  51  54
ATOM     54  O   UNL     1      -4.882  -9.003  10.735  1.00  0.00    -0.264 OA
ATOM     55  H   UNL     1      -5.836  -9.155  10.575  1.00  0.00     0.236 HD
ENDBRANCH  51  54
ENDBRANCH  50  51
ENDBRANCH   8  50
TORSDOF 19
ENDMDL
MODEL 44
REMARK VINA RESULT:    -6.425      5.402     10.122
REMARK INTER + INTRA:         -14.628
REMARK INTER:                 -12.093
REMARK INTRA:                  -2.535
REMARK UNBOUND:                -1.631
REMARK SMILES CC[C@@H](C)[C@@H](NC(=O)[C@@H](O)Cc1ccc(O)c(Cl)c1)C(=O)N1[C@H](C(=O)NCCCCN=C(N)N)C[C@H]2CC[C@H](OS(=O)(=O)O)C[C@@H]21
REMARK SMILES IDX 22 1 36 2 46 3 35 4 23 5 45 6 37 7 39 8 38 9 20 10 21 11
REMARK SMILES IDX 5 12 6 13 7 14 8 15 9 17 11 18 12 19 17 20 19 21 15 22 14 23
REMARK SMILES IDX 13 24 18 25 16 26 10 28 3 30 4 31 2 32 1 33 24 34 25 35
REMARK SMILES IDX 26 36 27 38 28 39 29 40 30 41 31 42 32 43 33 44 34 45 40 50
REMARK SMILES IDX 41 51 42 52 43 53 44 54
REMARK H PARENT 6 16 16 27 10 29 26 37 33 46 33 47 34 48 34 49 44 55
ROOT
ATOM      1  N   UNL     1       5.499   3.137   9.871  1.00  0.00    -0.326 N 
ATOM      2  C   UNL     1       6.339   5.336   9.907  1.00  0.00     0.014 C 
ATOM      3  C   UNL     1       5.849   4.234   8.964  1.00  0.00     0.091 C 
ATOM      4  C   UNL     1       7.025   4.549  11.013  1.00  0.00     0.041 C 
ATOM      5  C   UNL     1       5.986   3.436  11.240  1.00  0.00     0.175 C 
ATOM      6  C   UNL     1       4.752   4.814   8.072  1.00  0.00     0.059 C 
ATOM      7  C   UNL     1       7.122   6.390   9.149  1.00  0.00     0.008 C 
ATOM      8  C   UNL     1       4.936   6.314   7.756  1.00  0.00     0.143 C 
ATOM      9  C   UNL     1       6.417   6.742   7.822  1.00  0.00     0.034 C 
ENDROOT
BRANCH   1  10
ATOM     10  C   UNL     1       5.016   1.871   9.588  1.00  0.00     0.246 C 
ATOM     11  O   UNL     1       4.062   1.432  10.239  1.00  0.00    -0.272 OA
BRANCH  10  12
ATOM     12  C   UNL     1       5.654   1.047   8.432  1.00  0.00     0.174 C 
BRANCH  12  13
ATOM     13  N   UNL     1       5.052   1.429   7.155  1.00  0.00    -0.342 N 
ATOM     14  C   UNL     1       5.719   2.045   6.120  1.00  0.00     0.249 C 
ATOM     15  O   UNL     1       6.912   2.319   6.145  1.00  0.00    -0.272 OA
ATOM     16  H   UNL     1       4.041   1.408   7.049  1.00  0.00     0.164 HD
BRANCH  14  17
ATOM     17  C   UNL     1       4.803   2.336   4.912  1.00  0.00     0.207 C 
BRANCH  17  18
ATOM     18  C   UNL     1       4.467   3.829   4.842  1.00  0.00     0.077 C 
BRANCH  18  19
ATOM     19  C   UNL     1       5.357   4.560   3.862  1.00  0.00    -0.043 A 
ATOM     20  C   UNL     1       5.910   5.181   1.583  1.00  0.00     0.083 A 
ATOM     21  C   UNL     1       5.060   4.547   2.490  1.00  0.00     0.028 A 
ATOM     22  C   UNL     1       7.059   5.829   2.039  1.00  0.00     0.134 A 
ATOM     23  C   UNL     1       7.364   5.850   3.395  1.00  0.00     0.048 A 
ATOM     24  C   UNL     1       6.516   5.215   4.305  1.00  0.00     0.008 A 
ATOM     25  Cl  UNL     1       5.529   5.154  -0.098  1.00  0.00    -0.080 Cl
BRANCH  22  26
ATOM     26  O   UNL     1       7.928   6.456   1.187  1.00  0.00    -0.506 OA
ATOM     27  H   UNL     1       7.563   6.352   0.288  1.00  0.00     0.293 HD
ENDBRANCH  22  26
ENDBRANCH  18  19
ENDBRANCH  17  18
BRANCH  17  28
ATOM     28  O   UNL     1       3.586   1.576   4.990  1.00  0.00    -0.383 OA
ATOM     29  H   UNL     1       3.768   0.836   5.612  1.00  0.00     0.211 HD
ENDBRANCH  17  28
ENDBRANCH  14  17
ENDBRANCH  12  13
BRANCH  12  30
ATOM     30  C   UNL     1       5.592  -0.484   8.682  1.00  0.00     0.018 C 
ATOM     31  C   UNL     1       6.960  -1.020   9.132  1.00  0.00     0.010 C 
BRANCH  30  32
ATOM     32  C   UNL     1       5.078  -1.292   7.465  1.00  0.00     0.002 C 
ATOM     33  C   UNL     1       4.365  -2.595   7.802  1.00  0.00     0.004 C 
ENDBRANCH  30  32
ENDBRANCH  12  30
ENDBRANCH  10  12
ENDBRANCH   1  10
BRANCH   5  34
ATOM     34  C   UNL     1       4.821   3.917  12.146  1.00  0.00     0.242 C 
ATOM     35  O   UNL     1       3.738   4.280  11.687  1.00  0.00    -0.273 OA
ATOM     36  N   UNL     1       5.106   3.960  13.492  1.00  0.00    -0.354 N 
ATOM     37  H   UNL     1       6.059   3.761  13.800  1.00  0.00     0.163 HD
BRANCH  36  38
ATOM     38  C   UNL     1       4.081   4.174  14.493  1.00  0.00     0.116 C 
BRANCH  38  39
ATOM     39  C   UNL     1       4.511   5.287  15.446  1.00  0.00     0.023 C 
BRANCH  39  40
ATOM     40  C   UNL     1       3.565   6.482  15.412  1.00  0.00     0.026 C 
BRANCH  40  41
ATOM     41  C   UNL     1       4.348   7.795  15.440  1.00  0.00     0.146 C 
BRANCH  41  42
ATOM     42  N   UNL     1       5.636   7.586  16.089  1.00  0.00    -0.254 NA
ATOM     43  C   UNL     1       5.796   7.943  17.308  1.00  0.00     0.185 C 
ATOM     44  N   UNL     1       4.929   8.516  18.163  1.00  0.00    -0.370 N 
ATOM     45  N   UNL     1       6.992   7.746  17.886  1.00  0.00    -0.370 N 
ATOM     46  H   UNL     1       5.257   8.963  19.002  1.00  0.00     0.159 HD
ATOM     47  H   UNL     1       3.973   8.724  17.893  1.00  0.00     0.159 HD
ATOM     48  H   UNL     1       7.701   7.309  17.313  1.00  0.00     0.159 HD
ATOM     49  H   UNL     1       7.126   7.775  18.881  1.00  0.00     0.159 HD
ENDBRANCH  41  42
ENDBRANCH  40  41
ENDBRANCH  39  40
ENDBRANCH  38  39
ENDBRANCH  36  38
ENDBRANCH   5  34
BRANCH   8  50
ATOM     50  O   UNL     1       4.194   7.106   8.684  1.00  0.00    -0.245 OA
BRANCH  50  51
ATOM     51  S   UNL     1       2.782   7.768   8.224  1.00  0.00     0.397 S 
ATOM     52  O   UNL     1       1.712   6.956   8.759  1.00  0.00    -0.169 OA
ATOM     53  O   UNL     1       2.842   8.116   6.820  1.00  0.00    -0.169 OA
BRANCH  51  54
ATOM     54  O   UNL     1       2.760   9.134   9.072  1.00  0.00    -0.264 OA
ATOM     55  H   UNL     1       1.824   9.375   9.227  1.00  0.00     0.236 HD
ENDBRANCH  51  54
ENDBRANCH  50  51
ENDBRANCH   8  50
TORSDOF 19
ENDMDL
MODEL 45
REMARK VINA RESULT:    -6.410     11.152     14.873
REMARK INTER + INTRA:         -14.599
REMARK INTER:                 -10.297
REMARK INTRA:                  -4.302
REMARK UNBOUND:                -1.631
REMARK SMILES CC[C@@H](C)[C@@H](NC(=O)[C@@H](O)Cc1ccc(O)c(Cl)c1)C(=O)N1[C@H](C(=O)NCCCCN=C(N)N)C[C@H]2CC[C@H](OS(=O)(=O)O)C[C@@H]21
REMARK SMILES IDX 22 1 36 2 46 3 35 4 23 5 45 6 37 7 39 8 38 9 20 10 21 11
REMARK SMILES IDX 5 12 6 13 7 14 8 15 9 17 11 18 12 19 17 20 19 21 15 22 14 23
REMARK SMILES IDX 13 24 18 25 16 26 10 28 3 30 4 31 2 32 1 33 24 34 25 35
REMARK SMILES IDX 26 36 27 38 28 39 29 40 30 41 31 42 32 43 33 44 34 45 40 50
REMARK SMILES IDX 41 51 42 52 43 53 44 54
REMARK H PARENT 6 16 16 27 10 29 26 37 33 46 33 47 34 48 34 49 44 55
ROOT
ATOM      1  N   UNL     1       2.520  -6.143   8.185  1.00  0.00    -0.326 N 
ATOM      2  C   UNL     1       1.232  -4.292   8.861  1.00  0.00     0.014 C 
ATOM      3  C   UNL     1       1.128  -5.762   8.445  1.00  0.00     0.091 C 
ATOM      4  C   UNL     1       2.380  -3.782   8.004  1.00  0.00     0.041 C 
ATOM      5  C   UNL     1       3.383  -4.937   8.178  1.00  0.00     0.175 C 
ATOM      6  C   UNL     1       0.361  -6.518   9.529  1.00  0.00     0.059 C 
ATOM      7  C   UNL     1      -0.119  -3.609   8.777  1.00  0.00     0.008 C 
ATOM      8  C   UNL     1      -0.705  -5.662  10.246  1.00  0.00     0.143 C 
ATOM      9  C   UNL     1      -1.225  -4.517   9.354  1.00  0.00     0.034 C 
ENDROOT
BRANCH   1  10
ATOM     10  C   UNL     1       3.044  -7.351   7.758  1.00  0.00     0.246 C 
ATOM     11  O   UNL     1       3.158  -8.277   8.568  1.00  0.00    -0.272 OA
BRANCH  10  12
ATOM     12  C   UNL     1       3.437  -7.532   6.263  1.00  0.00     0.174 C 
BRANCH  12  13
ATOM     13  N   UNL     1       4.577  -6.674   5.940  1.00  0.00    -0.342 N 
ATOM     14  C   UNL     1       5.887  -6.944   6.267  1.00  0.00     0.249 C 
ATOM     15  O   UNL     1       6.249  -7.959   6.849  1.00  0.00    -0.272 OA
ATOM     16  H   UNL     1       4.416  -5.729   5.600  1.00  0.00     0.164 HD
BRANCH  14  17
ATOM     17  C   UNL     1       6.857  -5.836   5.804  1.00  0.00     0.207 C 
BRANCH  17  18
ATOM     18  C   UNL     1       6.107  -4.769   5.001  1.00  0.00     0.077 C 
BRANCH  18  19
ATOM     19  C   UNL     1       5.900  -3.504   5.804  1.00  0.00    -0.043 A 
ATOM     20  C   UNL     1       6.197  -2.243   7.855  1.00  0.00     0.083 A 
ATOM     21  C   UNL     1       6.432  -3.392   7.098  1.00  0.00     0.028 A 
ATOM     22  C   UNL     1       5.431  -1.203   7.327  1.00  0.00     0.134 A 
ATOM     23  C   UNL     1       4.899  -1.301   6.047  1.00  0.00     0.048 A 
ATOM     24  C   UNL     1       5.130  -2.450   5.288  1.00  0.00     0.008 A 
ATOM     25  Cl  UNL     1       6.859  -2.124   9.443  1.00  0.00    -0.080 Cl
BRANCH  22  26
ATOM     26  O   UNL     1       5.166  -0.063   8.036  1.00  0.00    -0.506 OA
ATOM     27  H   UNL     1       4.356  -0.235   8.550  1.00  0.00     0.293 HD
ENDBRANCH  22  26
ENDBRANCH  18  19
ENDBRANCH  17  18
BRANCH  17  28
ATOM     28  O   UNL     1       7.916  -6.380   5.000  1.00  0.00    -0.383 OA
ATOM     29  H   UNL     1       7.485  -6.750   4.196  1.00  0.00     0.211 HD
ENDBRANCH  17  28
ENDBRANCH  14  17
ENDBRANCH  12  13
BRANCH  12  30
ATOM     30  C   UNL     1       2.241  -7.315   5.298  1.00  0.00     0.018 C 
ATOM     31  C   UNL     1       2.183  -8.429   4.241  1.00  0.00     0.010 C 
BRANCH  30  32
ATOM     32  C   UNL     1       2.241  -5.928   4.609  1.00  0.00     0.002 C 
ATOM     33  C   UNL     1       0.940  -5.144   4.724  1.00  0.00     0.004 C 
ENDBRANCH  30  32
ENDBRANCH  12  30
ENDBRANCH  10  12
ENDBRANCH   1  10
BRANCH   5  34
ATOM     34  C   UNL     1       4.170  -4.816   9.510  1.00  0.00     0.242 C 
ATOM     35  O   UNL     1       3.990  -3.888  10.299  1.00  0.00    -0.273 OA
ATOM     36  N   UNL     1       5.120  -5.790   9.720  1.00  0.00    -0.354 N 
ATOM     37  H   UNL     1       5.307  -6.463   8.975  1.00  0.00     0.163 HD
BRANCH  36  38
ATOM     38  C   UNL     1       5.790  -5.956  10.993  1.00  0.00     0.116 C 
BRANCH  38  39
ATOM     39  C   UNL     1       7.263  -5.578  10.857  1.00  0.00     0.023 C 
BRANCH  39  40
ATOM     40  C   UNL     1       7.809  -5.853   9.460  1.00  0.00     0.026 C 
BRANCH  40  41
ATOM     41  C   UNL     1       9.066  -6.720   9.530  1.00  0.00     0.146 C 
BRANCH  41  42
ATOM     42  N   UNL     1       8.744  -8.088   9.147  1.00  0.00    -0.254 NA
ATOM     43  C   UNL     1       9.434  -8.671   8.241  1.00  0.00     0.185 C 
ATOM     44  N   UNL     1      10.481  -8.220   7.526  1.00  0.00    -0.370 N 
ATOM     45  N   UNL     1       9.118  -9.931   7.899  1.00  0.00    -0.370 N 
ATOM     46  H   UNL     1      10.768  -8.690   6.685  1.00  0.00     0.159 HD
ATOM     47  H   UNL     1      10.861  -7.289   7.667  1.00  0.00     0.159 HD
ATOM     48  H   UNL     1       8.345 -10.350   8.397  1.00  0.00     0.159 HD
ATOM     49  H   UNL     1       9.741 -10.528   7.385  1.00  0.00     0.159 HD
ENDBRANCH  41  42
ENDBRANCH  40  41
ENDBRANCH  39  40
ENDBRANCH  38  39
ENDBRANCH  36  38
ENDBRANCH   5  34
BRANCH   8  50
ATOM     50  O   UNL     1      -0.160  -5.097  11.438  1.00  0.00    -0.245 OA
BRANCH  50  51
ATOM     51  S   UNL     1      -1.157  -4.639  12.639  1.00  0.00     0.397 S 
ATOM     52  O   UNL     1      -2.231  -5.603  12.719  1.00  0.00    -0.169 OA
ATOM     53  O   UNL     1      -1.417  -3.218  12.540  1.00  0.00    -0.169 OA
BRANCH  51  54
ATOM     54  O   UNL     1      -0.248  -4.886  13.942  1.00  0.00    -0.264 OA
ATOM     55  H   UNL     1      -0.813  -4.751  14.730  1.00  0.00     0.236 HD
ENDBRANCH  51  54
ENDBRANCH  50  51
ENDBRANCH   8  50
TORSDOF 19
ENDMDL
MODEL 46
REMARK VINA RESULT:    -6.406      6.211      9.992
REMARK INTER + INTRA:         -14.591
REMARK INTER:                 -11.546
REMARK INTRA:                  -3.046
REMARK UNBOUND:                -1.631
REMARK SMILES CC[C@@H](C)[C@@H](NC(=O)[C@@H](O)Cc1ccc(O)c(Cl)c1)C(=O)N1[C@H](C(=O)NCCCCN=C(N)N)C[C@H]2CC[C@H](OS(=O)(=O)O)C[C@@H]21
REMARK SMILES IDX 22 1 36 2 46 3 35 4 23 5 45 6 37 7 39 8 38 9 20 10 21 11
REMARK SMILES IDX 5 12 6 13 7 14 8 15 9 17 11 18 12 19 17 20 19 21 15 22 14 23
REMARK SMILES IDX 13 24 18 25 16 26 10 28 3 30 4 31 2 32 1 33 24 34 25 35
REMARK SMILES IDX 26 36 27 38 28 39 29 40 30 41 31 42 32 43 33 44 34 45 40 50
REMARK SMILES IDX 41 51 42 52 43 53 44 54
REMARK H PARENT 6 16 16 27 10 29 26 37 33 46 33 47 34 48 34 49 44 55
ROOT
ATOM      1  N   UNL     1       5.180   2.827   9.874  1.00  0.00    -0.326 N 
ATOM      2  C   UNL     1       4.709   0.952  11.217  1.00  0.00     0.014 C 
ATOM      3  C   UNL     1       5.745   1.527  10.246  1.00  0.00     0.091 C 
ATOM      4  C   UNL     1       3.396   1.471  10.651  1.00  0.00     0.041 C 
ATOM      5  C   UNL     1       3.783   2.933  10.361  1.00  0.00     0.175 C 
ATOM      6  C   UNL     1       7.112   1.499  10.927  1.00  0.00     0.059 C 
ATOM      7  C   UNL     1       4.903  -0.541  11.396  1.00  0.00     0.008 C 
ATOM      8  C   UNL     1       7.292   0.324  11.913  1.00  0.00     0.143 C 
ATOM      9  C   UNL     1       6.401  -0.880  11.547  1.00  0.00     0.034 C 
ENDROOT
BRANCH   1  10
ATOM     10  C   UNL     1       5.666   3.790   9.006  1.00  0.00     0.246 C 
ATOM     11  O   UNL     1       6.888   3.947   8.905  1.00  0.00    -0.272 OA
BRANCH  10  12
ATOM     12  C   UNL     1       4.670   4.623   8.148  1.00  0.00     0.174 C 
BRANCH  12  13
ATOM     13  N   UNL     1       4.355   3.905   6.913  1.00  0.00    -0.342 N 
ATOM     14  C   UNL     1       5.187   3.809   5.820  1.00  0.00     0.249 C 
ATOM     15  O   UNL     1       6.308   4.299   5.771  1.00  0.00    -0.272 OA
ATOM     16  H   UNL     1       3.405   3.582   6.746  1.00  0.00     0.164 HD
BRANCH  14  17
ATOM     17  C   UNL     1       4.561   2.999   4.665  1.00  0.00     0.207 C 
BRANCH  17  18
ATOM     18  C   UNL     1       3.456   3.808   3.980  1.00  0.00     0.077 C 
BRANCH  18  19
ATOM     19  C   UNL     1       3.887   4.310   2.620  1.00  0.00    -0.043 A 
ATOM     20  C   UNL     1       5.628   5.093   1.123  1.00  0.00     0.083 A 
ATOM     21  C   UNL     1       5.240   4.583   2.363  1.00  0.00     0.028 A 
ATOM     22  C   UNL     1       4.672   5.335   0.137  1.00  0.00     0.134 A 
ATOM     23  C   UNL     1       3.329   5.070   0.379  1.00  0.00     0.048 A 
ATOM     24  C   UNL     1       2.937   4.560   1.619  1.00  0.00     0.008 A 
ATOM     25  Cl  UNL     1       7.295   5.422   0.826  1.00  0.00    -0.080 Cl
BRANCH  22  26
ATOM     26  O   UNL     1       5.003   5.845  -1.089  1.00  0.00    -0.506 OA
ATOM     27  H   UNL     1       4.183   5.862  -1.617  1.00  0.00     0.293 HD
ENDBRANCH  22  26
ENDBRANCH  18  19
ENDBRANCH  17  18
BRANCH  17  28
ATOM     28  O   UNL     1       4.018   1.756   5.140  1.00  0.00    -0.383 OA
ATOM     29  H   UNL     1       3.052   1.907   5.252  1.00  0.00     0.211 HD
ENDBRANCH  17  28
ENDBRANCH  14  17
ENDBRANCH  12  13
BRANCH  12  30
ATOM     30  C   UNL     1       5.170   6.068   7.881  1.00  0.00     0.018 C 
ATOM     31  C   UNL     1       5.776   6.680   9.154  1.00  0.00     0.010 C 
BRANCH  30  32
ATOM     32  C   UNL     1       4.082   7.006   7.305  1.00  0.00     0.002 C 
ATOM     33  C   UNL     1       3.950   8.354   8.001  1.00  0.00     0.004 C 
ENDBRANCH  30  32
ENDBRANCH  12  30
ENDBRANCH  10  12
ENDBRANCH   1  10
BRANCH   5  34
ATOM     34  C   UNL     1       3.711   3.808  11.641  1.00  0.00     0.242 C 
ATOM     35  O   UNL     1       4.683   4.434  12.065  1.00  0.00    -0.273 OA
ATOM     36  N   UNL     1       2.500   3.790  12.296  1.00  0.00    -0.354 N 
ATOM     37  H   UNL     1       1.771   3.158  11.964  1.00  0.00     0.163 HD
BRANCH  36  38
ATOM     38  C   UNL     1       2.190   4.706  13.374  1.00  0.00     0.116 C 
BRANCH  38  39
ATOM     39  C   UNL     1       1.360   3.993  14.439  1.00  0.00     0.023 C 
BRANCH  39  40
ATOM     40  C   UNL     1       1.786   4.362  15.855  1.00  0.00     0.026 C 
BRANCH  40  41
ATOM     41  C   UNL     1       2.779   3.339  16.407  1.00  0.00     0.146 C 
BRANCH  41  42
ATOM     42  N   UNL     1       4.119   3.641  15.923  1.00  0.00    -0.254 NA
ATOM     43  C   UNL     1       4.718   2.809  15.156  1.00  0.00     0.185 C 
ATOM     44  N   UNL     1       4.305   1.620  14.680  1.00  0.00    -0.370 N 
ATOM     45  N   UNL     1       5.954   3.105  14.723  1.00  0.00    -0.370 N 
ATOM     46  H   UNL     1       4.965   0.966  14.293  1.00  0.00     0.159 HD
ATOM     47  H   UNL     1       3.386   1.248  14.898  1.00  0.00     0.159 HD
ATOM     48  H   UNL     1       6.337   3.989  15.029  1.00  0.00     0.159 HD
ATOM     49  H   UNL     1       6.387   2.634  13.948  1.00  0.00     0.159 HD
ENDBRANCH  41  42
ENDBRANCH  40  41
ENDBRANCH  39  40
ENDBRANCH  38  39
ENDBRANCH  36  38
ENDBRANCH   5  34
BRANCH   8  50
ATOM     50  O   UNL     1       6.966   0.742  13.239  1.00  0.00    -0.245 OA
BRANCH  50  51
ATOM     51  S   UNL     1       7.641  -0.017  14.508  1.00  0.00     0.397 S 
ATOM     52  O   UNL     1       7.994   0.983  15.491  1.00  0.00    -0.169 OA
ATOM     53  O   UNL     1       8.603  -0.992  14.037  1.00  0.00    -0.169 OA
BRANCH  51  54
ATOM     54  O   UNL     1       6.389  -0.815  15.126  1.00  0.00    -0.264 OA
ATOM     55  H   UNL     1       6.723  -1.373  15.859  1.00  0.00     0.236 HD
ENDBRANCH  51  54
ENDBRANCH  50  51
ENDBRANCH   8  50
TORSDOF 19
ENDMDL
MODEL 47
REMARK VINA RESULT:    -6.406      4.791      7.701
REMARK INTER + INTRA:         -14.591
REMARK INTER:                 -10.835
REMARK INTRA:                  -3.755
REMARK UNBOUND:                -1.631
REMARK SMILES CC[C@@H](C)[C@@H](NC(=O)[C@@H](O)Cc1ccc(O)c(Cl)c1)C(=O)N1[C@H](C(=O)NCCCCN=C(N)N)C[C@H]2CC[C@H](OS(=O)(=O)O)C[C@@H]21
REMARK SMILES IDX 22 1 36 2 46 3 35 4 23 5 45 6 37 7 39 8 38 9 20 10 21 11
REMARK SMILES IDX 5 12 6 13 7 14 8 15 9 17 11 18 12 19 17 20 19 21 15 22 14 23
REMARK SMILES IDX 13 24 18 25 16 26 10 28 3 30 4 31 2 32 1 33 24 34 25 35
REMARK SMILES IDX 26 36 27 38 28 39 29 40 30 41 31 42 32 43 33 44 34 45 40 50
REMARK SMILES IDX 41 51 42 52 43 53 44 54
REMARK H PARENT 6 16 16 27 10 29 26 37 33 46 33 47 34 48 34 49 44 55
ROOT
ATOM      1  N   UNL     1       8.065   4.075   8.595  1.00  0.00    -0.326 N 
ATOM      2  C   UNL     1       8.560   2.701  10.441  1.00  0.00     0.014 C 
ATOM      3  C   UNL     1       7.802   3.967  10.033  1.00  0.00     0.091 C 
ATOM      4  C   UNL     1       9.782   2.735   9.536  1.00  0.00     0.041 C 
ATOM      5  C   UNL     1       9.118   3.109   8.198  1.00  0.00     0.175 C 
ATOM      6  C   UNL     1       6.353   3.834  10.497  1.00  0.00     0.059 C 
ATOM      7  C   UNL     1       8.750   2.643  11.944  1.00  0.00     0.008 C 
ATOM      8  C   UNL     1       6.188   3.012  11.794  1.00  0.00     0.143 C 
ATOM      9  C   UNL     1       7.454   3.058  12.673  1.00  0.00     0.034 C 
ENDROOT
BRANCH   1  10
ATOM     10  C   UNL     1       7.653   5.036   7.688  1.00  0.00     0.246 C 
ATOM     11  O   UNL     1       8.499   5.609   6.993  1.00  0.00    -0.272 OA
BRANCH  10  12
ATOM     12  C   UNL     1       6.135   5.342   7.531  1.00  0.00     0.174 C 
BRANCH  12  13
ATOM     13  N   UNL     1       5.631   4.745   6.295  1.00  0.00    -0.342 N 
ATOM     14  C   UNL     1       4.790   3.657   6.228  1.00  0.00     0.249 C 
ATOM     15  O   UNL     1       4.344   3.079   7.212  1.00  0.00    -0.272 OA
ATOM     16  H   UNL     1       6.036   5.017   5.402  1.00  0.00     0.164 HD
BRANCH  14  17
ATOM     17  C   UNL     1       4.451   3.254   4.778  1.00  0.00     0.207 C 
BRANCH  17  18
ATOM     18  C   UNL     1       4.136   4.495   3.937  1.00  0.00     0.077 C 
BRANCH  18  19
ATOM     19  C   UNL     1       4.986   4.558   2.687  1.00  0.00    -0.043 A 
ATOM     20  C   UNL     1       7.126   4.959   1.619  1.00  0.00     0.083 A 
ATOM     21  C   UNL     1       6.355   4.853   2.777  1.00  0.00     0.028 A 
ATOM     22  C   UNL     1       6.536   4.774   0.368  1.00  0.00     0.134 A 
ATOM     23  C   UNL     1       5.181   4.481   0.265  1.00  0.00     0.048 A 
ATOM     24  C   UNL     1       4.406   4.376   1.422  1.00  0.00     0.008 A 
ATOM     25  Cl  UNL     1       8.806   5.323   1.748  1.00  0.00    -0.080 Cl
BRANCH  22  26
ATOM     26  O   UNL     1       7.249   4.878  -0.796  1.00  0.00    -0.506 OA
ATOM     27  H   UNL     1       7.298   5.829  -1.010  1.00  0.00     0.293 HD
ENDBRANCH  22  26
ENDBRANCH  18  19
ENDBRANCH  17  18
BRANCH  17  28
ATOM     28  O   UNL     1       3.331   2.355   4.739  1.00  0.00    -0.383 OA
ATOM     29  H   UNL     1       2.645   2.750   5.323  1.00  0.00     0.211 HD
ENDBRANCH  17  28
ENDBRANCH  14  17
ENDBRANCH  12  13
BRANCH  12  30
ATOM     30  C   UNL     1       5.816   6.858   7.629  1.00  0.00     0.018 C 
ATOM     31  C   UNL     1       6.209   7.411   9.008  1.00  0.00     0.010 C 
BRANCH  30  32
ATOM     32  C   UNL     1       4.339   7.204   7.319  1.00  0.00     0.002 C 
ATOM     33  C   UNL     1       3.811   8.466   7.988  1.00  0.00     0.004 C 
ENDBRANCH  30  32
ENDBRANCH  12  30
ENDBRANCH  10  12
ENDBRANCH   1  10
BRANCH   5  34
ATOM     34  C   UNL     1       8.493   1.870   7.503  1.00  0.00     0.242 C 
ATOM     35  O   UNL     1       7.519   1.956   6.756  1.00  0.00    -0.273 OA
ATOM     36  N   UNL     1       9.074   0.663   7.825  1.00  0.00    -0.354 N 
ATOM     37  H   UNL     1       9.800   0.643   8.541  1.00  0.00     0.163 HD
BRANCH  36  38
ATOM     38  C   UNL     1       8.764  -0.559   7.112  1.00  0.00     0.116 C 
BRANCH  38  39
ATOM     39  C   UNL     1       8.174  -1.586   8.076  1.00  0.00     0.023 C 
BRANCH  39  40
ATOM     40  C   UNL     1       7.240  -0.953   9.102  1.00  0.00     0.026 C 
BRANCH  40  41
ATOM     41  C   UNL     1       5.834  -0.788   8.525  1.00  0.00     0.146 C 
BRANCH  41  42
ATOM     42  N   UNL     1       5.673  -1.653   7.364  1.00  0.00    -0.254 NA
ATOM     43  C   UNL     1       5.208  -1.170   6.274  1.00  0.00     0.185 C 
ATOM     44  N   UNL     1       4.812   0.083   5.982  1.00  0.00    -0.370 N 
ATOM     45  N   UNL     1       5.063  -1.985   5.216  1.00  0.00    -0.370 N 
ATOM     46  H   UNL     1       4.244   0.265   5.173  1.00  0.00     0.159 HD
ATOM     47  H   UNL     1       4.866   0.832   6.666  1.00  0.00     0.159 HD
ATOM     48  H   UNL     1       5.347  -2.946   5.349  1.00  0.00     0.159 HD
ATOM     49  H   UNL     1       4.936  -1.644   4.280  1.00  0.00     0.159 HD
ENDBRANCH  41  42
ENDBRANCH  40  41
ENDBRANCH  39  40
ENDBRANCH  38  39
ENDBRANCH  36  38
ENDBRANCH   5  34
BRANCH   8  50
ATOM     50  O   UNL     1       5.905   1.648  11.477  1.00  0.00    -0.245 OA
BRANCH  50  51
ATOM     51  S   UNL     1       4.448   1.025  11.842  1.00  0.00     0.397 S 
ATOM     52  O   UNL     1       4.542  -0.414  11.751  1.00  0.00    -0.169 OA
ATOM     53  O   UNL     1       3.415   1.765  11.145  1.00  0.00    -0.169 OA
BRANCH  51  54
ATOM     54  O   UNL     1       4.323   1.358  13.410  1.00  0.00    -0.264 OA
ATOM     55  H   UNL     1       5.222   1.547  13.747  1.00  0.00     0.236 HD
ENDBRANCH  51  54
ENDBRANCH  50  51
ENDBRANCH   8  50
TORSDOF 19
ENDMDL
MODEL 48
REMARK VINA RESULT:    -6.396     13.834     16.756
REMARK INTER + INTRA:         -14.570
REMARK INTER:                 -10.229
REMARK INTRA:                  -4.342
REMARK UNBOUND:                -1.631
REMARK SMILES CC[C@@H](C)[C@@H](NC(=O)[C@@H](O)Cc1ccc(O)c(Cl)c1)C(=O)N1[C@H](C(=O)NCCCCN=C(N)N)C[C@H]2CC[C@H](OS(=O)(=O)O)C[C@@H]21
REMARK SMILES IDX 22 1 36 2 46 3 35 4 23 5 45 6 37 7 39 8 38 9 20 10 21 11
REMARK SMILES IDX 5 12 6 13 7 14 8 15 9 17 11 18 12 19 17 20 19 21 15 22 14 23
REMARK SMILES IDX 13 24 18 25 16 26 10 28 3 30 4 31 2 32 1 33 24 34 25 35
REMARK SMILES IDX 26 36 27 38 28 39 29 40 30 41 31 42 32 43 33 44 34 45 40 50
REMARK SMILES IDX 41 51 42 52 43 53 44 54
REMARK H PARENT 6 16 16 27 10 29 26 37 33 46 33 47 34 48 34 49 44 55
ROOT
ATOM      1  N   UNL     1       0.224  -7.265   8.433  1.00  0.00    -0.326 N 
ATOM      2  C   UNL     1       0.715  -8.683  10.247  1.00  0.00     0.014 C 
ATOM      3  C   UNL     1       1.230  -7.461   9.482  1.00  0.00     0.091 C 
ATOM      4  C   UNL     1       0.078  -9.522   9.150  1.00  0.00     0.041 C 
ATOM      5  C   UNL     1      -0.694  -8.430   8.386  1.00  0.00     0.175 C 
ATOM      6  C   UNL     1       1.465  -6.329  10.480  1.00  0.00     0.059 C 
ATOM      7  C   UNL     1       1.811  -9.287  11.103  1.00  0.00     0.008 C 
ATOM      8  C   UNL     1       1.896  -6.816  11.881  1.00  0.00     0.143 C 
ATOM      9  C   UNL     1       2.609  -8.182  11.825  1.00  0.00     0.034 C 
ENDROOT
BRANCH   1  10
ATOM     10  C   UNL     1       0.167  -6.320   7.423  1.00  0.00     0.246 C 
ATOM     11  O   UNL     1      -0.554  -5.327   7.569  1.00  0.00    -0.272 OA
BRANCH  10  12
ATOM     12  C   UNL     1       1.042  -6.505   6.150  1.00  0.00     0.174 C 
BRANCH  12  13
ATOM     13  N   UNL     1       1.849  -7.718   6.271  1.00  0.00    -0.342 N 
ATOM     14  C   UNL     1       1.656  -8.872   5.544  1.00  0.00     0.249 C 
ATOM     15  O   UNL     1       0.792  -9.000   4.686  1.00  0.00    -0.272 OA
ATOM     16  H   UNL     1       2.499  -7.816   7.047  1.00  0.00     0.164 HD
BRANCH  14  17
ATOM     17  C   UNL     1       2.661  -9.984   5.914  1.00  0.00     0.207 C 
BRANCH  17  18
ATOM     18  C   UNL     1       3.689 -10.170   4.794  1.00  0.00     0.077 C 
BRANCH  18  19
ATOM     19  C   UNL     1       4.592  -8.965   4.654  1.00  0.00    -0.043 A 
ATOM     20  C   UNL     1       6.062  -7.311   5.649  1.00  0.00     0.083 A 
ATOM     21  C   UNL     1       5.269  -8.453   5.772  1.00  0.00     0.028 A 
ATOM     22  C   UNL     1       6.182  -6.674   4.414  1.00  0.00     0.134 A 
ATOM     23  C   UNL     1       5.518  -7.171   3.298  1.00  0.00     0.048 A 
ATOM     24  C   UNL     1       4.722  -8.312   3.418  1.00  0.00     0.008 A 
ATOM     25  Cl  UNL     1       6.885  -6.698   7.035  1.00  0.00    -0.080 Cl
BRANCH  22  26
ATOM     26  O   UNL     1       6.940  -5.547   4.247  1.00  0.00    -0.506 OA
ATOM     27  H   UNL     1       7.858  -5.844   4.105  1.00  0.00     0.293 HD
ENDBRANCH  22  26
ENDBRANCH  18  19
ENDBRANCH  17  18
BRANCH  17  28
ATOM     28  O   UNL     1       1.988 -11.230   6.155  1.00  0.00    -0.383 OA
ATOM     29  H   UNL     1       1.074 -10.996   6.436  1.00  0.00     0.211 HD
ENDBRANCH  17  28
ENDBRANCH  14  17
ENDBRANCH  12  13
BRANCH  12  30
ATOM     30  C   UNL     1       1.900  -5.253   5.824  1.00  0.00     0.018 C 
ATOM     31  C   UNL     1       2.412  -5.302   4.376  1.00  0.00     0.010 C 
BRANCH  30  32
ATOM     32  C   UNL     1       3.084  -5.040   6.799  1.00  0.00     0.002 C 
ATOM     33  C   UNL     1       2.943  -3.857   7.747  1.00  0.00     0.004 C 
ENDBRANCH  30  32
ENDBRANCH  12  30
ENDBRANCH  10  12
ENDBRANCH   1  10
BRANCH   5  34
ATOM     34  C   UNL     1      -2.043  -8.095   9.075  1.00  0.00     0.242 C 
ATOM     35  O   UNL     1      -2.278  -6.989   9.560  1.00  0.00    -0.273 OA
ATOM     36  N   UNL     1      -2.937  -9.140   9.151  1.00  0.00    -0.354 N 
ATOM     37  H   UNL     1      -2.639 -10.065   8.839  1.00  0.00     0.163 HD
BRANCH  36  38
ATOM     38  C   UNL     1      -4.313  -8.953   9.562  1.00  0.00     0.116 C 
BRANCH  38  39
ATOM     39  C   UNL     1      -4.579  -9.728  10.850  1.00  0.00     0.023 C 
BRANCH  39  40
ATOM     40  C   UNL     1      -3.809  -9.164  12.040  1.00  0.00     0.026 C 
BRANCH  40  41
ATOM     41  C   UNL     1      -4.623  -8.082  12.749  1.00  0.00     0.146 C 
BRANCH  41  42
ATOM     42  N   UNL     1      -4.111  -6.766  12.390  1.00  0.00    -0.254 NA
ATOM     43  C   UNL     1      -3.325  -6.153  13.192  1.00  0.00     0.185 C 
ATOM     44  N   UNL     1      -2.848  -6.528  14.393  1.00  0.00    -0.370 N 
ATOM     45  N   UNL     1      -2.868  -4.938  12.845  1.00  0.00    -0.370 N 
ATOM     46  H   UNL     1      -2.441  -5.852  15.017  1.00  0.00     0.159 HD
ATOM     47  H   UNL     1      -3.083  -7.427  14.803  1.00  0.00     0.159 HD
ATOM     48  H   UNL     1      -3.172  -4.584  11.948  1.00  0.00     0.159 HD
ATOM     49  H   UNL     1      -2.079  -4.505  13.292  1.00  0.00     0.159 HD
ENDBRANCH  41  42
ENDBRANCH  40  41
ENDBRANCH  39  40
ENDBRANCH  38  39
ENDBRANCH  36  38
ENDBRANCH   5  34
BRANCH   8  50
ATOM     50  O   UNL     1       0.755  -6.935  12.731  1.00  0.00    -0.245 OA
BRANCH  50  51
ATOM     51  S   UNL     1       0.813  -6.336  14.242  1.00  0.00     0.397 S 
ATOM     52  O   UNL     1       2.151  -5.840  14.474  1.00  0.00    -0.169 OA
ATOM     53  O   UNL     1       0.176  -7.261  15.156  1.00  0.00    -0.169 OA
BRANCH  51  54
ATOM     54  O   UNL     1      -0.122  -5.033  14.123  1.00  0.00    -0.264 OA
ATOM     55  H   UNL     1       0.297  -4.317  14.643  1.00  0.00     0.236 HD
ENDBRANCH  51  54
ENDBRANCH  50  51
ENDBRANCH   8  50
TORSDOF 19
ENDMDL
MODEL 49
REMARK VINA RESULT:    -6.370     12.801     16.098
REMARK INTER + INTRA:         -14.518
REMARK INTER:                  -9.857
REMARK INTRA:                  -4.661
REMARK UNBOUND:                -1.631
REMARK SMILES CC[C@@H](C)[C@@H](NC(=O)[C@@H](O)Cc1ccc(O)c(Cl)c1)C(=O)N1[C@H](C(=O)NCCCCN=C(N)N)C[C@H]2CC[C@H](OS(=O)(=O)O)C[C@@H]21
REMARK SMILES IDX 22 1 36 2 46 3 35 4 23 5 45 6 37 7 39 8 38 9 20 10 21 11
REMARK SMILES IDX 5 12 6 13 7 14 8 15 9 17 11 18 12 19 17 20 19 21 15 22 14 23
REMARK SMILES IDX 13 24 18 25 16 26 10 28 3 30 4 31 2 32 1 33 24 34 25 35
REMARK SMILES IDX 26 36 27 38 28 39 29 40 30 41 31 42 32 43 33 44 34 45 40 50
REMARK SMILES IDX 41 51 42 52 43 53 44 54
REMARK H PARENT 6 16 16 27 10 29 26 37 33 46 33 47 34 48 34 49 44 55
ROOT
ATOM      1  N   UNL     1      -0.482  -6.426   9.495  1.00  0.00    -0.326 N 
ATOM      2  C   UNL     1      -1.342  -5.846  11.608  1.00  0.00     0.014 C 
ATOM      3  C   UNL     1      -1.733  -6.011  10.137  1.00  0.00     0.091 C 
ATOM      4  C   UNL     1       0.085  -5.328  11.519  1.00  0.00     0.041 C 
ATOM      5  C   UNL     1       0.650  -6.270  10.440  1.00  0.00     0.175 C 
ATOM      6  C   UNL     1      -2.934  -6.951  10.059  1.00  0.00     0.059 C 
ATOM      7  C   UNL     1      -2.381  -5.036  12.357  1.00  0.00     0.008 C 
ATOM      8  C   UNL     1      -3.874  -6.862  11.281  1.00  0.00     0.143 C 
ATOM      9  C   UNL     1      -3.806  -5.481  11.964  1.00  0.00     0.034 C 
ENDROOT
BRANCH   1  10
ATOM     10  C   UNL     1      -0.217  -6.705   8.165  1.00  0.00     0.246 C 
ATOM     11  O   UNL     1      -0.484  -7.827   7.721  1.00  0.00    -0.272 OA
BRANCH  10  12
ATOM     12  C   UNL     1       0.368  -5.591   7.249  1.00  0.00     0.174 C 
BRANCH  12  13
ATOM     13  N   UNL     1       1.711  -5.966   6.805  1.00  0.00    -0.342 N 
ATOM     14  C   UNL     1       2.139  -5.965   5.496  1.00  0.00     0.249 C 
ATOM     15  O   UNL     1       1.441  -5.620   4.551  1.00  0.00    -0.272 OA
ATOM     16  H   UNL     1       2.347  -6.421   7.454  1.00  0.00     0.164 HD
BRANCH  14  17
ATOM     17  C   UNL     1       3.604  -6.427   5.349  1.00  0.00     0.207 C 
BRANCH  17  18
ATOM     18  C   UNL     1       4.461  -5.308   4.748  1.00  0.00     0.077 C 
BRANCH  18  19
ATOM     19  C   UNL     1       4.822  -4.262   5.779  1.00  0.00    -0.043 A 
ATOM     20  C   UNL     1       5.084  -1.935   6.410  1.00  0.00     0.083 A 
ATOM     21  C   UNL     1       4.703  -2.897   5.474  1.00  0.00     0.028 A 
ATOM     22  C   UNL     1       5.585  -2.327   7.651  1.00  0.00     0.134 A 
ATOM     23  C   UNL     1       5.707  -3.676   7.966  1.00  0.00     0.048 A 
ATOM     24  C   UNL     1       5.329  -4.642   7.031  1.00  0.00     0.008 A 
ATOM     25  Cl  UNL     1       4.931  -0.262   6.017  1.00  0.00    -0.080 Cl
BRANCH  22  26
ATOM     26  O   UNL     1       5.980  -1.420   8.597  1.00  0.00    -0.506 OA
ATOM     27  H   UNL     1       6.204  -1.930   9.398  1.00  0.00     0.293 HD
ENDBRANCH  22  26
ENDBRANCH  18  19
ENDBRANCH  17  18
BRANCH  17  28
ATOM     28  O   UNL     1       3.696  -7.596   4.518  1.00  0.00    -0.383 OA
ATOM     29  H   UNL     1       4.620  -7.616   4.179  1.00  0.00     0.211 HD
ENDBRANCH  17  28
ENDBRANCH  14  17
ENDBRANCH  12  13
BRANCH  12  30
ATOM     30  C   UNL     1       0.334  -4.189   7.914  1.00  0.00     0.018 C 
ATOM     31  C   UNL     1      -0.714  -3.290   7.239  1.00  0.00     0.010 C 
BRANCH  30  32
ATOM     32  C   UNL     1       1.709  -3.478   7.937  1.00  0.00     0.002 C 
ATOM     33  C   UNL     1       2.328  -3.300   9.317  1.00  0.00     0.004 C 
ENDBRANCH  30  32
ENDBRANCH  12  30
ENDBRANCH  10  12
ENDBRANCH   1  10
BRANCH   5  34
ATOM     34  C   UNL     1       1.062  -7.642  11.038  1.00  0.00     0.242 C 
ATOM     35  O   UNL     1       0.406  -8.666  10.847  1.00  0.00    -0.273 OA
ATOM     36  N   UNL     1       2.182  -7.620  11.838  1.00  0.00    -0.354 N 
ATOM     37  H   UNL     1       2.613  -6.720  12.056  1.00  0.00     0.163 HD
BRANCH  36  38
ATOM     38  C   UNL     1       2.828  -8.832  12.298  1.00  0.00     0.116 C 
BRANCH  38  39
ATOM     39  C   UNL     1       4.138  -9.040  11.542  1.00  0.00     0.023 C 
BRANCH  39  40
ATOM     40  C   UNL     1       3.928  -9.708  10.187  1.00  0.00     0.026 C 
BRANCH  40  41
ATOM     41  C   UNL     1       4.150  -8.710   9.051  1.00  0.00     0.146 C 
BRANCH  41  42
ATOM     42  N   UNL     1       2.970  -8.666   8.197  1.00  0.00    -0.254 NA
ATOM     43  C   UNL     1       2.859  -9.493   7.226  1.00  0.00     0.185 C 
ATOM     44  N   UNL     1       3.693 -10.469   6.821  1.00  0.00    -0.370 N 
ATOM     45  N   UNL     1       1.766  -9.433   6.448  1.00  0.00    -0.370 N 
ATOM     46  H   UNL     1       3.600 -10.876   5.907  1.00  0.00     0.159 HD
ATOM     47  H   UNL     1       4.564 -10.662   7.307  1.00  0.00     0.159 HD
ATOM     48  H   UNL     1       1.082  -8.730   6.691  1.00  0.00     0.159 HD
ATOM     49  H   UNL     1       1.495 -10.179   5.833  1.00  0.00     0.159 HD
ENDBRANCH  41  42
ENDBRANCH  40  41
ENDBRANCH  39  40
ENDBRANCH  38  39
ENDBRANCH  36  38
ENDBRANCH   5  34
BRANCH   8  50
ATOM     50  O   UNL     1      -3.526  -7.860  12.241  1.00  0.00    -0.245 OA
BRANCH  50  51
ATOM     51  S   UNL     1      -4.701  -8.631  13.059  1.00  0.00     0.397 S 
ATOM     52  O   UNL     1      -5.944  -7.932  12.820  1.00  0.00    -0.169 OA
ATOM     53  O   UNL     1      -4.244  -8.929  14.401  1.00  0.00    -0.169 OA
BRANCH  51  54
ATOM     54  O   UNL     1      -4.817 -10.018  12.254  1.00  0.00    -0.264 OA
ATOM     55  H   UNL     1      -4.156 -10.000  11.532  1.00  0.00     0.236 HD
ENDBRANCH  51  54
ENDBRANCH  50  51
ENDBRANCH   8  50
TORSDOF 19
ENDMDL
MODEL 50
REMARK VINA RESULT:    -6.352      6.354      9.827
REMARK INTER + INTRA:         -14.482
REMARK INTER:                 -12.018
REMARK INTRA:                  -2.463
REMARK UNBOUND:                -1.631
REMARK SMILES CC[C@@H](C)[C@@H](NC(=O)[C@@H](O)Cc1ccc(O)c(Cl)c1)C(=O)N1[C@H](C(=O)NCCCCN=C(N)N)C[C@H]2CC[C@H](OS(=O)(=O)O)C[C@@H]21
REMARK SMILES IDX 22 1 36 2 46 3 35 4 23 5 45 6 37 7 39 8 38 9 20 10 21 11
REMARK SMILES IDX 5 12 6 13 7 14 8 15 9 17 11 18 12 19 17 20 19 21 15 22 14 23
REMARK SMILES IDX 13 24 18 25 16 26 10 28 3 30 4 31 2 32 1 33 24 34 25 35
REMARK SMILES IDX 26 36 27 38 28 39 29 40 30 41 31 42 32 43 33 44 34 45 40 50
REMARK SMILES IDX 41 51 42 52 43 53 44 54
REMARK H PARENT 6 16 16 27 10 29 26 37 33 46 33 47 34 48 34 49 44 55
ROOT
ATOM      1  N   UNL     1       5.044   2.487  11.084  1.00  0.00    -0.326 N 
ATOM      2  C   UNL     1       3.125   3.119  12.292  1.00  0.00     0.014 C 
ATOM      3  C   UNL     1       4.549   2.583  12.461  1.00  0.00     0.091 C 
ATOM      4  C   UNL     1       2.674   2.469  10.993  1.00  0.00     0.041 C 
ATOM      5  C   UNL     1       3.929   2.690  10.128  1.00  0.00     0.175 C 
ATOM      6  C   UNL     1       5.294   3.491  13.437  1.00  0.00     0.059 C 
ATOM      7  C   UNL     1       2.311   2.904  13.552  1.00  0.00     0.008 C 
ATOM      8  C   UNL     1       4.387   4.119  14.518  1.00  0.00     0.143 C 
ATOM      9  C   UNL     1       3.143   3.254  14.804  1.00  0.00     0.034 C 
ENDROOT
BRANCH   1  10
ATOM     10  C   UNL     1       6.268   2.045  10.610  1.00  0.00     0.246 C 
ATOM     11  O   UNL     1       7.252   2.087  11.356  1.00  0.00    -0.272 OA
BRANCH  10  12
ATOM     12  C   UNL     1       6.369   1.467   9.169  1.00  0.00     0.174 C 
BRANCH  12  13
ATOM     13  N   UNL     1       6.792   0.069   9.220  1.00  0.00    -0.342 N 
ATOM     14  C   UNL     1       6.010  -0.978   9.656  1.00  0.00     0.249 C 
ATOM     15  O   UNL     1       4.850  -0.854  10.027  1.00  0.00    -0.272 OA
ATOM     16  H   UNL     1       7.773  -0.166   9.093  1.00  0.00     0.164 HD
BRANCH  14  17
ATOM     17  C   UNL     1       6.748  -2.333   9.607  1.00  0.00     0.207 C 
BRANCH  17  18
ATOM     18  C   UNL     1       7.667  -2.398   8.383  1.00  0.00     0.077 C 
BRANCH  18  19
ATOM     19  C   UNL     1       6.988  -3.059   7.205  1.00  0.00    -0.043 A 
ATOM     20  C   UNL     1       6.684  -4.984   5.761  1.00  0.00     0.083 A 
ATOM     21  C   UNL     1       7.276  -4.393   6.878  1.00  0.00     0.028 A 
ATOM     22  C   UNL     1       5.806  -4.249   4.965  1.00  0.00     0.134 A 
ATOM     23  C   UNL     1       5.512  -2.927   5.277  1.00  0.00     0.048 A 
ATOM     24  C   UNL     1       6.103  -2.332   6.394  1.00  0.00     0.008 A 
ATOM     25  Cl  UNL     1       7.051  -6.625   5.375  1.00  0.00    -0.080 Cl
BRANCH  22  26
ATOM     26  O   UNL     1       5.210  -4.782   3.854  1.00  0.00    -0.506 OA
ATOM     27  H   UNL     1       5.295  -4.118   3.144  1.00  0.00     0.293 HD
ENDBRANCH  22  26
ENDBRANCH  18  19
ENDBRANCH  17  18
BRANCH  17  28
ATOM     28  O   UNL     1       5.818  -3.427   9.564  1.00  0.00    -0.383 OA
ATOM     29  H   UNL     1       5.189  -3.220   8.836  1.00  0.00     0.211 HD
ENDBRANCH  17  28
ENDBRANCH  14  17
ENDBRANCH  12  13
BRANCH  12  30
ATOM     30  C   UNL     1       7.270   2.325   8.240  1.00  0.00     0.018 C 
ATOM     31  C   UNL     1       6.495   2.779   6.993  1.00  0.00     0.010 C 
BRANCH  30  32
ATOM     32  C   UNL     1       8.583   1.618   7.823  1.00  0.00     0.002 C 
ATOM     33  C   UNL     1       9.815   2.004   8.631  1.00  0.00     0.004 C 
ENDBRANCH  30  32
ENDBRANCH  12  30
ENDBRANCH  10  12
ENDBRANCH   1  10
BRANCH   5  34
ATOM     34  C   UNL     1       3.968   4.122   9.532  1.00  0.00     0.242 C 
ATOM     35  O   UNL     1       4.786   4.965   9.900  1.00  0.00    -0.273 OA
ATOM     36  N   UNL     1       2.989   4.398   8.605  1.00  0.00    -0.354 N 
ATOM     37  H   UNL     1       2.266   3.699   8.430  1.00  0.00     0.163 HD
BRANCH  36  38
ATOM     38  C   UNL     1       3.006   5.600   7.796  1.00  0.00     0.116 C 
BRANCH  38  39
ATOM     39  C   UNL     1       3.829   5.362   6.532  1.00  0.00     0.023 C 
BRANCH  39  40
ATOM     40  C   UNL     1       3.324   4.173   5.722  1.00  0.00     0.026 C 
BRANCH  40  41
ATOM     41  C   UNL     1       4.141   4.003   4.442  1.00  0.00     0.146 C 
BRANCH  41  42
ATOM     42  N   UNL     1       3.279   4.178   3.280  1.00  0.00    -0.254 NA
ATOM     43  C   UNL     1       3.800   4.283   2.116  1.00  0.00     0.185 C 
ATOM     44  N   UNL     1       5.092   4.258   1.740  1.00  0.00    -0.370 N 
ATOM     45  N   UNL     1       2.988   4.448   1.058  1.00  0.00    -0.370 N 
ATOM     46  H   UNL     1       5.368   4.594   0.833  1.00  0.00     0.159 HD
ATOM     47  H   UNL     1       5.840   4.127   2.413  1.00  0.00     0.159 HD
ATOM     48  H   UNL     1       1.996   4.469   1.253  1.00  0.00     0.159 HD
ATOM     49  H   UNL     1       3.291   4.301   0.112  1.00  0.00     0.159 HD
ENDBRANCH  41  42
ENDBRANCH  40  41
ENDBRANCH  39  40
ENDBRANCH  38  39
ENDBRANCH  36  38
ENDBRANCH   5  34
BRANCH   8  50
ATOM     50  O   UNL     1       3.953   5.414  14.101  1.00  0.00    -0.245 OA
BRANCH  50  51
ATOM     51  S   UNL     1       3.334   6.444  15.198  1.00  0.00     0.397 S 
ATOM     52  O   UNL     1       3.994   6.201  16.461  1.00  0.00    -0.169 OA
ATOM     53  O   UNL     1       1.890   6.463  15.086  1.00  0.00    -0.169 OA
BRANCH  51  54
ATOM     54  O   UNL     1       3.890   7.860  14.678  1.00  0.00    -0.264 OA
ATOM     55  H   UNL     1       3.388   8.101  13.873  1.00  0.00     0.236 HD
ENDBRANCH  51  54
ENDBRANCH  50  51
ENDBRANCH   8  50
TORSDOF 19
ENDMDL
