MODEL 1
REMARK VINA RESULT:    -6.752      0.000      0.000
REMARK INTER + INTRA:         -17.952
REMARK INTER:                 -13.660
REMARK INTRA:                  -4.291
REMARK UNBOUND:                -4.291
REMARK SMILES CC[C@@H](C)[C@@H](NC(=O)[C@@H](O)Cc1ccc(O)c(Cl)c1)C(=O)N1[C@H](C(=O)NCCCCN=C(N)N)C[C@H]2CC[C@H](OS(=O)(=O)O)C[C@@H]21
REMARK SMILES IDX 22 1 36 2 46 3 35 4 23 5 45 6 37 7 39 8 38 9 20 10 21 11
REMARK SMILES IDX 5 12 6 13 7 14 8 15 9 17 11 18 12 19 17 20 19 21 15 22 14 23
REMARK SMILES IDX 13 24 18 25 16 26 10 28 3 30 4 31 2 32 1 33 24 34 25 35
REMARK SMILES IDX 26 36 27 38 28 39 29 40 30 41 31 42 32 43 33 44 34 45 40 50
REMARK SMILES IDX 41 51 42 52 43 53 44 54
REMARK H PARENT 6 16 16 27 10 29 26 37 33 46 33 47 34 48 34 49 44 55
ROOT
ATOM      1  N   UNL     1      -3.384  -0.801  -9.211  1.00  0.00    -0.326 N 
ATOM      2  C   UNL     1      -5.044  -2.297  -8.471  1.00  0.00     0.014 C 
ATOM      3  C   UNL     1      -4.191  -1.928  -9.688  1.00  0.00     0.091 C 
ATOM      4  C   UNL     1      -5.299  -0.947  -7.818  1.00  0.00     0.041 C 
ATOM      5  C   UNL     1      -3.887  -0.337  -7.894  1.00  0.00     0.175 C 
ATOM      6  C   UNL     1      -3.468  -3.184 -10.170  1.00  0.00     0.059 C 
ATOM      7  C   UNL     1      -6.222  -3.161  -8.877  1.00  0.00     0.008 C 
ATOM      8  C   UNL     1      -4.261  -4.487  -9.935  1.00  0.00     0.143 C 
ATOM      9  C   UNL     1      -5.783  -4.239  -9.891  1.00  0.00     0.034 C 
ENDROOT
BRANCH   1  10
ATOM     10  C   UNL     1      -2.440  -0.039  -9.879  1.00  0.00     0.246 C 
ATOM     11  O   UNL     1      -2.574   1.188  -9.915  1.00  0.00    -0.272 OA
BRANCH  10  12
ATOM     12  C   UNL     1      -1.212  -0.739 -10.531  1.00  0.00     0.174 C 
BRANCH  12  13
ATOM     13  N   UNL     1      -0.026  -0.543  -9.698  1.00  0.00    -0.342 N 
ATOM     14  C   UNL     1       0.805  -1.549  -9.259  1.00  0.00     0.249 C 
ATOM     15  O   UNL     1       0.656  -2.731  -9.545  1.00  0.00    -0.272 OA
ATOM     16  H   UNL     1       0.135   0.357  -9.254  1.00  0.00     0.164 HD
BRANCH  14  17
ATOM     17  C   UNL     1       1.962  -1.025  -8.382  1.00  0.00     0.207 C 
BRANCH  17  18
ATOM     18  C   UNL     1       3.290  -1.107  -9.141  1.00  0.00     0.077 C 
BRANCH  18  19
ATOM     19  C   UNL     1       3.704   0.237  -9.695  1.00  0.00    -0.043 A 
ATOM     20  C   UNL     1       4.994   1.555 -11.272  1.00  0.00     0.083 A 
ATOM     21  C   UNL     1       4.575   0.313 -10.794  1.00  0.00     0.028 A 
ATOM     22  C   UNL     1       4.550   2.726 -10.657  1.00  0.00     0.134 A 
ATOM     23  C   UNL     1       3.687   2.666  -9.568  1.00  0.00     0.048 A 
ATOM     24  C   UNL     1       3.267   1.424  -9.087  1.00  0.00     0.008 A 
ATOM     25  Cl  UNL     1       6.065   1.627 -12.622  1.00  0.00    -0.080 Cl
BRANCH  22  26
ATOM     26  O   UNL     1       4.942   3.966 -11.083  1.00  0.00    -0.506 OA
ATOM     27  H   UNL     1       5.686   4.236 -10.513  1.00  0.00     0.293 HD
ENDBRANCH  22  26
ENDBRANCH  18  19
ENDBRANCH  17  18
BRANCH  17  28
ATOM     28  O   UNL     1       2.065  -1.774  -7.160  1.00  0.00    -0.383 OA
ATOM     29  H   UNL     1       1.685  -1.200  -6.456  1.00  0.00     0.211 HD
ENDBRANCH  17  28
ENDBRANCH  14  17
ENDBRANCH  12  13
BRANCH  12  30
ATOM     30  C   UNL     1      -0.982  -0.297 -12.002  1.00  0.00     0.018 C 
ATOM     31  C   UNL     1      -2.282  -0.404 -12.814  1.00  0.00     0.010 C 
BRANCH  30  32
ATOM     32  C   UNL     1       0.154  -1.072 -12.712  1.00  0.00     0.002 C 
ATOM     33  C   UNL     1       1.400  -0.255 -13.031  1.00  0.00     0.004 C 
ENDBRANCH  30  32
ENDBRANCH  12  30
ENDBRANCH  10  12
ENDBRANCH   1  10
BRANCH   5  34
ATOM     34  C   UNL     1      -2.979  -0.852  -6.746  1.00  0.00     0.242 C 
ATOM     35  O   UNL     1      -1.841  -1.276  -6.946  1.00  0.00    -0.273 OA
ATOM     36  N   UNL     1      -3.558  -0.851  -5.496  1.00  0.00    -0.354 N 
ATOM     37  H   UNL     1      -4.544  -0.601  -5.412  1.00  0.00     0.163 HD
BRANCH  36  38
ATOM     38  C   UNL     1      -2.793  -1.091  -4.290  1.00  0.00     0.116 C 
BRANCH  38  39
ATOM     39  C   UNL     1      -3.628  -1.899  -3.299  1.00  0.00     0.023 C 
BRANCH  39  40
ATOM     40  C   UNL     1      -2.808  -2.965  -2.580  1.00  0.00     0.026 C 
BRANCH  40  41
ATOM     41  C   UNL     1      -3.063  -4.345  -3.186  1.00  0.00     0.146 C 
BRANCH  41  42
ATOM     42  N   UNL     1      -1.820  -4.887  -3.719  1.00  0.00    -0.254 NA
ATOM     43  C   UNL     1      -1.580  -4.802  -4.974  1.00  0.00     0.185 C 
ATOM     44  N   UNL     1      -2.318  -4.264  -5.962  1.00  0.00    -0.370 N 
ATOM     45  N   UNL     1      -0.430  -5.311  -5.446  1.00  0.00    -0.370 N 
ATOM     46  H   UNL     1      -2.124  -4.483  -6.924  1.00  0.00     0.159 HD
ATOM     47  H   UNL     1      -3.213  -3.822  -5.778  1.00  0.00     0.159 HD
ATOM     48  H   UNL     1       0.189  -5.728  -4.765  1.00  0.00     0.159 HD
ATOM     49  H   UNL     1      -0.065  -5.079  -6.353  1.00  0.00     0.159 HD
ENDBRANCH  41  42
ENDBRANCH  40  41
ENDBRANCH  39  40
ENDBRANCH  38  39
ENDBRANCH  36  38
ENDBRANCH   5  34
BRANCH   8  50
ATOM     50  O   UNL     1      -3.864  -5.087  -8.701  1.00  0.00    -0.245 OA
BRANCH  50  51
ATOM     51  S   UNL     1      -3.013  -6.473  -8.720  1.00  0.00     0.397 S 
ATOM     52  O   UNL     1      -3.896  -7.545  -8.318  1.00  0.00    -0.169 OA
ATOM     53  O   UNL     1      -1.731  -6.265  -8.080  1.00  0.00    -0.169 OA
BRANCH  51  54
ATOM     54  O   UNL     1      -2.754  -6.686 -10.292  1.00  0.00    -0.264 OA
ATOM     55  H   UNL     1      -2.481  -5.825 -10.669  1.00  0.00     0.236 HD
ENDBRANCH  51  54
ENDBRANCH  50  51
ENDBRANCH   8  50
TORSDOF 19
ENDMDL
MODEL 2
REMARK VINA RESULT:    -6.598      1.691      2.265
REMARK INTER + INTRA:         -17.638
REMARK INTER:                 -13.687
REMARK INTRA:                  -3.951
REMARK UNBOUND:                -4.291
REMARK SMILES CC[C@@H](C)[C@@H](NC(=O)[C@@H](O)Cc1ccc(O)c(Cl)c1)C(=O)N1[C@H](C(=O)NCCCCN=C(N)N)C[C@H]2CC[C@H](OS(=O)(=O)O)C[C@@H]21
REMARK SMILES IDX 22 1 36 2 46 3 35 4 23 5 45 6 37 7 39 8 38 9 20 10 21 11
REMARK SMILES IDX 5 12 6 13 7 14 8 15 9 17 11 18 12 19 17 20 19 21 15 22 14 23
REMARK SMILES IDX 13 24 18 25 16 26 10 28 3 30 4 31 2 32 1 33 24 34 25 35
REMARK SMILES IDX 26 36 27 38 28 39 29 40 30 41 31 42 32 43 33 44 34 45 40 50
REMARK SMILES IDX 41 51 42 52 43 53 44 54
REMARK H PARENT 6 16 16 27 10 29 26 37 33 46 33 47 34 48 34 49 44 55
ROOT
ATOM      1  N   UNL     1      -3.444  -0.812  -9.641  1.00  0.00    -0.326 N 
ATOM      2  C   UNL     1      -5.187  -2.381  -9.433  1.00  0.00     0.014 C 
ATOM      3  C   UNL     1      -3.984  -2.004 -10.302  1.00  0.00     0.091 C 
ATOM      4  C   UNL     1      -5.713  -1.026  -8.984  1.00  0.00     0.041 C 
ATOM      5  C   UNL     1      -4.392  -0.332  -8.606  1.00  0.00     0.175 C 
ATOM      6  C   UNL     1      -3.082  -3.229 -10.436  1.00  0.00     0.059 C 
ATOM      7  C   UNL     1      -6.111  -3.331 -10.169  1.00  0.00     0.008 C 
ATOM      8  C   UNL     1      -3.847  -4.570 -10.414  1.00  0.00     0.143 C 
ATOM      9  C   UNL     1      -5.300  -4.416 -10.908  1.00  0.00     0.034 C 
ENDROOT
BRANCH   1  10
ATOM     10  C   UNL     1      -2.364  -0.018  -9.987  1.00  0.00     0.246 C 
ATOM     11  O   UNL     1      -2.397   1.189  -9.726  1.00  0.00    -0.272 OA
BRANCH  10  12
ATOM     12  C   UNL     1      -1.117  -0.667 -10.654  1.00  0.00     0.174 C 
BRANCH  12  13
ATOM     13  N   UNL     1       0.054  -0.500  -9.794  1.00  0.00    -0.342 N 
ATOM     14  C   UNL     1       0.832  -1.528  -9.310  1.00  0.00     0.249 C 
ATOM     15  O   UNL     1       0.643  -2.709  -9.573  1.00  0.00    -0.272 OA
ATOM     16  H   UNL     1       0.239   0.403  -9.366  1.00  0.00     0.164 HD
BRANCH  14  17
ATOM     17  C   UNL     1       1.985  -1.030  -8.413  1.00  0.00     0.207 C 
BRANCH  17  18
ATOM     18  C   UNL     1       3.306  -1.029  -9.190  1.00  0.00     0.077 C 
BRANCH  18  19
ATOM     19  C   UNL     1       3.741   0.372  -9.556  1.00  0.00    -0.043 A 
ATOM     20  C   UNL     1       3.596   2.771  -9.230  1.00  0.00     0.083 A 
ATOM     21  C   UNL     1       3.230   1.477  -8.858  1.00  0.00     0.028 A 
ATOM     22  C   UNL     1       4.471   2.969 -10.299  1.00  0.00     0.134 A 
ATOM     23  C   UNL     1       4.985   1.884 -10.998  1.00  0.00     0.048 A 
ATOM     24  C   UNL     1       4.619   0.587 -10.629  1.00  0.00     0.008 A 
ATOM     25  Cl  UNL     1       2.957   4.117  -8.361  1.00  0.00    -0.080 Cl
BRANCH  22  26
ATOM     26  O   UNL     1       4.850   4.220 -10.707  1.00  0.00    -0.506 OA
ATOM     27  H   UNL     1       4.919   4.188 -11.679  1.00  0.00     0.293 HD
ENDBRANCH  22  26
ENDBRANCH  18  19
ENDBRANCH  17  18
BRANCH  17  28
ATOM     28  O   UNL     1       2.122  -1.852  -7.242  1.00  0.00    -0.383 OA
ATOM     29  H   UNL     1       1.674  -1.364  -6.514  1.00  0.00     0.211 HD
ENDBRANCH  17  28
ENDBRANCH  14  17
ENDBRANCH  12  13
BRANCH  12  30
ATOM     30  C   UNL     1      -0.870  -0.149 -12.097  1.00  0.00     0.018 C 
ATOM     31  C   UNL     1      -2.153  -0.242 -12.937  1.00  0.00     0.010 C 
BRANCH  30  32
ATOM     32  C   UNL     1       0.295  -0.864 -12.824  1.00  0.00     0.002 C 
ATOM     33  C   UNL     1       1.568  -0.043 -12.977  1.00  0.00     0.004 C 
ENDBRANCH  30  32
ENDBRANCH  12  30
ENDBRANCH  10  12
ENDBRANCH   1  10
BRANCH   5  34
ATOM     34  C   UNL     1      -3.914  -0.746  -7.188  1.00  0.00     0.242 C 
ATOM     35  O   UNL     1      -4.473  -0.353  -6.164  1.00  0.00    -0.273 OA
ATOM     36  N   UNL     1      -2.789  -1.540  -7.158  1.00  0.00    -0.354 N 
ATOM     37  H   UNL     1      -2.301  -1.734  -8.033  1.00  0.00     0.163 HD
BRANCH  36  38
ATOM     38  C   UNL     1      -2.335  -2.191  -5.947  1.00  0.00     0.116 C 
BRANCH  38  39
ATOM     39  C   UNL     1      -2.355  -3.707  -6.135  1.00  0.00     0.023 C 
BRANCH  39  40
ATOM     40  C   UNL     1      -1.085  -4.374  -5.617  1.00  0.00     0.026 C 
BRANCH  40  41
ATOM     41  C   UNL     1      -0.706  -5.570  -6.491  1.00  0.00     0.146 C 
BRANCH  41  42
ATOM     42  N   UNL     1      -0.689  -5.170  -7.892  1.00  0.00    -0.254 NA
ATOM     43  C   UNL     1      -0.355  -6.020  -8.789  1.00  0.00     0.185 C 
ATOM     44  N   UNL     1       0.007  -7.310  -8.666  1.00  0.00    -0.370 N 
ATOM     45  N   UNL     1      -0.341  -5.630 -10.074  1.00  0.00    -0.370 N 
ATOM     46  H   UNL     1       0.475  -7.785  -9.419  1.00  0.00     0.159 HD
ATOM     47  H   UNL     1       0.037  -7.772  -7.763  1.00  0.00     0.159 HD
ATOM     48  H   UNL     1      -0.610  -4.673 -10.255  1.00  0.00     0.159 HD
ATOM     49  H   UNL     1      -0.325  -6.280 -10.839  1.00  0.00     0.159 HD
ENDBRANCH  41  42
ENDBRANCH  40  41
ENDBRANCH  39  40
ENDBRANCH  38  39
ENDBRANCH  36  38
ENDBRANCH   5  34
BRANCH   8  50
ATOM     50  O   UNL     1      -3.874  -5.098  -9.087  1.00  0.00    -0.245 OA
BRANCH  50  51
ATOM     51  S   UNL     1      -4.001  -6.704  -8.865  1.00  0.00     0.397 S 
ATOM     52  O   UNL     1      -3.077  -7.354  -9.766  1.00  0.00    -0.169 OA
ATOM     53  O   UNL     1      -5.399  -7.078  -8.810  1.00  0.00    -0.169 OA
BRANCH  51  54
ATOM     54  O   UNL     1      -3.381  -6.889  -7.393  1.00  0.00    -0.264 OA
ATOM     55  H   UNL     1      -2.789  -6.129  -7.221  1.00  0.00     0.236 HD
ENDBRANCH  51  54
ENDBRANCH  50  51
ENDBRANCH   8  50
TORSDOF 19
ENDMDL
MODEL 3
REMARK VINA RESULT:    -6.568      1.553      1.943
REMARK INTER + INTRA:         -17.579
REMARK INTER:                 -11.715
REMARK INTRA:                  -5.864
REMARK UNBOUND:                -4.291
REMARK SMILES CC[C@@H](C)[C@@H](NC(=O)[C@@H](O)Cc1ccc(O)c(Cl)c1)C(=O)N1[C@H](C(=O)NCCCCN=C(N)N)C[C@H]2CC[C@H](OS(=O)(=O)O)C[C@@H]21
REMARK SMILES IDX 22 1 36 2 46 3 35 4 23 5 45 6 37 7 39 8 38 9 20 10 21 11
REMARK SMILES IDX 5 12 6 13 7 14 8 15 9 17 11 18 12 19 17 20 19 21 15 22 14 23
REMARK SMILES IDX 13 24 18 25 16 26 10 28 3 30 4 31 2 32 1 33 24 34 25 35
REMARK SMILES IDX 26 36 27 38 28 39 29 40 30 41 31 42 32 43 33 44 34 45 40 50
REMARK SMILES IDX 41 51 42 52 43 53 44 54
REMARK H PARENT 6 16 16 27 10 29 26 37 33 46 33 47 34 48 34 49 44 55
ROOT
ATOM      1  N   UNL     1      -4.303  -0.678  -9.927  1.00  0.00    -0.326 N 
ATOM      2  C   UNL     1      -5.648  -2.323  -8.914  1.00  0.00     0.014 C 
ATOM      3  C   UNL     1      -4.911  -1.980 -10.212  1.00  0.00     0.091 C 
ATOM      4  C   UNL     1      -6.118  -0.961  -8.426  1.00  0.00     0.041 C 
ATOM      5  C   UNL     1      -4.840  -0.133  -8.656  1.00  0.00     0.175 C 
ATOM      6  C   UNL     1      -3.992  -3.147 -10.569  1.00  0.00     0.059 C 
ATOM      7  C   UNL     1      -6.666  -3.423  -9.142  1.00  0.00     0.008 C 
ATOM      8  C   UNL     1      -4.535  -4.523 -10.126  1.00  0.00     0.143 C 
ATOM      9  C   UNL     1      -6.074  -4.536 -10.032  1.00  0.00     0.034 C 
ENDROOT
BRANCH   1  10
ATOM     10  C   UNL     1      -3.530   0.137 -10.737  1.00  0.00     0.246 C 
ATOM     11  O   UNL     1      -3.949   1.262 -11.033  1.00  0.00    -0.272 OA
BRANCH  10  12
ATOM     12  C   UNL     1      -2.137  -0.360 -11.220  1.00  0.00     0.174 C 
BRANCH  12  13
ATOM     13  N   UNL     1      -1.262  -0.587 -10.070  1.00  0.00    -0.342 N 
ATOM     14  C   UNL     1      -0.327  -1.593  -9.975  1.00  0.00     0.249 C 
ATOM     15  O   UNL     1      -0.103  -2.402 -10.867  1.00  0.00    -0.272 OA
ATOM     16  H   UNL     1      -1.440  -0.096  -9.198  1.00  0.00     0.164 HD
BRANCH  14  17
ATOM     17  C   UNL     1       0.428  -1.579  -8.629  1.00  0.00     0.207 C 
BRANCH  17  18
ATOM     18  C   UNL     1       1.938  -1.691  -8.860  1.00  0.00     0.077 C 
BRANCH  18  19
ATOM     19  C   UNL     1       2.589  -0.333  -8.993  1.00  0.00    -0.043 A 
ATOM     20  C   UNL     1       2.820   1.969  -8.261  1.00  0.00     0.083 A 
ATOM     21  C   UNL     1       2.255   0.702  -8.105  1.00  0.00     0.028 A 
ATOM     22  C   UNL     1       3.718   2.209  -9.302  1.00  0.00     0.134 A 
ATOM     23  C   UNL     1       4.058   1.193 -10.187  1.00  0.00     0.048 A 
ATOM     24  C   UNL     1       3.492  -0.075 -10.035  1.00  0.00     0.008 A 
ATOM     25  Cl  UNL     1       2.397   3.228  -7.162  1.00  0.00    -0.080 Cl
BRANCH  22  26
ATOM     26  O   UNL     1       4.290   3.436  -9.501  1.00  0.00    -0.506 OA
ATOM     27  H   UNL     1       4.455   3.516 -10.459  1.00  0.00     0.293 HD
ENDBRANCH  22  26
ENDBRANCH  18  19
ENDBRANCH  17  18
BRANCH  17  28
ATOM     28  O   UNL     1      -0.006  -2.655  -7.782  1.00  0.00    -0.383 OA
ATOM     29  H   UNL     1      -0.981  -2.555  -7.692  1.00  0.00     0.211 HD
ENDBRANCH  17  28
ENDBRANCH  14  17
ENDBRANCH  12  13
BRANCH  12  30
ATOM     30  C   UNL     1      -1.496   0.581 -12.276  1.00  0.00     0.018 C 
ATOM     31  C   UNL     1      -1.301  -0.150 -13.613  1.00  0.00     0.010 C 
BRANCH  30  32
ATOM     32  C   UNL     1      -0.161   1.214 -11.815  1.00  0.00     0.002 C 
ATOM     33  C   UNL     1       1.061   0.829 -12.640  1.00  0.00     0.004 C 
ENDBRANCH  30  32
ENDBRANCH  12  30
ENDBRANCH  10  12
ENDBRANCH   1  10
BRANCH   5  34
ATOM     34  C   UNL     1      -3.820  -0.324  -7.501  1.00  0.00     0.242 C 
ATOM     35  O   UNL     1      -2.747  -0.907  -7.661  1.00  0.00    -0.273 OA
ATOM     36  N   UNL     1      -4.225   0.156  -6.276  1.00  0.00    -0.354 N 
ATOM     37  H   UNL     1      -5.174   0.521  -6.181  1.00  0.00     0.163 HD
BRANCH  36  38
ATOM     38  C   UNL     1      -3.322   0.257  -5.148  1.00  0.00     0.116 C 
BRANCH  38  39
ATOM     39  C   UNL     1      -3.970  -0.357  -3.910  1.00  0.00     0.023 C 
BRANCH  39  40
ATOM     40  C   UNL     1      -3.134  -1.484  -3.312  1.00  0.00     0.026 C 
BRANCH  40  41
ATOM     41  C   UNL     1      -3.648  -2.846  -3.778  1.00  0.00     0.146 C 
BRANCH  41  42
ATOM     42  N   UNL     1      -2.522  -3.713  -4.100  1.00  0.00    -0.254 NA
ATOM     43  C   UNL     1      -2.210  -3.918  -5.324  1.00  0.00     0.185 C 
ATOM     44  N   UNL     1      -2.772  -3.443  -6.451  1.00  0.00    -0.370 N 
ATOM     45  N   UNL     1      -1.172  -4.724  -5.600  1.00  0.00    -0.370 N 
ATOM     46  H   UNL     1      -2.582  -3.874  -7.340  1.00  0.00     0.159 HD
ATOM     47  H   UNL     1      -3.562  -2.806  -6.426  1.00  0.00     0.159 HD
ATOM     48  H   UNL     1      -0.687  -5.118  -4.805  1.00  0.00     0.159 HD
ATOM     49  H   UNL     1      -0.724  -4.745  -6.499  1.00  0.00     0.159 HD
ENDBRANCH  41  42
ENDBRANCH  40  41
ENDBRANCH  39  40
ENDBRANCH  38  39
ENDBRANCH  36  38
ENDBRANCH   5  34
BRANCH   8  50
ATOM     50  O   UNL     1      -3.999  -4.873  -8.849  1.00  0.00    -0.245 OA
BRANCH  50  51
ATOM     51  S   UNL     1      -2.753  -5.915  -8.759  1.00  0.00     0.397 S 
ATOM     52  O   UNL     1      -1.532  -5.144  -8.685  1.00  0.00    -0.169 OA
ATOM     53  O   UNL     1      -2.928  -6.968  -9.738  1.00  0.00    -0.169 OA
BRANCH  51  54
ATOM     54  O   UNL     1      -2.956  -6.556  -7.299  1.00  0.00    -0.264 OA
ATOM     55  H   UNL     1      -2.265  -6.186  -6.712  1.00  0.00     0.236 HD
ENDBRANCH  51  54
ENDBRANCH  50  51
ENDBRANCH   8  50
TORSDOF 19
ENDMDL
MODEL 4
REMARK VINA RESULT:    -6.532      3.646      9.003
REMARK INTER + INTRA:         -17.506
REMARK INTER:                 -12.961
REMARK INTRA:                  -4.545
REMARK UNBOUND:                -4.291
REMARK SMILES CC[C@@H](C)[C@@H](NC(=O)[C@@H](O)Cc1ccc(O)c(Cl)c1)C(=O)N1[C@H](C(=O)NCCCCN=C(N)N)C[C@H]2CC[C@H](OS(=O)(=O)O)C[C@@H]21
REMARK SMILES IDX 22 1 36 2 46 3 35 4 23 5 45 6 37 7 39 8 38 9 20 10 21 11
REMARK SMILES IDX 5 12 6 13 7 14 8 15 9 17 11 18 12 19 17 20 19 21 15 22 14 23
REMARK SMILES IDX 13 24 18 25 16 26 10 28 3 30 4 31 2 32 1 33 24 34 25 35
REMARK SMILES IDX 26 36 27 38 28 39 29 40 30 41 31 42 32 43 33 44 34 45 40 50
REMARK SMILES IDX 41 51 42 52 43 53 44 54
REMARK H PARENT 6 16 16 27 10 29 26 37 33 46 33 47 34 48 34 49 44 55
ROOT
ATOM      1  N   UNL     1      -0.989  -2.119  -9.149  1.00  0.00    -0.326 N 
ATOM      2  C   UNL     1      -0.986   0.193  -8.707  1.00  0.00     0.014 C 
ATOM      3  C   UNL     1      -0.383  -1.137  -8.246  1.00  0.00     0.091 C 
ATOM      4  C   UNL     1      -2.391  -0.206  -9.132  1.00  0.00     0.041 C 
ATOM      5  C   UNL     1      -2.082  -1.486  -9.929  1.00  0.00     0.175 C 
ATOM      6  C   UNL     1       1.138  -1.001  -8.239  1.00  0.00     0.059 C 
ATOM      7  C   UNL     1      -0.805   1.266  -7.651  1.00  0.00     0.008 C 
ATOM      8  C   UNL     1       1.633   0.424  -7.911  1.00  0.00     0.143 C 
ATOM      9  C   UNL     1       0.617   1.208  -7.055  1.00  0.00     0.034 C 
ENDROOT
BRANCH   1  10
ATOM     10  C   UNL     1      -0.835  -3.494  -9.198  1.00  0.00     0.246 C 
ATOM     11  O   UNL     1      -0.030  -3.981  -9.999  1.00  0.00    -0.272 OA
BRANCH  10  12
ATOM     12  C   UNL     1      -1.643  -4.392  -8.217  1.00  0.00     0.174 C 
BRANCH  12  13
ATOM     13  N   UNL     1      -3.074  -4.267  -8.491  1.00  0.00    -0.342 N 
ATOM     14  C   UNL     1      -3.783  -5.056  -9.369  1.00  0.00     0.249 C 
ATOM     15  O   UNL     1      -3.292  -5.980 -10.005  1.00  0.00    -0.272 OA
ATOM     16  H   UNL     1      -3.581  -3.450  -8.158  1.00  0.00     0.164 HD
BRANCH  14  17
ATOM     17  C   UNL     1      -5.274  -4.665  -9.451  1.00  0.00     0.207 C 
BRANCH  17  18
ATOM     18  C   UNL     1      -5.591  -3.550  -8.449  1.00  0.00     0.077 C 
BRANCH  18  19
ATOM     19  C   UNL     1      -5.735  -2.207  -9.129  1.00  0.00    -0.043 A 
ATOM     20  C   UNL     1      -6.225   0.166  -9.016  1.00  0.00     0.083 A 
ATOM     21  C   UNL     1      -6.044  -1.062  -8.379  1.00  0.00     0.028 A 
ATOM     22  C   UNL     1      -6.099   0.258 -10.403  1.00  0.00     0.134 A 
ATOM     23  C   UNL     1      -5.793  -0.868 -11.158  1.00  0.00     0.048 A 
ATOM     24  C   UNL     1      -5.613  -2.099 -10.523  1.00  0.00     0.008 A 
ATOM     25  Cl  UNL     1      -6.605   1.561  -8.077  1.00  0.00    -0.080 Cl
BRANCH  22  26
ATOM     26  O   UNL     1      -6.278   1.438 -11.073  1.00  0.00    -0.506 OA
ATOM     27  H   UNL     1      -6.598   2.086 -10.418  1.00  0.00     0.293 HD
ENDBRANCH  22  26
ENDBRANCH  18  19
ENDBRANCH  17  18
BRANCH  17  28
ATOM     28  O   UNL     1      -6.121  -5.796  -9.189  1.00  0.00    -0.383 OA
ATOM     29  H   UNL     1      -5.682  -6.303  -8.468  1.00  0.00     0.211 HD
ENDBRANCH  17  28
ENDBRANCH  14  17
ENDBRANCH  12  13
BRANCH  12  30
ATOM     30  C   UNL     1      -1.298  -4.117  -6.729  1.00  0.00     0.018 C 
ATOM     31  C   UNL     1      -0.598  -5.329  -6.097  1.00  0.00     0.010 C 
BRANCH  30  32
ATOM     32  C   UNL     1      -2.521  -3.703  -5.874  1.00  0.00     0.002 C 
ATOM     33  C   UNL     1      -2.719  -2.202  -5.704  1.00  0.00     0.004 C 
ENDBRANCH  30  32
ENDBRANCH  12  30
ENDBRANCH  10  12
ENDBRANCH   1  10
BRANCH   5  34
ATOM     34  C   UNL     1      -1.612  -1.162 -11.372  1.00  0.00     0.242 C 
ATOM     35  O   UNL     1      -2.350  -0.627 -12.199  1.00  0.00    -0.273 OA
ATOM     36  N   UNL     1      -0.331  -1.566 -11.675  1.00  0.00    -0.354 N 
ATOM     37  H   UNL     1       0.188  -2.112 -10.987  1.00  0.00     0.163 HD
BRANCH  36  38
ATOM     38  C   UNL     1       0.340  -1.158 -12.892  1.00  0.00     0.116 C 
BRANCH  38  39
ATOM     39  C   UNL     1       1.419  -0.127 -12.567  1.00  0.00     0.023 C 
BRANCH  39  40
ATOM     40  C   UNL     1       1.837   0.684 -13.789  1.00  0.00     0.026 C 
BRANCH  40  41
ATOM     41  C   UNL     1       3.356   0.664 -13.960  1.00  0.00     0.146 C 
BRANCH  41  42
ATOM     42  N   UNL     1       3.966   1.627 -13.053  1.00  0.00    -0.254 NA
ATOM     43  C   UNL     1       5.241   1.700 -12.972  1.00  0.00     0.185 C 
ATOM     44  N   UNL     1       6.191   1.001 -13.619  1.00  0.00    -0.370 N 
ATOM     45  N   UNL     1       5.784   2.592 -12.127  1.00  0.00    -0.370 N 
ATOM     46  H   UNL     1       7.139   0.990 -13.282  1.00  0.00     0.159 HD
ATOM     47  H   UNL     1       5.956   0.292 -14.307  1.00  0.00     0.159 HD
ATOM     48  H   UNL     1       5.136   3.167 -11.605  1.00  0.00     0.159 HD
ATOM     49  H   UNL     1       6.747   2.873 -12.177  1.00  0.00     0.159 HD
ENDBRANCH  41  42
ENDBRANCH  40  41
ENDBRANCH  39  40
ENDBRANCH  38  39
ENDBRANCH  36  38
ENDBRANCH   5  34
BRANCH   8  50
ATOM     50  O   UNL     1       1.867   1.152  -9.117  1.00  0.00    -0.245 OA
BRANCH  50  51
ATOM     51  S   UNL     1       3.283   1.923  -9.328  1.00  0.00     0.397 S 
ATOM     52  O   UNL     1       4.254   0.955  -9.787  1.00  0.00    -0.169 OA
ATOM     53  O   UNL     1       3.544   2.781  -8.191  1.00  0.00    -0.169 OA
BRANCH  51  54
ATOM     54  O   UNL     1       2.968   2.862 -10.595  1.00  0.00    -0.264 OA
ATOM     55  H   UNL     1       3.501   3.678 -10.501  1.00  0.00     0.236 HD
ENDBRANCH  51  54
ENDBRANCH  50  51
ENDBRANCH   8  50
TORSDOF 19
ENDMDL
MODEL 5
REMARK VINA RESULT:    -6.454      1.617      2.099
REMARK INTER + INTRA:         -17.348
REMARK INTER:                 -13.445
REMARK INTRA:                  -3.904
REMARK UNBOUND:                -4.291
REMARK SMILES CC[C@@H](C)[C@@H](NC(=O)[C@@H](O)Cc1ccc(O)c(Cl)c1)C(=O)N1[C@H](C(=O)NCCCCN=C(N)N)C[C@H]2CC[C@H](OS(=O)(=O)O)C[C@@H]21
REMARK SMILES IDX 22 1 36 2 46 3 35 4 23 5 45 6 37 7 39 8 38 9 20 10 21 11
REMARK SMILES IDX 5 12 6 13 7 14 8 15 9 17 11 18 12 19 17 20 19 21 15 22 14 23
REMARK SMILES IDX 13 24 18 25 16 26 10 28 3 30 4 31 2 32 1 33 24 34 25 35
REMARK SMILES IDX 26 36 27 38 28 39 29 40 30 41 31 42 32 43 33 44 34 45 40 50
REMARK SMILES IDX 41 51 42 52 43 53 44 54
REMARK H PARENT 6 16 16 27 10 29 26 37 33 46 33 47 34 48 34 49 44 55
ROOT
ATOM      1  N   UNL     1      -4.241  -0.946 -10.172  1.00  0.00    -0.326 N 
ATOM      2  C   UNL     1      -5.551  -2.375  -8.836  1.00  0.00     0.014 C 
ATOM      3  C   UNL     1      -4.958  -2.223 -10.240  1.00  0.00     0.091 C 
ATOM      4  C   UNL     1      -5.874  -0.940  -8.450  1.00  0.00     0.041 C 
ATOM      5  C   UNL     1      -4.585  -0.237  -8.915  1.00  0.00     0.175 C 
ATOM      6  C   UNL     1      -4.162  -3.484 -10.568  1.00  0.00     0.059 C 
ATOM      7  C   UNL     1      -6.654  -3.415  -8.823  1.00  0.00     0.008 C 
ATOM      8  C   UNL     1      -4.730  -4.764  -9.917  1.00  0.00     0.143 C 
ATOM      9  C   UNL     1      -6.244  -4.654  -9.646  1.00  0.00     0.034 C 
ENDROOT
BRANCH   1  10
ATOM     10  C   UNL     1      -3.525  -0.277 -11.150  1.00  0.00     0.246 C 
ATOM     11  O   UNL     1      -4.043   0.690 -11.719  1.00  0.00    -0.272 OA
BRANCH  10  12
ATOM     12  C   UNL     1      -2.073  -0.728 -11.480  1.00  0.00     0.174 C 
BRANCH  12  13
ATOM     13  N   UNL     1      -1.369  -1.087 -10.249  1.00  0.00    -0.342 N 
ATOM     14  C   UNL     1      -0.706  -2.274 -10.035  1.00  0.00     0.249 C 
ATOM     15  O   UNL     1      -0.607  -3.161 -10.874  1.00  0.00    -0.272 OA
ATOM     16  H   UNL     1      -1.496  -0.521  -9.413  1.00  0.00     0.164 HD
BRANCH  14  17
ATOM     17  C   UNL     1      -0.079  -2.360  -8.627  1.00  0.00     0.207 C 
BRANCH  17  18
ATOM     18  C   UNL     1       1.449  -2.308  -8.717  1.00  0.00     0.077 C 
BRANCH  18  19
ATOM     19  C   UNL     1       1.965  -0.886  -8.684  1.00  0.00    -0.043 A 
ATOM     20  C   UNL     1       3.488   0.817  -9.500  1.00  0.00     0.083 A 
ATOM     21  C   UNL     1       2.980  -0.481  -9.566  1.00  0.00     0.028 A 
ATOM     22  C   UNL     1       2.990   1.715  -8.555  1.00  0.00     0.134 A 
ATOM     23  C   UNL     1       1.985   1.326  -7.676  1.00  0.00     0.048 A 
ATOM     24  C   UNL     1       1.475   0.027  -7.739  1.00  0.00     0.008 A 
ATOM     25  Cl  UNL     1       4.735   1.296 -10.591  1.00  0.00    -0.080 Cl
BRANCH  22  26
ATOM     26  O   UNL     1       3.464   2.994  -8.446  1.00  0.00    -0.506 OA
ATOM     27  H   UNL     1       4.194   2.968  -7.799  1.00  0.00     0.293 HD
ENDBRANCH  22  26
ENDBRANCH  18  19
ENDBRANCH  17  18
BRANCH  17  28
ATOM     28  O   UNL     1      -0.476  -3.568  -7.957  1.00  0.00    -0.383 OA
ATOM     29  H   UNL     1       0.147  -4.266  -8.264  1.00  0.00     0.211 HD
ENDBRANCH  17  28
ENDBRANCH  14  17
ENDBRANCH  12  13
BRANCH  12  30
ATOM     30  C   UNL     1      -1.296   0.320 -12.322  1.00  0.00     0.018 C 
ATOM     31  C   UNL     1      -1.183  -0.132 -13.787  1.00  0.00     0.010 C 
BRANCH  30  32
ATOM     32  C   UNL     1       0.106   0.654 -11.758  1.00  0.00     0.002 C 
ATOM     33  C   UNL     1       0.240   2.030 -11.119  1.00  0.00     0.004 C 
ENDBRANCH  30  32
ENDBRANCH  12  30
ENDBRANCH  10  12
ENDBRANCH   1  10
BRANCH   5  34
ATOM     34  C   UNL     1      -3.446  -0.383  -7.871  1.00  0.00     0.242 C 
ATOM     35  O   UNL     1      -2.483   0.383  -7.836  1.00  0.00    -0.273 OA
ATOM     36  N   UNL     1      -3.563  -1.462  -7.024  1.00  0.00    -0.354 N 
ATOM     37  H   UNL     1      -4.319  -2.129  -7.179  1.00  0.00     0.163 HD
BRANCH  36  38
ATOM     38  C   UNL     1      -2.715  -1.628  -5.861  1.00  0.00     0.116 C 
BRANCH  38  39
ATOM     39  C   UNL     1      -3.412  -2.516  -4.834  1.00  0.00     0.023 C 
BRANCH  39  40
ATOM     40  C   UNL     1      -2.648  -3.808  -4.566  1.00  0.00     0.026 C 
BRANCH  40  41
ATOM     41  C   UNL     1      -2.762  -4.211  -3.096  1.00  0.00     0.146 C 
BRANCH  41  42
ATOM     42  N   UNL     1      -1.703  -5.154  -2.760  1.00  0.00    -0.254 NA
ATOM     43  C   UNL     1      -1.842  -5.928  -1.750  1.00  0.00     0.185 C 
ATOM     44  N   UNL     1      -2.860  -6.039  -0.878  1.00  0.00    -0.370 N 
ATOM     45  N   UNL     1      -0.852  -6.787  -1.454  1.00  0.00    -0.370 N 
ATOM     46  H   UNL     1      -2.733  -6.509   0.002  1.00  0.00     0.159 HD
ATOM     47  H   UNL     1      -3.698  -5.472  -0.962  1.00  0.00     0.159 HD
ATOM     48  H   UNL     1      -0.049  -6.774  -2.068  1.00  0.00     0.159 HD
ATOM     49  H   UNL     1      -0.979  -7.573  -0.841  1.00  0.00     0.159 HD
ENDBRANCH  41  42
ENDBRANCH  40  41
ENDBRANCH  39  40
ENDBRANCH  38  39
ENDBRANCH  36  38
ENDBRANCH   5  34
BRANCH   8  50
ATOM     50  O   UNL     1      -4.065  -5.021  -8.680  1.00  0.00    -0.245 OA
BRANCH  50  51
ATOM     51  S   UNL     1      -2.899  -6.153  -8.614  1.00  0.00     0.397 S 
ATOM     52  O   UNL     1      -3.469  -7.406  -9.055  1.00  0.00    -0.169 OA
ATOM     53  O   UNL     1      -2.186  -6.043  -7.358  1.00  0.00    -0.169 OA
BRANCH  51  54
ATOM     54  O   UNL     1      -1.908  -5.683  -9.790  1.00  0.00    -0.264 OA
ATOM     55  H   UNL     1      -1.238  -6.386  -9.914  1.00  0.00     0.236 HD
ENDBRANCH  51  54
ENDBRANCH  50  51
ENDBRANCH   8  50
TORSDOF 19
ENDMDL
MODEL 6
REMARK VINA RESULT:    -6.452      4.046      8.901
REMARK INTER + INTRA:         -17.344
REMARK INTER:                 -14.647
REMARK INTRA:                  -2.698
REMARK UNBOUND:                -4.291
REMARK SMILES CC[C@@H](C)[C@@H](NC(=O)[C@@H](O)Cc1ccc(O)c(Cl)c1)C(=O)N1[C@H](C(=O)NCCCCN=C(N)N)C[C@H]2CC[C@H](OS(=O)(=O)O)C[C@@H]21
REMARK SMILES IDX 22 1 36 2 46 3 35 4 23 5 45 6 37 7 39 8 38 9 20 10 21 11
REMARK SMILES IDX 5 12 6 13 7 14 8 15 9 17 11 18 12 19 17 20 19 21 15 22 14 23
REMARK SMILES IDX 13 24 18 25 16 26 10 28 3 30 4 31 2 32 1 33 24 34 25 35
REMARK SMILES IDX 26 36 27 38 28 39 29 40 30 41 31 42 32 43 33 44 34 45 40 50
REMARK SMILES IDX 41 51 42 52 43 53 44 54
REMARK H PARENT 6 16 16 27 10 29 26 37 33 46 33 47 34 48 34 49 44 55
ROOT
ATOM      1  N   UNL     1      -1.659  -0.746 -11.319  1.00  0.00    -0.326 N 
ATOM      2  C   UNL     1      -1.518   1.519 -11.945  1.00  0.00     0.014 C 
ATOM      3  C   UNL     1      -2.316   0.542 -11.078  1.00  0.00     0.091 C 
ATOM      4  C   UNL     1      -1.148   0.671 -13.152  1.00  0.00     0.041 C 
ATOM      5  C   UNL     1      -0.704  -0.625 -12.448  1.00  0.00     0.175 C 
ATOM      6  C   UNL     1      -2.351   1.081  -9.649  1.00  0.00     0.059 C 
ATOM      7  C   UNL     1      -2.284   2.811 -12.152  1.00  0.00     0.008 C 
ATOM      8  C   UNL     1      -2.338   2.623  -9.567  1.00  0.00     0.143 C 
ATOM      9  C   UNL     1      -2.933   3.276 -10.831  1.00  0.00     0.034 C 
ENDROOT
BRANCH   1  10
ATOM     10  C   UNL     1      -1.957  -2.002 -10.818  1.00  0.00     0.246 C 
ATOM     11  O   UNL     1      -1.141  -2.918 -10.969  1.00  0.00    -0.272 OA
BRANCH  10  12
ATOM     12  C   UNL     1      -3.287  -2.223 -10.042  1.00  0.00     0.174 C 
BRANCH  12  13
ATOM     13  N   UNL     1      -3.092  -3.222  -8.993  1.00  0.00    -0.342 N 
ATOM     14  C   UNL     1      -2.569  -2.966  -7.745  1.00  0.00     0.249 C 
ATOM     15  O   UNL     1      -2.230  -1.853  -7.363  1.00  0.00    -0.272 OA
ATOM     16  H   UNL     1      -3.180  -4.210  -9.216  1.00  0.00     0.164 HD
BRANCH  14  17
ATOM     17  C   UNL     1      -2.473  -4.233  -6.868  1.00  0.00     0.207 C 
BRANCH  17  18
ATOM     18  C   UNL     1      -1.081  -4.345  -6.239  1.00  0.00     0.077 C 
BRANCH  18  19
ATOM     19  C   UNL     1      -1.133  -4.988  -4.871  1.00  0.00    -0.043 A 
ATOM     20  C   UNL     1      -2.217  -5.269  -2.720  1.00  0.00     0.083 A 
ATOM     21  C   UNL     1      -2.198  -4.714  -3.999  1.00  0.00     0.028 A 
ATOM     22  C   UNL     1      -1.175  -6.099  -2.303  1.00  0.00     0.134 A 
ATOM     23  C   UNL     1      -0.114  -6.379  -3.156  1.00  0.00     0.048 A 
ATOM     24  C   UNL     1      -0.091  -5.822  -4.437  1.00  0.00     0.008 A 
ATOM     25  Cl  UNL     1      -3.535  -4.921  -1.663  1.00  0.00    -0.080 Cl
BRANCH  22  26
ATOM     26  O   UNL     1      -1.145  -6.658  -1.054  1.00  0.00    -0.506 OA
ATOM     27  H   UNL     1      -2.027  -7.045  -0.899  1.00  0.00     0.293 HD
ENDBRANCH  22  26
ENDBRANCH  18  19
ENDBRANCH  17  18
BRANCH  17  28
ATOM     28  O   UNL     1      -2.745  -5.416  -7.636  1.00  0.00    -0.383 OA
ATOM     29  H   UNL     1      -2.024  -6.050  -7.423  1.00  0.00     0.211 HD
ENDBRANCH  17  28
ENDBRANCH  14  17
ENDBRANCH  12  13
BRANCH  12  30
ATOM     30  C   UNL     1      -4.477  -2.570 -10.977  1.00  0.00     0.018 C 
ATOM     31  C   UNL     1      -5.323  -1.321 -11.272  1.00  0.00     0.010 C 
BRANCH  30  32
ATOM     32  C   UNL     1      -5.378  -3.708 -10.440  1.00  0.00     0.002 C 
ATOM     33  C   UNL     1      -6.715  -3.263  -9.863  1.00  0.00     0.004 C 
ENDBRANCH  30  32
ENDBRANCH  12  30
ENDBRANCH  10  12
ENDBRANCH   1  10
BRANCH   5  34
ATOM     34  C   UNL     1       0.754  -0.522 -11.927  1.00  0.00     0.242 C 
ATOM     35  O   UNL     1       1.717  -0.404 -12.685  1.00  0.00    -0.273 OA
ATOM     36  N   UNL     1       0.897  -0.627 -10.562  1.00  0.00    -0.354 N 
ATOM     37  H   UNL     1       0.075  -0.845  -9.997  1.00  0.00     0.163 HD
BRANCH  36  38
ATOM     38  C   UNL     1       2.148  -0.340  -9.891  1.00  0.00     0.116 C 
BRANCH  38  39
ATOM     39  C   UNL     1       2.262   1.159  -9.626  1.00  0.00     0.023 C 
BRANCH  39  40
ATOM     40  C   UNL     1       3.616   1.723 -10.043  1.00  0.00     0.026 C 
BRANCH  40  41
ATOM     41  C   UNL     1       4.595   0.596 -10.370  1.00  0.00     0.146 C 
BRANCH  41  42
ATOM     42  N   UNL     1       5.639   1.093 -11.257  1.00  0.00    -0.254 NA
ATOM     43  C   UNL     1       5.557   0.877 -12.516  1.00  0.00     0.185 C 
ATOM     44  N   UNL     1       4.614   0.227 -13.222  1.00  0.00    -0.370 N 
ATOM     45  N   UNL     1       6.532   1.339 -13.315  1.00  0.00    -0.370 N 
ATOM     46  H   UNL     1       4.797  -0.078 -14.163  1.00  0.00     0.159 HD
ATOM     47  H   UNL     1       3.796  -0.175 -12.775  1.00  0.00     0.159 HD
ATOM     48  H   UNL     1       7.279   1.849 -12.863  1.00  0.00     0.159 HD
ATOM     49  H   UNL     1       6.426   1.420 -14.311  1.00  0.00     0.159 HD
ENDBRANCH  41  42
ENDBRANCH  40  41
ENDBRANCH  39  40
ENDBRANCH  38  39
ENDBRANCH  36  38
ENDBRANCH   5  34
BRANCH   8  50
ATOM     50  O   UNL     1      -1.001   3.094  -9.400  1.00  0.00    -0.245 OA
BRANCH  50  51
ATOM     51  S   UNL     1      -0.630   4.021  -8.115  1.00  0.00     0.397 S 
ATOM     52  O   UNL     1       0.381   3.332  -7.345  1.00  0.00    -0.169 OA
ATOM     53  O   UNL     1      -1.847   4.513  -7.504  1.00  0.00    -0.169 OA
BRANCH  51  54
ATOM     54  O   UNL     1       0.118   5.266  -8.805  1.00  0.00    -0.264 OA
ATOM     55  H   UNL     1      -0.003   6.045  -8.224  1.00  0.00     0.236 HD
ENDBRANCH  51  54
ENDBRANCH  50  51
ENDBRANCH   8  50
TORSDOF 19
ENDMDL
MODEL 7
REMARK VINA RESULT:    -6.355     11.097     15.450
REMARK INTER + INTRA:         -17.148
REMARK INTER:                 -12.983
REMARK INTRA:                  -4.165
REMARK UNBOUND:                -4.291
REMARK SMILES CC[C@@H](C)[C@@H](NC(=O)[C@@H](O)Cc1ccc(O)c(Cl)c1)C(=O)N1[C@H](C(=O)NCCCCN=C(N)N)C[C@H]2CC[C@H](OS(=O)(=O)O)C[C@@H]21
REMARK SMILES IDX 22 1 36 2 46 3 35 4 23 5 45 6 37 7 39 8 38 9 20 10 21 11
REMARK SMILES IDX 5 12 6 13 7 14 8 15 9 17 11 18 12 19 17 20 19 21 15 22 14 23
REMARK SMILES IDX 13 24 18 25 16 26 10 28 3 30 4 31 2 32 1 33 24 34 25 35
REMARK SMILES IDX 26 36 27 38 28 39 29 40 30 41 31 42 32 43 33 44 34 45 40 50
REMARK SMILES IDX 41 51 42 52 43 53 44 54
REMARK H PARENT 6 16 16 27 10 29 26 37 33 46 33 47 34 48 34 49 44 55
ROOT
ATOM      1  N   UNL     1      -6.760  -4.117   4.205  1.00  0.00    -0.326 N 
ATOM      2  C   UNL     1      -5.938  -2.139   3.228  1.00  0.00     0.014 C 
ATOM      3  C   UNL     1      -5.571  -3.260   4.204  1.00  0.00     0.091 C 
ATOM      4  C   UNL     1      -7.431  -1.966   3.464  1.00  0.00     0.041 C 
ATOM      5  C   UNL     1      -7.875  -3.440   3.497  1.00  0.00     0.175 C 
ATOM      6  C   UNL     1      -4.241  -3.868   3.763  1.00  0.00     0.059 C 
ATOM      7  C   UNL     1      -5.016  -0.948   3.399  1.00  0.00     0.008 C 
ATOM      8  C   UNL     1      -3.290  -2.858   3.086  1.00  0.00     0.143 C 
ATOM      9  C   UNL     1      -3.552  -1.412   3.554  1.00  0.00     0.034 C 
ENDROOT
BRANCH   1  10
ATOM     10  C   UNL     1      -7.019  -5.277   4.916  1.00  0.00     0.246 C 
ATOM     11  O   UNL     1      -7.118  -6.347   4.305  1.00  0.00    -0.272 OA
BRANCH  10  12
ATOM     12  C   UNL     1      -7.135  -5.216   6.466  1.00  0.00     0.174 C 
BRANCH  12  13
ATOM     13  N   UNL     1      -7.116  -3.824   6.914  1.00  0.00    -0.342 N 
ATOM     14  C   UNL     1      -8.232  -3.074   7.210  1.00  0.00     0.249 C 
ATOM     15  O   UNL     1      -9.377  -3.505   7.157  1.00  0.00    -0.272 OA
ATOM     16  H   UNL     1      -6.254  -3.288   6.854  1.00  0.00     0.164 HD
BRANCH  14  17
ATOM     17  C   UNL     1      -7.884  -1.632   7.638  1.00  0.00     0.207 C 
BRANCH  17  18
ATOM     18  C   UNL     1      -6.586  -1.613   8.451  1.00  0.00     0.077 C 
BRANCH  18  19
ATOM     19  C   UNL     1      -5.690  -0.463   8.051  1.00  0.00    -0.043 A 
ATOM     20  C   UNL     1      -5.055   1.254   6.459  1.00  0.00     0.083 A 
ATOM     21  C   UNL     1      -5.913   0.225   6.848  1.00  0.00     0.028 A 
ATOM     22  C   UNL     1      -3.970   1.601   7.265  1.00  0.00     0.134 A 
ATOM     23  C   UNL     1      -3.737   0.929   8.459  1.00  0.00     0.048 A 
ATOM     24  C   UNL     1      -4.593  -0.103   8.851  1.00  0.00     0.008 A 
ATOM     25  Cl  UNL     1      -5.346   2.087   4.977  1.00  0.00    -0.080 Cl
BRANCH  22  26
ATOM     26  O   UNL     1      -3.096   2.596   6.920  1.00  0.00    -0.506 OA
ATOM     27  H   UNL     1      -3.068   3.217   7.671  1.00  0.00     0.293 HD
ENDBRANCH  22  26
ENDBRANCH  18  19
ENDBRANCH  17  18
BRANCH  17  28
ATOM     28  O   UNL     1      -8.943  -1.054   8.418  1.00  0.00    -0.383 OA
ATOM     29  H   UNL     1      -9.095  -0.155   8.048  1.00  0.00     0.211 HD
ENDBRANCH  17  28
ENDBRANCH  14  17
ENDBRANCH  12  13
BRANCH  12  30
ATOM     30  C   UNL     1      -6.066  -6.083   7.183  1.00  0.00     0.018 C 
ATOM     31  C   UNL     1      -4.818  -6.251   6.302  1.00  0.00     0.010 C 
BRANCH  30  32
ATOM     32  C   UNL     1      -6.589  -7.469   7.633  1.00  0.00     0.002 C 
ATOM     33  C   UNL     1      -5.928  -8.665   6.959  1.00  0.00     0.004 C 
ENDBRANCH  30  32
ENDBRANCH  12  30
ENDBRANCH  10  12
ENDBRANCH   1  10
BRANCH   5  34
ATOM     34  C   UNL     1      -8.049  -4.017   2.066  1.00  0.00     0.242 C 
ATOM     35  O   UNL     1      -7.396  -3.606   1.107  1.00  0.00    -0.273 OA
ATOM     36  N   UNL     1      -9.024  -4.981   1.939  1.00  0.00    -0.354 N 
ATOM     37  H   UNL     1      -9.614  -5.193   2.744  1.00  0.00     0.163 HD
BRANCH  36  38
ATOM     38  C   UNL     1      -9.174  -5.774   0.736  1.00  0.00     0.116 C 
BRANCH  38  39
ATOM     39  C   UNL     1      -8.726  -7.210   1.003  1.00  0.00     0.023 C 
BRANCH  39  40
ATOM     40  C   UNL     1      -7.418  -7.553   0.298  1.00  0.00     0.026 C 
BRANCH  40  41
ATOM     41  C   UNL     1      -6.219  -7.079   1.120  1.00  0.00     0.146 C 
BRANCH  41  42
ATOM     42  N   UNL     1      -5.010  -7.146   0.310  1.00  0.00    -0.254 NA
ATOM     43  C   UNL     1      -4.475  -6.066  -0.120  1.00  0.00     0.185 C 
ATOM     44  N   UNL     1      -4.852  -4.785   0.053  1.00  0.00    -0.370 N 
ATOM     45  N   UNL     1      -3.363  -6.149  -0.869  1.00  0.00    -0.370 N 
ATOM     46  H   UNL     1      -4.485  -4.059  -0.538  1.00  0.00     0.159 HD
ATOM     47  H   UNL     1      -5.667  -4.540   0.606  1.00  0.00     0.159 HD
ATOM     48  H   UNL     1      -3.007  -7.079  -1.040  1.00  0.00     0.159 HD
ATOM     49  H   UNL     1      -2.762  -5.362  -1.039  1.00  0.00     0.159 HD
ENDBRANCH  41  42
ENDBRANCH  40  41
ENDBRANCH  39  40
ENDBRANCH  38  39
ENDBRANCH  36  38
ENDBRANCH   5  34
BRANCH   8  50
ATOM     50  O   UNL     1      -3.449  -2.910   1.668  1.00  0.00    -0.245 OA
BRANCH  50  51
ATOM     51  S   UNL     1      -2.301  -2.273   0.707  1.00  0.00     0.397 S 
ATOM     52  O   UNL     1      -1.037  -2.365   1.401  1.00  0.00    -0.169 OA
ATOM     53  O   UNL     1      -2.773  -1.022   0.150  1.00  0.00    -0.169 OA
BRANCH  51  54
ATOM     54  O   UNL     1      -2.226  -3.349  -0.486  1.00  0.00    -0.264 OA
ATOM     55  H   UNL     1      -1.522  -3.991  -0.264  1.00  0.00     0.236 HD
ENDBRANCH  51  54
ENDBRANCH  50  51
ENDBRANCH   8  50
TORSDOF 19
ENDMDL
MODEL 8
REMARK VINA RESULT:    -6.284      3.730      7.601
REMARK INTER + INTRA:         -17.004
REMARK INTER:                 -14.419
REMARK INTRA:                  -2.585
REMARK UNBOUND:                -4.291
REMARK SMILES CC[C@@H](C)[C@@H](NC(=O)[C@@H](O)Cc1ccc(O)c(Cl)c1)C(=O)N1[C@H](C(=O)NCCCCN=C(N)N)C[C@H]2CC[C@H](OS(=O)(=O)O)C[C@@H]21
REMARK SMILES IDX 22 1 36 2 46 3 35 4 23 5 45 6 37 7 39 8 38 9 20 10 21 11
REMARK SMILES IDX 5 12 6 13 7 14 8 15 9 17 11 18 12 19 17 20 19 21 15 22 14 23
REMARK SMILES IDX 13 24 18 25 16 26 10 28 3 30 4 31 2 32 1 33 24 34 25 35
REMARK SMILES IDX 26 36 27 38 28 39 29 40 30 41 31 42 32 43 33 44 34 45 40 50
REMARK SMILES IDX 41 51 42 52 43 53 44 54
REMARK H PARENT 6 16 16 27 10 29 26 37 33 46 33 47 34 48 34 49 44 55
ROOT
ATOM      1  N   UNL     1       0.248  -1.173  -9.774  1.00  0.00    -0.326 N 
ATOM      2  C   UNL     1       1.139  -0.478  -7.709  1.00  0.00     0.014 C 
ATOM      3  C   UNL     1       0.880  -0.011  -9.144  1.00  0.00     0.091 C 
ATOM      4  C   UNL     1       1.459  -1.953  -7.889  1.00  0.00     0.041 C 
ATOM      5  C   UNL     1       0.351  -2.354  -8.880  1.00  0.00     0.175 C 
ATOM      6  C   UNL     1       0.098   1.300  -9.092  1.00  0.00     0.059 C 
ATOM      7  C   UNL     1       2.144   0.423  -7.019  1.00  0.00     0.008 C 
ATOM      8  C   UNL     1       0.427   2.172  -7.861  1.00  0.00     0.143 C 
ATOM      9  C   UNL     1       1.848   1.906  -7.326  1.00  0.00     0.034 C 
ENDROOT
BRANCH   1  10
ATOM     10  C   UNL     1      -0.193  -1.348 -11.075  1.00  0.00     0.246 C 
ATOM     11  O   UNL     1       0.026  -2.423 -11.644  1.00  0.00    -0.272 OA
BRANCH  10  12
ATOM     12  C   UNL     1      -0.989  -0.209 -11.775  1.00  0.00     0.174 C 
BRANCH  12  13
ATOM     13  N   UNL     1      -2.413  -0.334 -11.467  1.00  0.00    -0.342 N 
ATOM     14  C   UNL     1      -3.214   0.685 -11.004  1.00  0.00     0.249 C 
ATOM     15  O   UNL     1      -2.823   1.832 -10.823  1.00  0.00    -0.272 OA
ATOM     16  H   UNL     1      -2.839  -1.257 -11.419  1.00  0.00     0.164 HD
BRANCH  14  17
ATOM     17  C   UNL     1      -4.670   0.234 -10.756  1.00  0.00     0.207 C 
BRANCH  17  18
ATOM     18  C   UNL     1      -4.998  -1.003 -11.599  1.00  0.00     0.077 C 
BRANCH  18  19
ATOM     19  C   UNL     1      -5.528  -2.136 -10.750  1.00  0.00    -0.043 A 
ATOM     20  C   UNL     1      -5.224  -4.309  -9.716  1.00  0.00     0.083 A 
ATOM     21  C   UNL     1      -4.715  -3.242 -10.457  1.00  0.00     0.028 A 
ATOM     22  C   UNL     1      -6.544  -4.279  -9.265  1.00  0.00     0.134 A 
ATOM     23  C   UNL     1      -7.360  -3.190  -9.548  1.00  0.00     0.048 A 
ATOM     24  C   UNL     1      -6.854  -2.122 -10.291  1.00  0.00     0.008 A 
ATOM     25  Cl  UNL     1      -4.210  -5.659  -9.366  1.00  0.00    -0.080 Cl
BRANCH  22  26
ATOM     26  O   UNL     1      -7.090  -5.306  -8.543  1.00  0.00    -0.506 OA
ATOM     27  H   UNL     1      -6.768  -6.134  -8.946  1.00  0.00     0.293 HD
ENDBRANCH  22  26
ENDBRANCH  18  19
ENDBRANCH  17  18
BRANCH  17  28
ATOM     28  O   UNL     1      -5.598   1.285 -11.070  1.00  0.00    -0.383 OA
ATOM     29  H   UNL     1      -6.493   0.921 -10.885  1.00  0.00     0.211 HD
ENDBRANCH  17  28
ENDBRANCH  14  17
ENDBRANCH  12  13
BRANCH  12  30
ATOM     30  C   UNL     1      -0.717  -0.137 -13.301  1.00  0.00     0.018 C 
ATOM     31  C   UNL     1       0.788  -0.246 -13.594  1.00  0.00     0.010 C 
BRANCH  30  32
ATOM     32  C   UNL     1      -1.301   1.127 -13.978  1.00  0.00     0.002 C 
ATOM     33  C   UNL     1      -0.548   2.421 -13.698  1.00  0.00     0.004 C 
ENDBRANCH  30  32
ENDBRANCH  12  30
ENDBRANCH  10  12
ENDBRANCH   1  10
BRANCH   5  34
ATOM     34  C   UNL     1      -0.997  -2.615  -8.156  1.00  0.00     0.242 C 
ATOM     35  O   UNL     1      -2.035  -2.030  -8.467  1.00  0.00    -0.273 OA
ATOM     36  N   UNL     1      -0.936  -3.506  -7.109  1.00  0.00    -0.354 N 
ATOM     37  H   UNL     1      -0.025  -3.867  -6.823  1.00  0.00     0.163 HD
BRANCH  36  38
ATOM     38  C   UNL     1      -2.125  -4.028  -6.466  1.00  0.00     0.116 C 
BRANCH  38  39
ATOM     39  C   UNL     1      -1.800  -5.344  -5.764  1.00  0.00     0.023 C 
BRANCH  39  40
ATOM     40  C   UNL     1      -0.413  -5.339  -5.130  1.00  0.00     0.026 C 
BRANCH  40  41
ATOM     41  C   UNL     1      -0.451  -5.971  -3.739  1.00  0.00     0.146 C 
BRANCH  41  42
ATOM     42  N   UNL     1      -1.418  -5.269  -2.905  1.00  0.00    -0.254 NA
ATOM     43  C   UNL     1      -1.606  -5.648  -1.697  1.00  0.00     0.185 C 
ATOM     44  N   UNL     1      -1.032  -6.649  -1.005  1.00  0.00    -0.370 N 
ATOM     45  N   UNL     1      -2.505  -4.990  -0.947  1.00  0.00    -0.370 N 
ATOM     46  H   UNL     1      -1.447  -6.987  -0.153  1.00  0.00     0.159 HD
ATOM     47  H   UNL     1      -0.318  -7.241  -1.417  1.00  0.00     0.159 HD
ATOM     48  H   UNL     1      -2.978  -4.214  -1.390  1.00  0.00     0.159 HD
ATOM     49  H   UNL     1      -2.539  -5.067   0.054  1.00  0.00     0.159 HD
ENDBRANCH  41  42
ENDBRANCH  40  41
ENDBRANCH  39  40
ENDBRANCH  38  39
ENDBRANCH  36  38
ENDBRANCH   5  34
BRANCH   8  50
ATOM     50  O   UNL     1      -0.508   1.913  -6.813  1.00  0.00    -0.245 OA
BRANCH  50  51
ATOM     51  S   UNL     1      -1.305   3.152  -6.123  1.00  0.00     0.397 S 
ATOM     52  O   UNL     1      -2.216   3.698  -7.104  1.00  0.00    -0.169 OA
ATOM     53  O   UNL     1      -0.369   3.992  -5.405  1.00  0.00    -0.169 OA
BRANCH  51  54
ATOM     54  O   UNL     1      -2.226   2.398  -5.042  1.00  0.00    -0.264 OA
ATOM     55  H   UNL     1      -2.967   1.976  -5.523  1.00  0.00     0.236 HD
ENDBRANCH  51  54
ENDBRANCH  50  51
ENDBRANCH   8  50
TORSDOF 19
ENDMDL
MODEL 9
REMARK VINA RESULT:    -6.276     13.766     17.293
REMARK INTER + INTRA:         -16.988
REMARK INTER:                 -12.663
REMARK INTRA:                  -4.325
REMARK UNBOUND:                -4.291
REMARK SMILES CC[C@@H](C)[C@@H](NC(=O)[C@@H](O)Cc1ccc(O)c(Cl)c1)C(=O)N1[C@H](C(=O)NCCCCN=C(N)N)C[C@H]2CC[C@H](OS(=O)(=O)O)C[C@@H]21
REMARK SMILES IDX 22 1 36 2 46 3 35 4 23 5 45 6 37 7 39 8 38 9 20 10 21 11
REMARK SMILES IDX 5 12 6 13 7 14 8 15 9 17 11 18 12 19 17 20 19 21 15 22 14 23
REMARK SMILES IDX 13 24 18 25 16 26 10 28 3 30 4 31 2 32 1 33 24 34 25 35
REMARK SMILES IDX 26 36 27 38 28 39 29 40 30 41 31 42 32 43 33 44 34 45 40 50
REMARK SMILES IDX 41 51 42 52 43 53 44 54
REMARK H PARENT 6 16 16 27 10 29 26 37 33 46 33 47 34 48 34 49 44 55
ROOT
ATOM      1  N   UNL     1      -9.824  -6.311   7.279  1.00  0.00    -0.326 N 
ATOM      2  C   UNL     1      -9.703  -8.013   8.901  1.00  0.00     0.014 C 
ATOM      3  C   UNL     1      -9.977  -7.762   7.415  1.00  0.00     0.091 C 
ATOM      4  C   UNL     1     -10.278  -6.770   9.561  1.00  0.00     0.041 C 
ATOM      5  C   UNL     1      -9.730  -5.682   8.619  1.00  0.00     0.175 C 
ATOM      6  C   UNL     1      -9.059  -8.668   6.595  1.00  0.00     0.059 C 
ATOM      7  C   UNL     1     -10.207  -9.379   9.322  1.00  0.00     0.008 C 
ATOM      8  C   UNL     1      -8.738 -10.013   7.282  1.00  0.00     0.143 C 
ATOM      9  C   UNL     1      -9.848 -10.442   8.262  1.00  0.00     0.034 C 
ENDROOT
BRANCH   1  10
ATOM     10  C   UNL     1      -9.972  -5.504   6.163  1.00  0.00     0.246 C 
ATOM     11  O   UNL     1     -10.923  -4.717   6.113  1.00  0.00    -0.272 OA
BRANCH  10  12
ATOM     12  C   UNL     1      -8.918  -5.574   5.021  1.00  0.00     0.174 C 
BRANCH  12  13
ATOM     13  N   UNL     1      -7.585  -5.295   5.554  1.00  0.00    -0.342 N 
ATOM     14  C   UNL     1      -6.482  -6.103   5.388  1.00  0.00     0.249 C 
ATOM     15  O   UNL     1      -6.490  -7.143   4.742  1.00  0.00    -0.272 OA
ATOM     16  H   UNL     1      -7.461  -4.553   6.238  1.00  0.00     0.164 HD
BRANCH  14  17
ATOM     17  C   UNL     1      -5.224  -5.544   6.086  1.00  0.00     0.207 C 
BRANCH  17  18
ATOM     18  C   UNL     1      -4.194  -5.086   5.049  1.00  0.00     0.077 C 
BRANCH  18  19
ATOM     19  C   UNL     1      -4.360  -3.624   4.699  1.00  0.00    -0.043 A 
ATOM     20  C   UNL     1      -3.778  -1.711   3.326  1.00  0.00     0.083 A 
ATOM     21  C   UNL     1      -3.661  -3.071   3.615  1.00  0.00     0.028 A 
ATOM     22  C   UNL     1      -4.590  -0.897   4.116  1.00  0.00     0.134 A 
ATOM     23  C   UNL     1      -5.287  -1.431   5.193  1.00  0.00     0.048 A 
ATOM     24  C   UNL     1      -5.171  -2.792   5.486  1.00  0.00     0.008 A 
ATOM     25  Cl  UNL     1      -2.912  -1.051   1.989  1.00  0.00    -0.080 Cl
BRANCH  22  26
ATOM     26  O   UNL     1      -4.727   0.444   3.878  1.00  0.00    -0.506 OA
ATOM     27  H   UNL     1      -3.982   0.886   4.325  1.00  0.00     0.293 HD
ENDBRANCH  22  26
ENDBRANCH  18  19
ENDBRANCH  17  18
BRANCH  17  28
ATOM     28  O   UNL     1      -4.629  -6.530   6.946  1.00  0.00    -0.383 OA
ATOM     29  H   UNL     1      -5.194  -7.332   6.872  1.00  0.00     0.211 HD
ENDBRANCH  17  28
ENDBRANCH  14  17
ENDBRANCH  12  13
BRANCH  12  30
ATOM     30  C   UNL     1      -9.276  -4.662   3.817  1.00  0.00     0.018 C 
ATOM     31  C   UNL     1      -9.072  -5.406   2.488  1.00  0.00     0.010 C 
BRANCH  30  32
ATOM     32  C   UNL     1      -8.503  -3.321   3.801  1.00  0.00     0.002 C 
ATOM     33  C   UNL     1      -7.613  -3.097   2.585  1.00  0.00     0.004 C 
ENDBRANCH  30  32
ENDBRANCH  12  30
ENDBRANCH  10  12
ENDBRANCH   1  10
BRANCH   5  34
ATOM     34  C   UNL     1      -8.258  -5.323   8.956  1.00  0.00     0.242 C 
ATOM     35  O   UNL     1      -7.316  -6.057   8.658  1.00  0.00    -0.273 OA
ATOM     36  N   UNL     1      -8.087  -4.151   9.658  1.00  0.00    -0.354 N 
ATOM     37  H   UNL     1      -8.914  -3.646   9.981  1.00  0.00     0.163 HD
BRANCH  36  38
ATOM     38  C   UNL     1      -6.783  -3.557   9.866  1.00  0.00     0.116 C 
BRANCH  38  39
ATOM     39  C   UNL     1      -6.924  -2.049  10.056  1.00  0.00     0.023 C 
BRANCH  39  40
ATOM     40  C   UNL     1      -6.619  -1.269   8.782  1.00  0.00     0.026 C 
BRANCH  40  41
ATOM     41  C   UNL     1      -5.233  -0.628   8.858  1.00  0.00     0.146 C 
BRANCH  41  42
ATOM     42  N   UNL     1      -5.279   0.713   8.289  1.00  0.00    -0.254 NA
ATOM     43  C   UNL     1      -5.010   1.723   9.028  1.00  0.00     0.185 C 
ATOM     44  N   UNL     1      -4.667   1.778  10.328  1.00  0.00    -0.370 N 
ATOM     45  N   UNL     1      -5.062   2.951   8.486  1.00  0.00    -0.370 N 
ATOM     46  H   UNL     1      -4.724   2.643  10.837  1.00  0.00     0.159 HD
ATOM     47  H   UNL     1      -4.567   0.937  10.889  1.00  0.00     0.159 HD
ATOM     48  H   UNL     1      -5.306   2.998   7.506  1.00  0.00     0.159 HD
ATOM     49  H   UNL     1      -4.644   3.755   8.919  1.00  0.00     0.159 HD
ENDBRANCH  41  42
ENDBRANCH  40  41
ENDBRANCH  39  40
ENDBRANCH  38  39
ENDBRANCH  36  38
ENDBRANCH   5  34
BRANCH   8  50
ATOM     50  O   UNL     1      -7.510  -9.914   8.004  1.00  0.00    -0.245 OA
BRANCH  50  51
ATOM     51  S   UNL     1      -6.148 -10.524   7.358  1.00  0.00     0.397 S 
ATOM     52  O   UNL     1      -6.511 -11.272   6.175  1.00  0.00    -0.169 OA
ATOM     53  O   UNL     1      -5.332 -11.105   8.403  1.00  0.00    -0.169 OA
BRANCH  51  54
ATOM     54  O   UNL     1      -5.405  -9.200   6.828  1.00  0.00    -0.264 OA
ATOM     55  H   UNL     1      -6.063  -8.475   6.811  1.00  0.00     0.236 HD
ENDBRANCH  51  54
ENDBRANCH  50  51
ENDBRANCH   8  50
TORSDOF 19
ENDMDL
MODEL 10
REMARK VINA RESULT:    -6.210      2.326      3.151
REMARK INTER + INTRA:         -16.855
REMARK INTER:                 -12.694
REMARK INTRA:                  -4.161
REMARK UNBOUND:                -4.291
REMARK SMILES CC[C@@H](C)[C@@H](NC(=O)[C@@H](O)Cc1ccc(O)c(Cl)c1)C(=O)N1[C@H](C(=O)NCCCCN=C(N)N)C[C@H]2CC[C@H](OS(=O)(=O)O)C[C@@H]21
REMARK SMILES IDX 22 1 36 2 46 3 35 4 23 5 45 6 37 7 39 8 38 9 20 10 21 11
REMARK SMILES IDX 5 12 6 13 7 14 8 15 9 17 11 18 12 19 17 20 19 21 15 22 14 23
REMARK SMILES IDX 13 24 18 25 16 26 10 28 3 30 4 31 2 32 1 33 24 34 25 35
REMARK SMILES IDX 26 36 27 38 28 39 29 40 30 41 31 42 32 43 33 44 34 45 40 50
REMARK SMILES IDX 41 51 42 52 43 53 44 54
REMARK H PARENT 6 16 16 27 10 29 26 37 33 46 33 47 34 48 34 49 44 55
ROOT
ATOM      1  N   UNL     1      -4.531  -2.315 -10.393  1.00  0.00    -0.326 N 
ATOM      2  C   UNL     1      -5.189  -4.191  -9.131  1.00  0.00     0.014 C 
ATOM      3  C   UNL     1      -4.291  -3.758 -10.294  1.00  0.00     0.091 C 
ATOM      4  C   UNL     1      -6.393  -3.273  -9.279  1.00  0.00     0.041 C 
ATOM      5  C   UNL     1      -5.683  -1.932  -9.540  1.00  0.00     0.175 C 
ATOM      6  C   UNL     1      -2.869  -4.238 -10.010  1.00  0.00     0.059 C 
ATOM      7  C   UNL     1      -5.394  -5.693  -9.135  1.00  0.00     0.008 C 
ATOM      8  C   UNL     1      -2.806  -5.556  -9.209  1.00  0.00     0.143 C 
ATOM      9  C   UNL     1      -4.064  -6.423  -9.420  1.00  0.00     0.034 C 
ENDROOT
BRANCH   1  10
ATOM     10  C   UNL     1      -4.008  -1.387 -11.277  1.00  0.00     0.246 C 
ATOM     11  O   UNL     1      -4.780  -0.696 -11.950  1.00  0.00    -0.272 OA
BRANCH  10  12
ATOM     12  C   UNL     1      -2.465  -1.204 -11.373  1.00  0.00     0.174 C 
BRANCH  12  13
ATOM     13  N   UNL     1      -1.941  -0.713 -10.099  1.00  0.00    -0.342 N 
ATOM     14  C   UNL     1      -0.801  -1.177  -9.482  1.00  0.00     0.249 C 
ATOM     15  O   UNL     1      -0.077  -2.046  -9.952  1.00  0.00    -0.272 OA
ATOM     16  H   UNL     1      -2.515  -0.107  -9.519  1.00  0.00     0.164 HD
BRANCH  14  17
ATOM     17  C   UNL     1      -0.521  -0.470  -8.139  1.00  0.00     0.207 C 
BRANCH  17  18
ATOM     18  C   UNL     1       0.911  -0.754  -7.673  1.00  0.00     0.077 C 
BRANCH  18  19
ATOM     19  C   UNL     1       1.742   0.507  -7.610  1.00  0.00    -0.043 A 
ATOM     20  C   UNL     1       2.502   2.466  -6.398  1.00  0.00     0.083 A 
ATOM     21  C   UNL     1       1.773   1.277  -6.436  1.00  0.00     0.028 A 
ATOM     22  C   UNL     1       3.201   2.894  -7.527  1.00  0.00     0.134 A 
ATOM     23  C   UNL     1       3.178   2.142  -8.696  1.00  0.00     0.048 A 
ATOM     24  C   UNL     1       2.449   0.952  -8.738  1.00  0.00     0.008 A 
ATOM     25  Cl  UNL     1       2.528   3.399  -4.947  1.00  0.00    -0.080 Cl
BRANCH  22  26
ATOM     26  O   UNL     1       3.920   4.058  -7.541  1.00  0.00    -0.506 OA
ATOM     27  H   UNL     1       3.705   4.511  -8.377  1.00  0.00     0.293 HD
ENDBRANCH  22  26
ENDBRANCH  18  19
ENDBRANCH  17  18
BRANCH  17  28
ATOM     28  O   UNL     1      -1.446  -0.897  -7.126  1.00  0.00    -0.383 OA
ATOM     29  H   UNL     1      -1.172  -1.809  -6.875  1.00  0.00     0.211 HD
ENDBRANCH  17  28
ENDBRANCH  14  17
ENDBRANCH  12  13
BRANCH  12  30
ATOM     30  C   UNL     1      -2.040  -0.313 -12.572  1.00  0.00     0.018 C 
ATOM     31  C   UNL     1      -0.680  -0.760 -13.130  1.00  0.00     0.010 C 
BRANCH  30  32
ATOM     32  C   UNL     1      -2.009   1.199 -12.242  1.00  0.00     0.002 C 
ATOM     33  C   UNL     1      -1.246   2.066 -13.235  1.00  0.00     0.004 C 
ENDBRANCH  30  32
ENDBRANCH  12  30
ENDBRANCH  10  12
ENDBRANCH   1  10
BRANCH   5  34
ATOM     34  C   UNL     1      -5.198  -1.275  -8.221  1.00  0.00     0.242 C 
ATOM     35  O   UNL     1      -4.172  -0.597  -8.162  1.00  0.00    -0.273 OA
ATOM     36  N   UNL     1      -5.967  -1.549  -7.112  1.00  0.00    -0.354 N 
ATOM     37  H   UNL     1      -6.736  -2.215  -7.200  1.00  0.00     0.163 HD
BRANCH  36  38
ATOM     38  C   UNL     1      -5.787  -0.853  -5.855  1.00  0.00     0.116 C 
BRANCH  38  39
ATOM     39  C   UNL     1      -5.478  -1.855  -4.746  1.00  0.00     0.023 C 
BRANCH  39  40
ATOM     40  C   UNL     1      -4.426  -1.339  -3.771  1.00  0.00     0.026 C 
BRANCH  40  41
ATOM     41  C   UNL     1      -3.049  -1.913  -4.103  1.00  0.00     0.146 C 
BRANCH  41  42
ATOM     42  N   UNL     1      -3.102  -3.369  -4.070  1.00  0.00    -0.254 NA
ATOM     43  C   UNL     1      -2.750  -3.991  -3.008  1.00  0.00     0.185 C 
ATOM     44  N   UNL     1      -2.309  -3.512  -1.830  1.00  0.00    -0.370 N 
ATOM     45  N   UNL     1      -2.801  -5.333  -2.998  1.00  0.00    -0.370 N 
ATOM     46  H   UNL     1      -1.839  -4.113  -1.175  1.00  0.00     0.159 HD
ATOM     47  H   UNL     1      -2.221  -2.515  -1.660  1.00  0.00     0.159 HD
ATOM     48  H   UNL     1      -3.132  -5.775  -3.845  1.00  0.00     0.159 HD
ATOM     49  H   UNL     1      -2.774  -5.873  -2.151  1.00  0.00     0.159 HD
ENDBRANCH  41  42
ENDBRANCH  40  41
ENDBRANCH  39  40
ENDBRANCH  38  39
ENDBRANCH  36  38
ENDBRANCH   5  34
BRANCH   8  50
ATOM     50  O   UNL     1      -2.676  -5.277  -7.815  1.00  0.00    -0.245 OA
BRANCH  50  51
ATOM     51  S   UNL     1      -1.196  -5.204  -7.145  1.00  0.00     0.397 S 
ATOM     52  O   UNL     1      -0.817  -3.812  -7.050  1.00  0.00    -0.169 OA
ATOM     53  O   UNL     1      -0.331  -6.186  -7.767  1.00  0.00    -0.169 OA
BRANCH  51  54
ATOM     54  O   UNL     1      -1.485  -5.683  -5.638  1.00  0.00    -0.264 OA
ATOM     55  H   UNL     1      -0.849  -5.224  -5.051  1.00  0.00     0.236 HD
ENDBRANCH  51  54
ENDBRANCH  50  51
ENDBRANCH   8  50
TORSDOF 19
ENDMDL
MODEL 11
REMARK VINA RESULT:    -6.206      4.175      8.842
REMARK INTER + INTRA:         -16.846
REMARK INTER:                 -14.384
REMARK INTRA:                  -2.462
REMARK UNBOUND:                -4.291
REMARK SMILES CC[C@@H](C)[C@@H](NC(=O)[C@@H](O)Cc1ccc(O)c(Cl)c1)C(=O)N1[C@H](C(=O)NCCCCN=C(N)N)C[C@H]2CC[C@H](OS(=O)(=O)O)C[C@@H]21
REMARK SMILES IDX 22 1 36 2 46 3 35 4 23 5 45 6 37 7 39 8 38 9 20 10 21 11
REMARK SMILES IDX 5 12 6 13 7 14 8 15 9 17 11 18 12 19 17 20 19 21 15 22 14 23
REMARK SMILES IDX 13 24 18 25 16 26 10 28 3 30 4 31 2 32 1 33 24 34 25 35
REMARK SMILES IDX 26 36 27 38 28 39 29 40 30 41 31 42 32 43 33 44 34 45 40 50
REMARK SMILES IDX 41 51 42 52 43 53 44 54
REMARK H PARENT 6 16 16 27 10 29 26 37 33 46 33 47 34 48 34 49 44 55
ROOT
ATOM      1  N   UNL     1      -2.390  -0.269  -9.511  1.00  0.00    -0.326 N 
ATOM      2  C   UNL     1      -3.950  -0.171 -11.271  1.00  0.00     0.014 C 
ATOM      3  C   UNL     1      -3.836  -0.292  -9.749  1.00  0.00     0.091 C 
ATOM      4  C   UNL     1      -2.733  -0.940 -11.761  1.00  0.00     0.041 C 
ATOM      5  C   UNL     1      -1.662  -0.396 -10.798  1.00  0.00     0.175 C 
ATOM      6  C   UNL     1      -4.692   0.801  -9.112  1.00  0.00     0.059 C 
ATOM      7  C   UNL     1      -5.330  -0.583 -11.745  1.00  0.00     0.008 C 
ATOM      8  C   UNL     1      -5.943   1.171  -9.938  1.00  0.00     0.143 C 
ATOM      9  C   UNL     1      -6.420   0.001 -10.822  1.00  0.00     0.034 C 
ENDROOT
BRANCH   1  10
ATOM     10  C   UNL     1      -1.684  -0.364  -8.324  1.00  0.00     0.246 C 
ATOM     11  O   UNL     1      -2.096   0.241  -7.329  1.00  0.00    -0.272 OA
BRANCH  10  12
ATOM     12  C   UNL     1      -0.414  -1.262  -8.257  1.00  0.00     0.174 C 
BRANCH  12  13
ATOM     13  N   UNL     1      -0.722  -2.510  -7.560  1.00  0.00    -0.342 N 
ATOM     14  C   UNL     1      -1.161  -3.666  -8.166  1.00  0.00     0.249 C 
ATOM     15  O   UNL     1      -1.317  -3.785  -9.375  1.00  0.00    -0.272 OA
ATOM     16  H   UNL     1      -0.790  -2.517  -6.545  1.00  0.00     0.164 HD
BRANCH  14  17
ATOM     17  C   UNL     1      -1.417  -4.807  -7.159  1.00  0.00     0.207 C 
BRANCH  17  18
ATOM     18  C   UNL     1      -0.279  -4.882  -6.135  1.00  0.00     0.077 C 
BRANCH  18  19
ATOM     19  C   UNL     1      -0.788  -5.230  -4.754  1.00  0.00    -0.043 A 
ATOM     20  C   UNL     1      -2.404  -4.926  -2.971  1.00  0.00     0.083 A 
ATOM     21  C   UNL     1      -1.964  -4.641  -4.264  1.00  0.00     0.028 A 
ATOM     22  C   UNL     1      -1.673  -5.796  -2.161  1.00  0.00     0.134 A 
ATOM     23  C   UNL     1      -0.507  -6.386  -2.633  1.00  0.00     0.048 A 
ATOM     24  C   UNL     1      -0.063  -6.102  -3.927  1.00  0.00     0.008 A 
ATOM     25  Cl  UNL     1      -3.851  -4.193  -2.386  1.00  0.00    -0.080 Cl
BRANCH  22  26
ATOM     26  O   UNL     1      -2.059  -6.098  -0.882  1.00  0.00    -0.506 OA
ATOM     27  H   UNL     1      -2.939  -5.697  -0.754  1.00  0.00     0.293 HD
ENDBRANCH  22  26
ENDBRANCH  18  19
ENDBRANCH  17  18
BRANCH  17  28
ATOM     28  O   UNL     1      -1.539  -6.072  -7.829  1.00  0.00    -0.383 OA
ATOM     29  H   UNL     1      -1.955  -5.879  -8.700  1.00  0.00     0.211 HD
ENDBRANCH  17  28
ENDBRANCH  14  17
ENDBRANCH  12  13
BRANCH  12  30
ATOM     30  C   UNL     1       0.808  -0.527  -7.643  1.00  0.00     0.018 C 
ATOM     31  C   UNL     1       1.123   0.757  -8.425  1.00  0.00     0.010 C 
BRANCH  30  32
ATOM     32  C   UNL     1       2.076  -1.410  -7.538  1.00  0.00     0.002 C 
ATOM     33  C   UNL     1       2.995  -1.377  -8.752  1.00  0.00     0.004 C 
ENDBRANCH  30  32
ENDBRANCH  12  30
ENDBRANCH  10  12
ENDBRANCH   1  10
BRANCH   5  34
ATOM     34  C   UNL     1      -1.122   0.983 -11.263  1.00  0.00     0.242 C 
ATOM     35  O   UNL     1      -1.467   2.038 -10.730  1.00  0.00    -0.273 OA
ATOM     36  N   UNL     1      -0.274   0.945 -12.347  1.00  0.00    -0.354 N 
ATOM     37  H   UNL     1      -0.120   0.054 -12.819  1.00  0.00     0.163 HD
BRANCH  36  38
ATOM     38  C   UNL     1       0.485   2.102 -12.775  1.00  0.00     0.116 C 
BRANCH  38  39
ATOM     39  C   UNL     1       1.564   1.675 -13.768  1.00  0.00     0.023 C 
BRANCH  39  40
ATOM     40  C   UNL     1       2.077   0.264 -13.499  1.00  0.00     0.026 C 
BRANCH  40  41
ATOM     41  C   UNL     1       3.586   0.274 -13.253  1.00  0.00     0.146 C 
BRANCH  41  42
ATOM     42  N   UNL     1       4.072   1.647 -13.228  1.00  0.00    -0.254 NA
ATOM     43  C   UNL     1       5.316   1.882 -13.417  1.00  0.00     0.185 C 
ATOM     44  N   UNL     1       6.331   1.031 -13.653  1.00  0.00    -0.370 N 
ATOM     45  N   UNL     1       5.745   3.155 -13.386  1.00  0.00    -0.370 N 
ATOM     46  H   UNL     1       7.286   1.327 -13.538  1.00  0.00     0.159 HD
ATOM     47  H   UNL     1       6.182   0.029 -13.722  1.00  0.00     0.159 HD
ATOM     48  H   UNL     1       5.041   3.861 -13.222  1.00  0.00     0.159 HD
ATOM     49  H   UNL     1       6.636   3.437 -13.753  1.00  0.00     0.159 HD
ENDBRANCH  41  42
ENDBRANCH  40  41
ENDBRANCH  39  40
ENDBRANCH  38  39
ENDBRANCH  36  38
ENDBRANCH   5  34
BRANCH   8  50
ATOM     50  O   UNL     1      -5.661   2.290 -10.779  1.00  0.00    -0.245 OA
BRANCH  50  51
ATOM     51  S   UNL     1      -6.573   3.632 -10.661  1.00  0.00     0.397 S 
ATOM     52  O   UNL     1      -5.685   4.772 -10.619  1.00  0.00    -0.169 OA
ATOM     53  O   UNL     1      -7.603   3.434  -9.663  1.00  0.00    -0.169 OA
BRANCH  51  54
ATOM     54  O   UNL     1      -7.282   3.683 -12.103  1.00  0.00    -0.264 OA
ATOM     55  H   UNL     1      -7.248   2.782 -12.485  1.00  0.00     0.236 HD
ENDBRANCH  51  54
ENDBRANCH  50  51
ENDBRANCH   8  50
TORSDOF 19
ENDMDL
MODEL 12
REMARK VINA RESULT:    -6.197      4.245      9.144
REMARK INTER + INTRA:         -16.828
REMARK INTER:                 -12.418
REMARK INTRA:                  -4.409
REMARK UNBOUND:                -4.291
REMARK SMILES CC[C@@H](C)[C@@H](NC(=O)[C@@H](O)Cc1ccc(O)c(Cl)c1)C(=O)N1[C@H](C(=O)NCCCCN=C(N)N)C[C@H]2CC[C@H](OS(=O)(=O)O)C[C@@H]21
REMARK SMILES IDX 22 1 36 2 46 3 35 4 23 5 45 6 37 7 39 8 38 9 20 10 21 11
REMARK SMILES IDX 5 12 6 13 7 14 8 15 9 17 11 18 12 19 17 20 19 21 15 22 14 23
REMARK SMILES IDX 13 24 18 25 16 26 10 28 3 30 4 31 2 32 1 33 24 34 25 35
REMARK SMILES IDX 26 36 27 38 28 39 29 40 30 41 31 42 32 43 33 44 34 45 40 50
REMARK SMILES IDX 41 51 42 52 43 53 44 54
REMARK H PARENT 6 16 16 27 10 29 26 37 33 46 33 47 34 48 34 49 44 55
ROOT
ATOM      1  N   UNL     1       1.619  -0.066 -11.342  1.00  0.00    -0.326 N 
ATOM      2  C   UNL     1       3.632   0.771 -10.454  1.00  0.00     0.014 C 
ATOM      3  C   UNL     1       2.888   0.528 -11.770  1.00  0.00     0.091 C 
ATOM      4  C   UNL     1       3.191  -0.406  -9.598  1.00  0.00     0.041 C 
ATOM      5  C   UNL     1       1.681  -0.412  -9.900  1.00  0.00     0.175 C 
ATOM      6  C   UNL     1       2.847   1.841 -12.551  1.00  0.00     0.059 C 
ATOM      7  C   UNL     1       5.111   0.998 -10.700  1.00  0.00     0.008 C 
ATOM      8  C   UNL     1       4.077   2.744 -12.314  1.00  0.00     0.143 C 
ATOM      9  C   UNL     1       5.323   1.930 -11.911  1.00  0.00     0.034 C 
ENDROOT
BRANCH   1  10
ATOM     10  C   UNL     1       0.548  -0.513 -12.098  1.00  0.00     0.246 C 
ATOM     11  O   UNL     1       0.737  -0.838 -13.275  1.00  0.00    -0.272 OA
BRANCH  10  12
ATOM     12  C   UNL     1      -0.856  -0.638 -11.439  1.00  0.00     0.174 C 
BRANCH  12  13
ATOM     13  N   UNL     1      -1.199  -2.048 -11.258  1.00  0.00    -0.342 N 
ATOM     14  C   UNL     1      -1.304  -2.685 -10.042  1.00  0.00     0.249 C 
ATOM     15  O   UNL     1      -1.148  -2.127  -8.963  1.00  0.00    -0.272 OA
ATOM     16  H   UNL     1      -1.203  -2.673 -12.060  1.00  0.00     0.164 HD
BRANCH  14  17
ATOM     17  C   UNL     1      -1.663  -4.180 -10.182  1.00  0.00     0.207 C 
BRANCH  17  18
ATOM     18  C   UNL     1      -2.516  -4.640  -8.995  1.00  0.00     0.077 C 
BRANCH  18  19
ATOM     19  C   UNL     1      -3.944  -4.156  -9.109  1.00  0.00    -0.043 A 
ATOM     20  C   UNL     1      -5.843  -2.972  -8.173  1.00  0.00     0.083 A 
ATOM     21  C   UNL     1      -4.510  -3.376  -8.089  1.00  0.00     0.028 A 
ATOM     22  C   UNL     1      -6.617  -3.345  -9.273  1.00  0.00     0.134 A 
ATOM     23  C   UNL     1      -6.069  -4.117 -10.290  1.00  0.00     0.048 A 
ATOM     24  C   UNL     1      -4.735  -4.524 -10.208  1.00  0.00     0.008 A 
ATOM     25  Cl  UNL     1      -6.522  -2.014  -6.910  1.00  0.00    -0.080 Cl
BRANCH  22  26
ATOM     26  O   UNL     1      -7.931  -2.982  -9.395  1.00  0.00    -0.506 OA
ATOM     27  H   UNL     1      -7.949  -2.009  -9.451  1.00  0.00     0.293 HD
ENDBRANCH  22  26
ENDBRANCH  18  19
ENDBRANCH  17  18
BRANCH  17  28
ATOM     28  O   UNL     1      -0.479  -4.991 -10.261  1.00  0.00    -0.383 OA
ATOM     29  H   UNL     1      -0.610  -5.590 -11.030  1.00  0.00     0.211 HD
ENDBRANCH  17  28
ENDBRANCH  14  17
ENDBRANCH  12  13
BRANCH  12  30
ATOM     30  C   UNL     1      -1.953   0.143 -12.213  1.00  0.00     0.018 C 
ATOM     31  C   UNL     1      -1.508   1.590 -12.479  1.00  0.00     0.010 C 
BRANCH  30  32
ATOM     32  C   UNL     1      -3.334   0.131 -11.514  1.00  0.00     0.002 C 
ATOM     33  C   UNL     1      -4.352  -0.838 -12.100  1.00  0.00     0.004 C 
ENDBRANCH  30  32
ENDBRANCH  12  30
ENDBRANCH  10  12
ENDBRANCH   1  10
BRANCH   5  34
ATOM     34  C   UNL     1       0.923   0.641  -9.049  1.00  0.00     0.242 C 
ATOM     35  O   UNL     1       0.632   1.755  -9.486  1.00  0.00    -0.273 OA
ATOM     36  N   UNL     1       0.647   0.260  -7.755  1.00  0.00    -0.354 N 
ATOM     37  H   UNL     1       1.019  -0.628  -7.414  1.00  0.00     0.163 HD
BRANCH  36  38
ATOM     38  C   UNL     1      -0.233   1.023  -6.895  1.00  0.00     0.116 C 
BRANCH  38  39
ATOM     39  C   UNL     1       0.494   1.390  -5.603  1.00  0.00     0.023 C 
BRANCH  39  40
ATOM     40  C   UNL     1       2.010   1.381  -5.765  1.00  0.00     0.026 C 
BRANCH  40  41
ATOM     41  C   UNL     1       2.564   2.805  -5.757  1.00  0.00     0.146 C 
BRANCH  41  42
ATOM     42  N   UNL     1       1.911   3.594  -6.794  1.00  0.00    -0.254 NA
ATOM     43  C   UNL     1       2.554   3.897  -7.858  1.00  0.00     0.185 C 
ATOM     44  N   UNL     1       3.815   3.598  -8.223  1.00  0.00    -0.370 N 
ATOM     45  N   UNL     1       1.936   4.628  -8.800  1.00  0.00    -0.370 N 
ATOM     46  H   UNL     1       4.267   4.101  -8.967  1.00  0.00     0.159 HD
ATOM     47  H   UNL     1       4.422   3.038  -7.632  1.00  0.00     0.159 HD
ATOM     48  H   UNL     1       0.978   4.889  -8.608  1.00  0.00     0.159 HD
ATOM     49  H   UNL     1       2.277   4.703  -9.742  1.00  0.00     0.159 HD
ENDBRANCH  41  42
ENDBRANCH  40  41
ENDBRANCH  39  40
ENDBRANCH  38  39
ENDBRANCH  36  38
ENDBRANCH   5  34
BRANCH   8  50
ATOM     50  O   UNL     1       3.799   3.689 -11.281  1.00  0.00    -0.245 OA
BRANCH  50  51
ATOM     51  S   UNL     1       4.608   5.100 -11.245  1.00  0.00     0.397 S 
ATOM     52  O   UNL     1       3.801   6.059 -10.525  1.00  0.00    -0.169 OA
ATOM     53  O   UNL     1       5.139   5.390 -12.560  1.00  0.00    -0.169 OA
BRANCH  51  54
ATOM     54  O   UNL     1       5.844   4.753 -10.276  1.00  0.00    -0.264 OA
ATOM     55  H   UNL     1       5.638   3.913  -9.819  1.00  0.00     0.236 HD
ENDBRANCH  51  54
ENDBRANCH  50  51
ENDBRANCH   8  50
TORSDOF 19
ENDMDL
MODEL 13
REMARK VINA RESULT:    -6.187      3.814      8.209
REMARK INTER + INTRA:         -16.807
REMARK INTER:                 -13.206
REMARK INTRA:                  -3.601
REMARK UNBOUND:                -4.291
REMARK SMILES CC[C@@H](C)[C@@H](NC(=O)[C@@H](O)Cc1ccc(O)c(Cl)c1)C(=O)N1[C@H](C(=O)NCCCCN=C(N)N)C[C@H]2CC[C@H](OS(=O)(=O)O)C[C@@H]21
REMARK SMILES IDX 22 1 36 2 46 3 35 4 23 5 45 6 37 7 39 8 38 9 20 10 21 11
REMARK SMILES IDX 5 12 6 13 7 14 8 15 9 17 11 18 12 19 17 20 19 21 15 22 14 23
REMARK SMILES IDX 13 24 18 25 16 26 10 28 3 30 4 31 2 32 1 33 24 34 25 35
REMARK SMILES IDX 26 36 27 38 28 39 29 40 30 41 31 42 32 43 33 44 34 45 40 50
REMARK SMILES IDX 41 51 42 52 43 53 44 54
REMARK H PARENT 6 16 16 27 10 29 26 37 33 46 33 47 34 48 34 49 44 55
ROOT
ATOM      1  N   UNL     1      -1.187  -1.427  -9.709  1.00  0.00    -0.326 N 
ATOM      2  C   UNL     1      -0.042   0.540  -9.107  1.00  0.00     0.014 C 
ATOM      3  C   UNL     1       0.174  -0.897  -9.589  1.00  0.00     0.091 C 
ATOM      4  C   UNL     1      -1.266   0.412  -8.213  1.00  0.00     0.041 C 
ATOM      5  C   UNL     1      -2.155  -0.485  -9.094  1.00  0.00     0.175 C 
ATOM      6  C   UNL     1       1.050  -0.860 -10.840  1.00  0.00     0.059 C 
ATOM      7  C   UNL     1       1.237   1.120  -8.537  1.00  0.00     0.008 C 
ATOM      8  C   UNL     1       2.065   0.304 -10.854  1.00  0.00     0.143 C 
ATOM      9  C   UNL     1       2.443   0.759  -9.430  1.00  0.00     0.034 C 
ENDROOT
BRANCH   1  10
ATOM     10  C   UNL     1      -1.619  -2.687 -10.086  1.00  0.00     0.246 C 
ATOM     11  O   UNL     1      -1.049  -3.263 -11.019  1.00  0.00    -0.272 OA
BRANCH  10  12
ATOM     12  C   UNL     1      -2.779  -3.367  -9.303  1.00  0.00     0.174 C 
BRANCH  12  13
ATOM     13  N   UNL     1      -2.245  -4.402  -8.419  1.00  0.00    -0.342 N 
ATOM     14  C   UNL     1      -1.650  -4.169  -7.200  1.00  0.00     0.249 C 
ATOM     15  O   UNL     1      -1.525  -3.057  -6.703  1.00  0.00    -0.272 OA
ATOM     16  H   UNL     1      -2.137  -5.352  -8.764  1.00  0.00     0.164 HD
BRANCH  14  17
ATOM     17  C   UNL     1      -1.172  -5.466  -6.513  1.00  0.00     0.207 C 
BRANCH  17  18
ATOM     18  C   UNL     1      -0.305  -5.138  -5.293  1.00  0.00     0.077 C 
BRANCH  18  19
ATOM     19  C   UNL     1      -1.057  -5.341  -3.997  1.00  0.00    -0.043 A 
ATOM     20  C   UNL     1      -1.280  -6.435  -1.844  1.00  0.00     0.083 A 
ATOM     21  C   UNL     1      -0.558  -6.213  -3.017  1.00  0.00     0.028 A 
ATOM     22  C   UNL     1      -2.501  -5.791  -1.643  1.00  0.00     0.134 A 
ATOM     23  C   UNL     1      -3.007  -4.925  -2.605  1.00  0.00     0.048 A 
ATOM     24  C   UNL     1      -2.288  -4.702  -3.781  1.00  0.00     0.008 A 
ATOM     25  Cl  UNL     1      -0.650  -7.510  -0.652  1.00  0.00    -0.080 Cl
BRANCH  22  26
ATOM     26  O   UNL     1      -3.249  -5.986  -0.513  1.00  0.00    -0.506 OA
ATOM     27  H   UNL     1      -2.776  -6.645   0.026  1.00  0.00     0.293 HD
ENDBRANCH  22  26
ENDBRANCH  18  19
ENDBRANCH  17  18
BRANCH  17  28
ATOM     28  O   UNL     1      -0.424  -6.289  -7.423  1.00  0.00    -0.383 OA
ATOM     29  H   UNL     1       0.451  -6.438  -6.998  1.00  0.00     0.211 HD
ENDBRANCH  17  28
ENDBRANCH  14  17
ENDBRANCH  12  13
BRANCH  12  30
ATOM     30  C   UNL     1      -3.898  -3.904 -10.236  1.00  0.00     0.018 C 
ATOM     31  C   UNL     1      -4.565  -2.755 -11.008  1.00  0.00     0.010 C 
BRANCH  30  32
ATOM     32  C   UNL     1      -4.971  -4.744  -9.500  1.00  0.00     0.002 C 
ATOM     33  C   UNL     1      -6.415  -4.377  -9.817  1.00  0.00     0.004 C 
ENDBRANCH  30  32
ENDBRANCH  12  30
ENDBRANCH  10  12
ENDBRANCH   1  10
BRANCH   5  34
ATOM     34  C   UNL     1      -2.893   0.335 -10.185  1.00  0.00     0.242 C 
ATOM     35  O   UNL     1      -2.627   0.227 -11.382  1.00  0.00    -0.273 OA
ATOM     36  N   UNL     1      -3.827   1.230  -9.713  1.00  0.00    -0.354 N 
ATOM     37  H   UNL     1      -3.918   1.360  -8.705  1.00  0.00     0.163 HD
BRANCH  36  38
ATOM     38  C   UNL     1      -4.754   1.915 -10.591  1.00  0.00     0.116 C 
BRANCH  38  39
ATOM     39  C   UNL     1      -6.087   1.172 -10.619  1.00  0.00     0.023 C 
BRANCH  39  40
ATOM     40  C   UNL     1      -6.650   0.931  -9.222  1.00  0.00     0.026 C 
BRANCH  40  41
ATOM     41  C   UNL     1      -6.748  -0.565  -8.927  1.00  0.00     0.146 C 
BRANCH  41  42
ATOM     42  N   UNL     1      -5.574  -0.998  -8.179  1.00  0.00    -0.254 NA
ATOM     43  C   UNL     1      -5.714  -1.790  -7.184  1.00  0.00     0.185 C 
ATOM     44  N   UNL     1      -6.828  -2.338  -6.664  1.00  0.00    -0.370 N 
ATOM     45  N   UNL     1      -4.620  -2.173  -6.505  1.00  0.00    -0.370 N 
ATOM     46  H   UNL     1      -6.819  -2.740  -5.742  1.00  0.00     0.159 HD
ATOM     47  H   UNL     1      -7.744  -2.164  -7.064  1.00  0.00     0.159 HD
ATOM     48  H   UNL     1      -3.737  -1.812  -6.838  1.00  0.00     0.159 HD
ATOM     49  H   UNL     1      -4.616  -2.960  -5.880  1.00  0.00     0.159 HD
ENDBRANCH  41  42
ENDBRANCH  40  41
ENDBRANCH  39  40
ENDBRANCH  38  39
ENDBRANCH  36  38
ENDBRANCH   5  34
BRANCH   8  50
ATOM     50  O   UNL     1       1.521   1.420 -11.558  1.00  0.00    -0.245 OA
BRANCH  50  51
ATOM     51  S   UNL     1       1.569   1.445 -13.184  1.00  0.00     0.397 S 
ATOM     52  O   UNL     1       1.965   2.772 -13.598  1.00  0.00    -0.169 OA
ATOM     53  O   UNL     1       0.383   0.806 -13.715  1.00  0.00    -0.169 OA
BRANCH  51  54
ATOM     54  O   UNL     1       2.827   0.494 -13.497  1.00  0.00    -0.264 OA
ATOM     55  H   UNL     1       3.624   1.061 -13.544  1.00  0.00     0.236 HD
ENDBRANCH  51  54
ENDBRANCH  50  51
ENDBRANCH   8  50
TORSDOF 19
ENDMDL
MODEL 14
REMARK VINA RESULT:    -6.137      4.044      9.049
REMARK INTER + INTRA:         -16.708
REMARK INTER:                 -12.623
REMARK INTRA:                  -4.084
REMARK UNBOUND:                -4.291
REMARK SMILES CC[C@@H](C)[C@@H](NC(=O)[C@@H](O)Cc1ccc(O)c(Cl)c1)C(=O)N1[C@H](C(=O)NCCCCN=C(N)N)C[C@H]2CC[C@H](OS(=O)(=O)O)C[C@@H]21
REMARK SMILES IDX 22 1 36 2 46 3 35 4 23 5 45 6 37 7 39 8 38 9 20 10 21 11
REMARK SMILES IDX 5 12 6 13 7 14 8 15 9 17 11 18 12 19 17 20 19 21 15 22 14 23
REMARK SMILES IDX 13 24 18 25 16 26 10 28 3 30 4 31 2 32 1 33 24 34 25 35
REMARK SMILES IDX 26 36 27 38 28 39 29 40 30 41 31 42 32 43 33 44 34 45 40 50
REMARK SMILES IDX 41 51 42 52 43 53 44 54
REMARK H PARENT 6 16 16 27 10 29 26 37 33 46 33 47 34 48 34 49 44 55
ROOT
ATOM      1  N   UNL     1       1.284  -0.609 -10.622  1.00  0.00    -0.326 N 
ATOM      2  C   UNL     1       3.406   0.410 -10.648  1.00  0.00     0.014 C 
ATOM      3  C   UNL     1       2.285  -0.095 -11.561  1.00  0.00     0.091 C 
ATOM      4  C   UNL     1       3.371  -0.582  -9.495  1.00  0.00     0.041 C 
ATOM      5  C   UNL     1       1.853  -0.665  -9.253  1.00  0.00     0.175 C 
ATOM      6  C   UNL     1       1.880   1.038 -12.502  1.00  0.00     0.059 C 
ATOM      7  C   UNL     1       4.693   0.602 -11.425  1.00  0.00     0.008 C 
ATOM      8  C   UNL     1       3.043   1.985 -12.870  1.00  0.00     0.143 C 
ATOM      9  C   UNL     1       4.413   1.281 -12.783  1.00  0.00     0.034 C 
ENDROOT
BRANCH   1  10
ATOM     10  C   UNL     1       0.060  -1.208 -10.868  1.00  0.00     0.246 C 
ATOM     11  O   UNL     1      -0.031  -2.037 -11.780  1.00  0.00    -0.272 OA
BRANCH  10  12
ATOM     12  C   UNL     1      -1.160  -0.859  -9.968  1.00  0.00     0.174 C 
BRANCH  12  13
ATOM     13  N   UNL     1      -1.546  -2.026  -9.176  1.00  0.00    -0.342 N 
ATOM     14  C   UNL     1      -1.554  -2.081  -7.800  1.00  0.00     0.249 C 
ATOM     15  O   UNL     1      -1.261  -1.135  -7.079  1.00  0.00    -0.272 OA
ATOM     16  H   UNL     1      -1.662  -2.928  -9.632  1.00  0.00     0.164 HD
BRANCH  14  17
ATOM     17  C   UNL     1      -1.993  -3.459  -7.261  1.00  0.00     0.207 C 
BRANCH  17  18
ATOM     18  C   UNL     1      -0.776  -4.267  -6.801  1.00  0.00     0.077 C 
BRANCH  18  19
ATOM     19  C   UNL     1      -0.972  -4.837  -5.414  1.00  0.00    -0.043 A 
ATOM     20  C   UNL     1      -2.261  -4.987  -3.365  1.00  0.00     0.083 A 
ATOM     21  C   UNL     1      -2.108  -4.498  -4.663  1.00  0.00     0.028 A 
ATOM     22  C   UNL     1      -1.283  -5.813  -2.810  1.00  0.00     0.134 A 
ATOM     23  C   UNL     1      -0.153  -6.156  -3.542  1.00  0.00     0.048 A 
ATOM     24  C   UNL     1       0.004  -5.667  -4.841  1.00  0.00     0.008 A 
ATOM     25  Cl  UNL     1      -3.665  -4.559  -2.458  1.00  0.00    -0.080 Cl
BRANCH  22  26
ATOM     26  O   UNL     1      -1.385  -6.307  -1.537  1.00  0.00    -0.506 OA
ATOM     27  H   UNL     1      -0.975  -5.648  -0.947  1.00  0.00     0.293 HD
ENDBRANCH  22  26
ENDBRANCH  18  19
ENDBRANCH  17  18
BRANCH  17  28
ATOM     28  O   UNL     1      -2.708  -4.202  -8.262  1.00  0.00    -0.383 OA
ATOM     29  H   UNL     1      -3.586  -3.767  -8.348  1.00  0.00     0.211 HD
ENDBRANCH  17  28
ENDBRANCH  14  17
ENDBRANCH  12  13
BRANCH  12  30
ATOM     30  C   UNL     1      -2.350  -0.269 -10.772  1.00  0.00     0.018 C 
ATOM     31  C   UNL     1      -2.947   0.949 -10.051  1.00  0.00     0.010 C 
BRANCH  30  32
ATOM     32  C   UNL     1      -3.461  -1.301 -11.084  1.00  0.00     0.002 C 
ATOM     33  C   UNL     1      -4.871  -0.732 -11.174  1.00  0.00     0.004 C 
ENDBRANCH  30  32
ENDBRANCH  12  30
ENDBRANCH  10  12
ENDBRANCH   1  10
BRANCH   5  34
ATOM     34  C   UNL     1       1.345   0.526  -8.397  1.00  0.00     0.242 C 
ATOM     35  O   UNL     1       0.805   1.513  -8.897  1.00  0.00    -0.273 OA
ATOM     36  N   UNL     1       1.589   0.423  -7.046  1.00  0.00    -0.354 N 
ATOM     37  H   UNL     1       2.146  -0.362  -6.706  1.00  0.00     0.163 HD
BRANCH  36  38
ATOM     38  C   UNL     1       1.000   1.329  -6.081  1.00  0.00     0.116 C 
BRANCH  38  39
ATOM     39  C   UNL     1       1.987   1.592  -4.947  1.00  0.00     0.023 C 
BRANCH  39  40
ATOM     40  C   UNL     1       2.633   2.969  -5.045  1.00  0.00     0.026 C 
BRANCH  40  41
ATOM     41  C   UNL     1       2.285   3.638  -6.374  1.00  0.00     0.146 C 
BRANCH  41  42
ATOM     42  N   UNL     1       3.459   3.660  -7.237  1.00  0.00    -0.254 NA
ATOM     43  C   UNL     1       3.315   3.832  -8.497  1.00  0.00     0.185 C 
ATOM     44  N   UNL     1       2.197   4.010  -9.224  1.00  0.00    -0.370 N 
ATOM     45  N   UNL     1       4.409   3.845  -9.276  1.00  0.00    -0.370 N 
ATOM     46  H   UNL     1       2.209   3.888 -10.223  1.00  0.00     0.159 HD
ATOM     47  H   UNL     1       1.279   4.041  -8.792  1.00  0.00     0.159 HD
ATOM     48  H   UNL     1       5.296   3.726  -8.805  1.00  0.00     0.159 HD
ATOM     49  H   UNL     1       4.405   4.204 -10.214  1.00  0.00     0.159 HD
ENDBRANCH  41  42
ENDBRANCH  40  41
ENDBRANCH  39  40
ENDBRANCH  38  39
ENDBRANCH  36  38
ENDBRANCH   5  34
BRANCH   8  50
ATOM     50  O   UNL     1       3.055   3.111 -11.993  1.00  0.00    -0.245 OA
BRANCH  50  51
ATOM     51  S   UNL     1       3.634   4.536 -12.523  1.00  0.00     0.397 S 
ATOM     52  O   UNL     1       3.069   5.581 -11.701  1.00  0.00    -0.169 OA
ATOM     53  O   UNL     1       3.560   4.583 -13.969  1.00  0.00    -0.169 OA
BRANCH  51  54
ATOM     54  O   UNL     1       5.185   4.443 -12.109  1.00  0.00    -0.264 OA
ATOM     55  H   UNL     1       5.718   4.706 -12.887  1.00  0.00     0.236 HD
ENDBRANCH  51  54
ENDBRANCH  50  51
ENDBRANCH   8  50
TORSDOF 19
ENDMDL
MODEL 15
REMARK VINA RESULT:    -6.107     12.105     17.566
REMARK INTER + INTRA:         -16.647
REMARK INTER:                 -12.176
REMARK INTRA:                  -4.471
REMARK UNBOUND:                -4.291
REMARK SMILES CC[C@@H](C)[C@@H](NC(=O)[C@@H](O)Cc1ccc(O)c(Cl)c1)C(=O)N1[C@H](C(=O)NCCCCN=C(N)N)C[C@H]2CC[C@H](OS(=O)(=O)O)C[C@@H]21
REMARK SMILES IDX 22 1 36 2 46 3 35 4 23 5 45 6 37 7 39 8 38 9 20 10 21 11
REMARK SMILES IDX 5 12 6 13 7 14 8 15 9 17 11 18 12 19 17 20 19 21 15 22 14 23
REMARK SMILES IDX 13 24 18 25 16 26 10 28 3 30 4 31 2 32 1 33 24 34 25 35
REMARK SMILES IDX 26 36 27 38 28 39 29 40 30 41 31 42 32 43 33 44 34 45 40 50
REMARK SMILES IDX 41 51 42 52 43 53 44 54
REMARK H PARENT 6 16 16 27 10 29 26 37 33 46 33 47 34 48 34 49 44 55
ROOT
ATOM      1  N   UNL     1      -8.076  -4.392   6.403  1.00  0.00    -0.326 N 
ATOM      2  C   UNL     1      -7.702  -2.160   5.752  1.00  0.00     0.014 C 
ATOM      3  C   UNL     1      -7.047  -3.349   6.459  1.00  0.00     0.091 C 
ATOM      4  C   UNL     1      -9.164  -2.299   6.149  1.00  0.00     0.041 C 
ATOM      5  C   UNL     1      -9.361  -3.812   5.939  1.00  0.00     0.175 C 
ATOM      6  C   UNL     1      -5.700  -3.625   5.794  1.00  0.00     0.059 C 
ATOM      7  C   UNL     1      -6.967  -0.872   6.063  1.00  0.00     0.008 C 
ATOM      8  C   UNL     1      -5.010  -2.360   5.239  1.00  0.00     0.143 C 
ATOM      9  C   UNL     1      -5.440  -1.087   5.996  1.00  0.00     0.034 C 
ENDROOT
BRANCH   1  10
ATOM     10  C   UNL     1      -8.059  -5.684   6.900  1.00  0.00     0.246 C 
ATOM     11  O   UNL     1      -7.946  -6.629   6.112  1.00  0.00    -0.272 OA
BRANCH  10  12
ATOM     12  C   UNL     1      -8.140  -5.916   8.437  1.00  0.00     0.174 C 
BRANCH  12  13
ATOM     13  N   UNL     1      -8.167  -4.631   9.134  1.00  0.00    -0.342 N 
ATOM     14  C   UNL     1      -9.301  -4.020   9.621  1.00  0.00     0.249 C 
ATOM     15  O   UNL     1     -10.423  -4.505   9.546  1.00  0.00    -0.272 OA
ATOM     16  H   UNL     1      -7.340  -4.039   9.133  1.00  0.00     0.164 HD
BRANCH  14  17
ATOM     17  C   UNL     1      -9.005  -2.662  10.292  1.00  0.00     0.207 C 
BRANCH  17  18
ATOM     18  C   UNL     1      -7.498  -2.385  10.297  1.00  0.00     0.077 C 
BRANCH  18  19
ATOM     19  C   UNL     1      -7.184  -0.973   9.854  1.00  0.00    -0.043 A 
ATOM     20  C   UNL     1      -5.567   0.731   9.250  1.00  0.00     0.083 A 
ATOM     21  C   UNL     1      -5.858  -0.586   9.611  1.00  0.00     0.028 A 
ATOM     22  C   UNL     1      -6.596   1.666   9.132  1.00  0.00     0.134 A 
ATOM     23  C   UNL     1      -7.914   1.295   9.370  1.00  0.00     0.048 A 
ATOM     24  C   UNL     1      -8.208  -0.021   9.733  1.00  0.00     0.008 A 
ATOM     25  Cl  UNL     1      -3.931   1.188   8.955  1.00  0.00    -0.080 Cl
BRANCH  22  26
ATOM     26  O   UNL     1      -6.359   2.970   8.791  1.00  0.00    -0.506 OA
ATOM     27  H   UNL     1      -7.108   3.490   9.137  1.00  0.00     0.293 HD
ENDBRANCH  22  26
ENDBRANCH  18  19
ENDBRANCH  17  18
BRANCH  17  28
ATOM     28  O   UNL     1      -9.500  -2.632  11.640  1.00  0.00    -0.383 OA
ATOM     29  H   UNL     1      -8.765  -2.960  12.207  1.00  0.00     0.211 HD
ENDBRANCH  17  28
ENDBRANCH  14  17
ENDBRANCH  12  13
BRANCH  12  30
ATOM     30  C   UNL     1      -7.017  -6.851   8.962  1.00  0.00     0.018 C 
ATOM     31  C   UNL     1      -5.646  -6.413   8.425  1.00  0.00     0.010 C 
BRANCH  30  32
ATOM     32  C   UNL     1      -7.258  -8.348   8.648  1.00  0.00     0.002 C 
ATOM     33  C   UNL     1      -8.627  -8.884   9.044  1.00  0.00     0.004 C 
ENDBRANCH  30  32
ENDBRANCH  12  30
ENDBRANCH  10  12
ENDBRANCH   1  10
BRANCH   5  34
ATOM     34  C   UNL     1      -9.612  -4.155   4.447  1.00  0.00     0.242 C 
ATOM     35  O   UNL     1     -10.677  -3.901   3.884  1.00  0.00    -0.273 OA
ATOM     36  N   UNL     1      -8.580  -4.812   3.815  1.00  0.00    -0.354 N 
ATOM     37  H   UNL     1      -7.772  -5.102   4.366  1.00  0.00     0.163 HD
BRANCH  36  38
ATOM     38  C   UNL     1      -8.556  -5.015   2.381  1.00  0.00     0.116 C 
BRANCH  38  39
ATOM     39  C   UNL     1      -7.204  -4.581   1.819  1.00  0.00     0.023 C 
BRANCH  39  40
ATOM     40  C   UNL     1      -6.178  -5.710   1.835  1.00  0.00     0.026 C 
BRANCH  40  41
ATOM     41  C   UNL     1      -5.532  -5.874   0.459  1.00  0.00     0.146 C 
BRANCH  41  42
ATOM     42  N   UNL     1      -4.254  -5.175   0.428  1.00  0.00    -0.254 NA
ATOM     43  C   UNL     1      -4.096  -4.181  -0.363  1.00  0.00     0.185 C 
ATOM     44  N   UNL     1      -4.956  -3.621  -1.233  1.00  0.00    -0.370 N 
ATOM     45  N   UNL     1      -2.908  -3.553  -0.379  1.00  0.00    -0.370 N 
ATOM     46  H   UNL     1      -4.625  -3.009  -1.959  1.00  0.00     0.159 HD
ATOM     47  H   UNL     1      -5.905  -3.964  -1.339  1.00  0.00     0.159 HD
ATOM     48  H   UNL     1      -2.205  -3.907   0.255  1.00  0.00     0.159 HD
ATOM     49  H   UNL     1      -2.781  -2.641  -0.782  1.00  0.00     0.159 HD
ENDBRANCH  41  42
ENDBRANCH  40  41
ENDBRANCH  39  40
ENDBRANCH  38  39
ENDBRANCH  36  38
ENDBRANCH   5  34
BRANCH   8  50
ATOM     50  O   UNL     1      -5.329  -2.194   3.857  1.00  0.00    -0.245 OA
BRANCH  50  51
ATOM     51  S   UNL     1      -4.139  -1.891   2.790  1.00  0.00     0.397 S 
ATOM     52  O   UNL     1      -3.245  -0.921   3.381  1.00  0.00    -0.169 OA
ATOM     53  O   UNL     1      -4.706  -1.698   1.471  1.00  0.00    -0.169 OA
BRANCH  51  54
ATOM     54  O   UNL     1      -3.333  -3.282   2.783  1.00  0.00    -0.264 OA
ATOM     55  H   UNL     1      -3.043  -3.455   1.864  1.00  0.00     0.236 HD
ENDBRANCH  51  54
ENDBRANCH  50  51
ENDBRANCH   8  50
TORSDOF 19
ENDMDL
MODEL 16
REMARK VINA RESULT:    -6.093      1.523      2.110
REMARK INTER + INTRA:         -16.618
REMARK INTER:                 -11.286
REMARK INTRA:                  -5.332
REMARK UNBOUND:                -4.291
REMARK SMILES CC[C@@H](C)[C@@H](NC(=O)[C@@H](O)Cc1ccc(O)c(Cl)c1)C(=O)N1[C@H](C(=O)NCCCCN=C(N)N)C[C@H]2CC[C@H](OS(=O)(=O)O)C[C@@H]21
REMARK SMILES IDX 22 1 36 2 46 3 35 4 23 5 45 6 37 7 39 8 38 9 20 10 21 11
REMARK SMILES IDX 5 12 6 13 7 14 8 15 9 17 11 18 12 19 17 20 19 21 15 22 14 23
REMARK SMILES IDX 13 24 18 25 16 26 10 28 3 30 4 31 2 32 1 33 24 34 25 35
REMARK SMILES IDX 26 36 27 38 28 39 29 40 30 41 31 42 32 43 33 44 34 45 40 50
REMARK SMILES IDX 41 51 42 52 43 53 44 54
REMARK H PARENT 6 16 16 27 10 29 26 37 33 46 33 47 34 48 34 49 44 55
ROOT
ATOM      1  N   UNL     1      -3.643  -0.429 -10.292  1.00  0.00    -0.326 N 
ATOM      2  C   UNL     1      -5.126  -1.846  -9.137  1.00  0.00     0.014 C 
ATOM      3  C   UNL     1      -4.329  -1.716 -10.438  1.00  0.00     0.091 C 
ATOM      4  C   UNL     1      -5.518  -0.407  -8.839  1.00  0.00     0.041 C 
ATOM      5  C   UNL     1      -4.181   0.303  -9.118  1.00  0.00     0.175 C 
ATOM      6  C   UNL     1      -3.480  -2.974 -10.612  1.00  0.00     0.059 C 
ATOM      7  C   UNL     1      -6.209  -2.899  -9.267  1.00  0.00     0.008 C 
ATOM      8  C   UNL     1      -4.128  -4.247 -10.024  1.00  0.00     0.143 C 
ATOM      9  C   UNL     1      -5.666  -4.150  -9.989  1.00  0.00     0.034 C 
ENDROOT
BRANCH   1  10
ATOM     10  C   UNL     1      -2.793   0.228 -11.165  1.00  0.00     0.246 C 
ATOM     11  O   UNL     1      -3.148   1.306 -11.653  1.00  0.00    -0.272 OA
BRANCH  10  12
ATOM     12  C   UNL     1      -1.396  -0.382 -11.480  1.00  0.00     0.174 C 
BRANCH  12  13
ATOM     13  N   UNL     1      -0.599  -0.458 -10.256  1.00  0.00    -0.342 N 
ATOM     14  C   UNL     1       0.066  -1.581  -9.816  1.00  0.00     0.249 C 
ATOM     15  O   UNL     1       0.085  -2.644 -10.422  1.00  0.00    -0.272 OA
ATOM     16  H   UNL     1      -0.650   0.294  -9.574  1.00  0.00     0.164 HD
BRANCH  14  17
ATOM     17  C   UNL     1       0.805  -1.349  -8.480  1.00  0.00     0.207 C 
BRANCH  17  18
ATOM     18  C   UNL     1       2.322  -1.419  -8.689  1.00  0.00     0.077 C 
BRANCH  18  19
ATOM     19  C   UNL     1       2.893  -0.084  -9.110  1.00  0.00    -0.043 A 
ATOM     20  C   UNL     1       4.432   1.211 -10.466  1.00  0.00     0.083 A 
ATOM     21  C   UNL     1       3.871  -0.017 -10.114  1.00  0.00     0.028 A 
ATOM     22  C   UNL     1       4.022   2.377  -9.819  1.00  0.00     0.134 A 
ATOM     23  C   UNL     1       3.054   2.326  -8.823  1.00  0.00     0.048 A 
ATOM     24  C   UNL     1       2.492   1.098  -8.467  1.00  0.00     0.008 A 
ATOM     25  Cl  UNL     1       5.633   1.273 -11.702  1.00  0.00    -0.080 Cl
BRANCH  22  26
ATOM     26  O   UNL     1       4.550   3.603 -10.122  1.00  0.00    -0.506 OA
ATOM     27  H   UNL     1       3.859   4.094 -10.603  1.00  0.00     0.293 HD
ENDBRANCH  22  26
ENDBRANCH  18  19
ENDBRANCH  17  18
BRANCH  17  28
ATOM     28  O   UNL     1       0.414  -2.321  -7.497  1.00  0.00    -0.383 OA
ATOM     29  H   UNL     1      -0.265  -1.881  -6.936  1.00  0.00     0.211 HD
ENDBRANCH  17  28
ENDBRANCH  14  17
ENDBRANCH  12  13
BRANCH  12  30
ATOM     30  C   UNL     1      -0.658   0.367 -12.622  1.00  0.00     0.018 C 
ATOM     31  C   UNL     1      -0.754  -0.417 -13.940  1.00  0.00     0.010 C 
BRANCH  30  32
ATOM     32  C   UNL     1       0.822   0.688 -12.300  1.00  0.00     0.002 C 
ATOM     33  C   UNL     1       1.846  -0.002 -13.191  1.00  0.00     0.004 C 
ENDBRANCH  30  32
ENDBRANCH  12  30
ENDBRANCH  10  12
ENDBRANCH   1  10
BRANCH   5  34
ATOM     34  C   UNL     1      -3.212   0.194  -7.911  1.00  0.00     0.242 C 
ATOM     35  O   UNL     1      -2.392  -0.717  -7.805  1.00  0.00    -0.273 OA
ATOM     36  N   UNL     1      -3.373   1.159  -6.942  1.00  0.00    -0.354 N 
ATOM     37  H   UNL     1      -4.149   1.817  -7.027  1.00  0.00     0.163 HD
BRANCH  36  38
ATOM     38  C   UNL     1      -2.424   1.338  -5.863  1.00  0.00     0.116 C 
BRANCH  38  39
ATOM     39  C   UNL     1      -3.149   1.288  -4.520  1.00  0.00     0.023 C 
BRANCH  39  40
ATOM     40  C   UNL     1      -4.655   1.107  -4.678  1.00  0.00     0.026 C 
BRANCH  40  41
ATOM     41  C   UNL     1      -5.083  -0.293  -4.237  1.00  0.00     0.146 C 
BRANCH  41  42
ATOM     42  N   UNL     1      -4.728  -1.263  -5.264  1.00  0.00    -0.254 NA
ATOM     43  C   UNL     1      -3.820  -2.133  -5.026  1.00  0.00     0.185 C 
ATOM     44  N   UNL     1      -3.080  -2.332  -3.920  1.00  0.00    -0.370 N 
ATOM     45  N   UNL     1      -3.504  -3.016  -5.988  1.00  0.00    -0.370 N 
ATOM     46  H   UNL     1      -2.242  -2.887  -3.956  1.00  0.00     0.159 HD
ATOM     47  H   UNL     1      -3.200  -1.760  -3.089  1.00  0.00     0.159 HD
ATOM     48  H   UNL     1      -4.022  -2.941  -6.853  1.00  0.00     0.159 HD
ATOM     49  H   UNL     1      -2.989  -3.859  -5.805  1.00  0.00     0.159 HD
ENDBRANCH  41  42
ENDBRANCH  40  41
ENDBRANCH  39  40
ENDBRANCH  38  39
ENDBRANCH  36  38
ENDBRANCH   5  34
BRANCH   8  50
ATOM     50  O   UNL     1      -3.657  -4.467  -8.695  1.00  0.00    -0.245 OA
BRANCH  50  51
ATOM     51  S   UNL     1      -2.277  -5.295  -8.459  1.00  0.00     0.397 S 
ATOM     52  O   UNL     1      -1.357  -4.436  -7.748  1.00  0.00    -0.169 OA
ATOM     53  O   UNL     1      -1.897  -5.966  -9.685  1.00  0.00    -0.169 OA
BRANCH  51  54
ATOM     54  O   UNL     1      -2.735  -6.416  -7.401  1.00  0.00    -0.264 OA
ATOM     55  H   UNL     1      -2.030  -7.095  -7.362  1.00  0.00     0.236 HD
ENDBRANCH  51  54
ENDBRANCH  50  51
ENDBRANCH   8  50
TORSDOF 19
ENDMDL
MODEL 17
REMARK VINA RESULT:    -6.086     13.082     16.599
REMARK INTER + INTRA:         -16.604
REMARK INTER:                 -12.011
REMARK INTRA:                  -4.593
REMARK UNBOUND:                -4.291
REMARK SMILES CC[C@@H](C)[C@@H](NC(=O)[C@@H](O)Cc1ccc(O)c(Cl)c1)C(=O)N1[C@H](C(=O)NCCCCN=C(N)N)C[C@H]2CC[C@H](OS(=O)(=O)O)C[C@@H]21
REMARK SMILES IDX 22 1 36 2 46 3 35 4 23 5 45 6 37 7 39 8 38 9 20 10 21 11
REMARK SMILES IDX 5 12 6 13 7 14 8 15 9 17 11 18 12 19 17 20 19 21 15 22 14 23
REMARK SMILES IDX 13 24 18 25 16 26 10 28 3 30 4 31 2 32 1 33 24 34 25 35
REMARK SMILES IDX 26 36 27 38 28 39 29 40 30 41 31 42 32 43 33 44 34 45 40 50
REMARK SMILES IDX 41 51 42 52 43 53 44 54
REMARK H PARENT 6 16 16 27 10 29 26 37 33 46 33 47 34 48 34 49 44 55
ROOT
ATOM      1  N   UNL     1      -5.586  -5.131   4.158  1.00  0.00    -0.326 N 
ATOM      2  C   UNL     1      -6.341  -4.965   1.935  1.00  0.00     0.014 C 
ATOM      3  C   UNL     1      -6.421  -5.843   3.186  1.00  0.00     0.091 C 
ATOM      4  C   UNL     1      -4.920  -4.427   1.994  1.00  0.00     0.041 C 
ATOM      5  C   UNL     1      -4.834  -4.045   3.483  1.00  0.00     0.175 C 
ATOM      6  C   UNL     1      -7.894  -6.069   3.525  1.00  0.00     0.059 C 
ATOM      7  C   UNL     1      -6.797  -5.727   0.707  1.00  0.00     0.008 C 
ATOM      8  C   UNL     1      -8.817  -6.102   2.288  1.00  0.00     0.143 C 
ATOM      9  C   UNL     1      -8.067  -6.548   1.016  1.00  0.00     0.034 C 
ENDROOT
BRANCH   1  10
ATOM     10  C   UNL     1      -5.268  -5.461   5.465  1.00  0.00     0.246 C 
ATOM     11  O   UNL     1      -4.106  -5.780   5.739  1.00  0.00    -0.272 OA
BRANCH  10  12
ATOM     12  C   UNL     1      -6.366  -5.381   6.565  1.00  0.00     0.174 C 
BRANCH  12  13
ATOM     13  N   UNL     1      -6.659  -3.983   6.877  1.00  0.00    -0.342 N 
ATOM     14  C   UNL     1      -7.908  -3.407   6.823  1.00  0.00     0.249 C 
ATOM     15  O   UNL     1      -8.929  -4.017   6.532  1.00  0.00    -0.272 OA
ATOM     16  H   UNL     1      -5.896  -3.320   6.982  1.00  0.00     0.164 HD
BRANCH  14  17
ATOM     17  C   UNL     1      -7.889  -1.908   7.192  1.00  0.00     0.207 C 
BRANCH  17  18
ATOM     18  C   UNL     1      -7.967  -1.729   8.712  1.00  0.00     0.077 C 
BRANCH  18  19
ATOM     19  C   UNL     1      -6.956  -0.721   9.211  1.00  0.00    -0.043 A 
ATOM     20  C   UNL     1      -4.920   0.555   8.882  1.00  0.00     0.083 A 
ATOM     21  C   UNL     1      -5.878  -0.337   8.399  1.00  0.00     0.028 A 
ATOM     22  C   UNL     1      -5.031   1.067  10.175  1.00  0.00     0.134 A 
ATOM     23  C   UNL     1      -6.094   0.695  10.990  1.00  0.00     0.048 A 
ATOM     24  C   UNL     1      -7.054  -0.199  10.510  1.00  0.00     0.008 A 
ATOM     25  Cl  UNL     1      -3.602   1.015   7.869  1.00  0.00    -0.080 Cl
BRANCH  22  26
ATOM     26  O   UNL     1      -4.111   1.936  10.695  1.00  0.00    -0.506 OA
ATOM     27  H   UNL     1      -4.546   2.391  11.441  1.00  0.00     0.293 HD
ENDBRANCH  22  26
ENDBRANCH  18  19
ENDBRANCH  17  18
BRANCH  17  28
ATOM     28  O   UNL     1      -8.981  -1.209   6.573  1.00  0.00    -0.383 OA
ATOM     29  H   UNL     1      -8.828  -0.253   6.752  1.00  0.00     0.211 HD
ENDBRANCH  17  28
ENDBRANCH  14  17
ENDBRANCH  12  13
BRANCH  12  30
ATOM     30  C   UNL     1      -6.009  -6.208   7.830  1.00  0.00     0.018 C 
ATOM     31  C   UNL     1      -6.280  -7.703   7.600  1.00  0.00     0.010 C 
BRANCH  30  32
ATOM     32  C   UNL     1      -6.732  -5.727   9.111  1.00  0.00     0.002 C 
ATOM     33  C   UNL     1      -8.163  -6.221   9.276  1.00  0.00     0.004 C 
ENDBRANCH  30  32
ENDBRANCH  12  30
ENDBRANCH  10  12
ENDBRANCH   1  10
BRANCH   5  34
ATOM     34  C   UNL     1      -5.491  -2.667   3.759  1.00  0.00     0.242 C 
ATOM     35  O   UNL     1      -6.693  -2.547   3.998  1.00  0.00    -0.273 OA
ATOM     36  N   UNL     1      -4.645  -1.585   3.665  1.00  0.00    -0.354 N 
ATOM     37  H   UNL     1      -3.687  -1.737   3.346  1.00  0.00     0.163 HD
BRANCH  36  38
ATOM     38  C   UNL     1      -5.033  -0.259   4.098  1.00  0.00     0.116 C 
BRANCH  38  39
ATOM     39  C   UNL     1      -5.421   0.589   2.888  1.00  0.00     0.023 C 
BRANCH  39  40
ATOM     40  C   UNL     1      -6.932   0.719   2.728  1.00  0.00     0.026 C 
BRANCH  40  41
ATOM     41  C   UNL     1      -7.422  -0.097   1.532  1.00  0.00     0.146 C 
BRANCH  41  42
ATOM     42  N   UNL     1      -8.878  -0.060   1.474  1.00  0.00    -0.254 NA
ATOM     43  C   UNL     1      -9.519  -1.068   1.015  1.00  0.00     0.185 C 
ATOM     44  N   UNL     1      -9.062  -2.242   0.543  1.00  0.00    -0.370 N 
ATOM     45  N   UNL     1     -10.860  -1.012   0.966  1.00  0.00    -0.370 N 
ATOM     46  H   UNL     1      -9.656  -2.839  -0.008  1.00  0.00     0.159 HD
ATOM     47  H   UNL     1      -8.071  -2.458   0.520  1.00  0.00     0.159 HD
ATOM     48  H   UNL     1     -11.287  -0.163   1.312  1.00  0.00     0.159 HD
ATOM     49  H   UNL     1     -11.435  -1.828   0.849  1.00  0.00     0.159 HD
ENDBRANCH  41  42
ENDBRANCH  40  41
ENDBRANCH  39  40
ENDBRANCH  38  39
ENDBRANCH  36  38
ENDBRANCH   5  34
BRANCH   8  50
ATOM     50  O   UNL     1      -9.372  -4.807   2.056  1.00  0.00    -0.245 OA
BRANCH  50  51
ATOM     51  S   UNL     1     -10.563  -4.260   3.019  1.00  0.00     0.397 S 
ATOM     52  O   UNL     1     -10.960  -5.339   3.896  1.00  0.00    -0.169 OA
ATOM     53  O   UNL     1     -11.532  -3.530   2.228  1.00  0.00    -0.169 OA
BRANCH  51  54
ATOM     54  O   UNL     1      -9.785  -3.203   3.948  1.00  0.00    -0.264 OA
ATOM     55  H   UNL     1     -10.367  -2.986   4.705  1.00  0.00     0.236 HD
ENDBRANCH  51  54
ENDBRANCH  50  51
ENDBRANCH   8  50
TORSDOF 19
ENDMDL
MODEL 18
REMARK VINA RESULT:    -6.055      4.000      9.199
REMARK INTER + INTRA:         -16.542
REMARK INTER:                 -14.147
REMARK INTRA:                  -2.395
REMARK UNBOUND:                -4.291
REMARK SMILES CC[C@@H](C)[C@@H](NC(=O)[C@@H](O)Cc1ccc(O)c(Cl)c1)C(=O)N1[C@H](C(=O)NCCCCN=C(N)N)C[C@H]2CC[C@H](OS(=O)(=O)O)C[C@@H]21
REMARK SMILES IDX 22 1 36 2 46 3 35 4 23 5 45 6 37 7 39 8 38 9 20 10 21 11
REMARK SMILES IDX 5 12 6 13 7 14 8 15 9 17 11 18 12 19 17 20 19 21 15 22 14 23
REMARK SMILES IDX 13 24 18 25 16 26 10 28 3 30 4 31 2 32 1 33 24 34 25 35
REMARK SMILES IDX 26 36 27 38 28 39 29 40 30 41 31 42 32 43 33 44 34 45 40 50
REMARK SMILES IDX 41 51 42 52 43 53 44 54
REMARK H PARENT 6 16 16 27 10 29 26 37 33 46 33 47 34 48 34 49 44 55
ROOT
ATOM      1  N   UNL     1      -2.064  -1.087 -10.237  1.00  0.00    -0.326 N 
ATOM      2  C   UNL     1      -1.536   1.195 -10.001  1.00  0.00     0.014 C 
ATOM      3  C   UNL     1      -1.573  -0.133  -9.239  1.00  0.00     0.091 C 
ATOM      4  C   UNL     1      -2.732   1.080 -10.933  1.00  0.00     0.041 C 
ATOM      5  C   UNL     1      -2.547  -0.362 -11.439  1.00  0.00     0.175 C 
ATOM      6  C   UNL     1      -0.197  -0.374  -8.621  1.00  0.00     0.059 C 
ATOM      7  C   UNL     1      -1.448   2.367  -9.044  1.00  0.00     0.008 C 
ATOM      8  C   UNL     1       0.541   0.922  -8.223  1.00  0.00     0.143 C 
ATOM      9  C   UNL     1      -0.436   2.075  -7.916  1.00  0.00     0.034 C 
ENDROOT
BRANCH   1  10
ATOM     10  C   UNL     1      -2.320  -2.442 -10.119  1.00  0.00     0.246 C 
ATOM     11  O   UNL     1      -1.653  -3.241 -10.785  1.00  0.00    -0.272 OA
BRANCH  10  12
ATOM     12  C   UNL     1      -3.410  -2.933  -9.122  1.00  0.00     0.174 C 
BRANCH  12  13
ATOM     13  N   UNL     1      -2.790  -3.698  -8.042  1.00  0.00    -0.342 N 
ATOM     14  C   UNL     1      -2.430  -5.025  -8.119  1.00  0.00     0.249 C 
ATOM     15  O   UNL     1      -2.567  -5.711  -9.124  1.00  0.00    -0.272 OA
ATOM     16  H   UNL     1      -2.758  -3.309  -7.103  1.00  0.00     0.164 HD
BRANCH  14  17
ATOM     17  C   UNL     1      -1.814  -5.552  -6.805  1.00  0.00     0.207 C 
BRANCH  17  18
ATOM     18  C   UNL     1      -1.377  -4.386  -5.913  1.00  0.00     0.077 C 
BRANCH  18  19
ATOM     19  C   UNL     1      -1.839  -4.568  -4.485  1.00  0.00    -0.043 A 
ATOM     20  C   UNL     1      -1.653  -5.687  -2.340  1.00  0.00     0.083 A 
ATOM     21  C   UNL     1      -1.192  -5.486  -3.642  1.00  0.00     0.028 A 
ATOM     22  C   UNL     1      -2.759  -4.977  -1.873  1.00  0.00     0.134 A 
ATOM     23  C   UNL     1      -3.409  -4.065  -2.697  1.00  0.00     0.048 A 
ATOM     24  C   UNL     1      -2.952  -3.863  -4.001  1.00  0.00     0.008 A 
ATOM     25  Cl  UNL     1      -0.845  -6.819  -1.320  1.00  0.00    -0.080 Cl
BRANCH  22  26
ATOM     26  O   UNL     1      -3.253  -5.148  -0.608  1.00  0.00    -0.506 OA
ATOM     27  H   UNL     1      -2.771  -4.525  -0.033  1.00  0.00     0.293 HD
ENDBRANCH  22  26
ENDBRANCH  18  19
ENDBRANCH  17  18
BRANCH  17  28
ATOM     28  O   UNL     1      -0.685  -6.401  -7.068  1.00  0.00    -0.383 OA
ATOM     29  H   UNL     1      -1.046  -7.208  -7.499  1.00  0.00     0.211 HD
ENDBRANCH  17  28
ENDBRANCH  14  17
ENDBRANCH  12  13
BRANCH  12  30
ATOM     30  C   UNL     1      -4.554  -3.715  -9.822  1.00  0.00     0.018 C 
ATOM     31  C   UNL     1      -5.050  -2.962 -11.066  1.00  0.00     0.010 C 
BRANCH  30  32
ATOM     32  C   UNL     1      -5.745  -4.042  -8.888  1.00  0.00     0.002 C 
ATOM     33  C   UNL     1      -6.417  -5.387  -9.135  1.00  0.00     0.004 C 
ENDBRANCH  30  32
ENDBRANCH  12  30
ENDBRANCH  10  12
ENDBRANCH   1  10
BRANCH   5  34
ATOM     34  C   UNL     1      -1.501  -0.437 -12.583  1.00  0.00     0.242 C 
ATOM     35  O   UNL     1      -1.720   0.020 -13.705  1.00  0.00    -0.273 OA
ATOM     36  N   UNL     1      -0.335  -1.097 -12.269  1.00  0.00    -0.354 N 
ATOM     37  H   UNL     1      -0.260  -1.558 -11.361  1.00  0.00     0.163 HD
BRANCH  36  38
ATOM     38  C   UNL     1       0.825  -1.074 -13.136  1.00  0.00     0.116 C 
BRANCH  38  39
ATOM     39  C   UNL     1       1.808  -0.008 -12.659  1.00  0.00     0.023 C 
BRANCH  39  40
ATOM     40  C   UNL     1       2.369   0.824 -13.807  1.00  0.00     0.026 C 
BRANCH  40  41
ATOM     41  C   UNL     1       3.898   0.813 -13.789  1.00  0.00     0.146 C 
BRANCH  41  42
ATOM     42  N   UNL     1       4.384   1.730 -12.767  1.00  0.00    -0.254 NA
ATOM     43  C   UNL     1       5.644   1.904 -12.620  1.00  0.00     0.185 C 
ATOM     44  N   UNL     1       6.677   1.356 -13.286  1.00  0.00    -0.370 N 
ATOM     45  N   UNL     1       6.072   2.751 -11.670  1.00  0.00    -0.370 N 
ATOM     46  H   UNL     1       7.608   1.393 -12.909  1.00  0.00     0.159 HD
ATOM     47  H   UNL     1       6.532   0.701 -14.049  1.00  0.00     0.159 HD
ATOM     48  H   UNL     1       5.356   3.214 -11.126  1.00  0.00     0.159 HD
ATOM     49  H   UNL     1       7.007   3.118 -11.649  1.00  0.00     0.159 HD
ENDBRANCH  41  42
ENDBRANCH  40  41
ENDBRANCH  39  40
ENDBRANCH  38  39
ENDBRANCH  36  38
ENDBRANCH   5  34
BRANCH   8  50
ATOM     50  O   UNL     1       1.412   1.334  -9.278  1.00  0.00    -0.245 OA
BRANCH  50  51
ATOM     51  S   UNL     1       2.666   2.314  -8.947  1.00  0.00     0.397 S 
ATOM     52  O   UNL     1       3.016   2.138  -7.555  1.00  0.00    -0.169 OA
ATOM     53  O   UNL     1       2.419   3.626  -9.508  1.00  0.00    -0.169 OA
BRANCH  51  54
ATOM     54  O   UNL     1       3.856   1.632  -9.787  1.00  0.00    -0.264 OA
ATOM     55  H   UNL     1       3.820   1.988 -10.698  1.00  0.00     0.236 HD
ENDBRANCH  51  54
ENDBRANCH  50  51
ENDBRANCH   8  50
TORSDOF 19
ENDMDL
MODEL 19
REMARK VINA RESULT:    -6.054      1.661      2.231
REMARK INTER + INTRA:         -16.539
REMARK INTER:                 -13.934
REMARK INTRA:                  -2.604
REMARK UNBOUND:                -4.291
REMARK SMILES CC[C@@H](C)[C@@H](NC(=O)[C@@H](O)Cc1ccc(O)c(Cl)c1)C(=O)N1[C@H](C(=O)NCCCCN=C(N)N)C[C@H]2CC[C@H](OS(=O)(=O)O)C[C@@H]21
REMARK SMILES IDX 22 1 36 2 46 3 35 4 23 5 45 6 37 7 39 8 38 9 20 10 21 11
REMARK SMILES IDX 5 12 6 13 7 14 8 15 9 17 11 18 12 19 17 20 19 21 15 22 14 23
REMARK SMILES IDX 13 24 18 25 16 26 10 28 3 30 4 31 2 32 1 33 24 34 25 35
REMARK SMILES IDX 26 36 27 38 28 39 29 40 30 41 31 42 32 43 33 44 34 45 40 50
REMARK SMILES IDX 41 51 42 52 43 53 44 54
REMARK H PARENT 6 16 16 27 10 29 26 37 33 46 33 47 34 48 34 49 44 55
ROOT
ATOM      1  N   UNL     1      -4.808  -0.878  -9.077  1.00  0.00    -0.326 N 
ATOM      2  C   UNL     1      -5.877  -2.749  -8.130  1.00  0.00     0.014 C 
ATOM      3  C   UNL     1      -5.346  -2.189  -9.452  1.00  0.00     0.091 C 
ATOM      4  C   UNL     1      -6.384  -1.504  -7.418  1.00  0.00     0.041 C 
ATOM      5  C   UNL     1      -5.215  -0.540  -7.691  1.00  0.00     0.175 C 
ATOM      6  C   UNL     1      -4.393  -3.215 -10.063  1.00  0.00     0.059 C 
ATOM      7  C   UNL     1      -6.827  -3.905  -8.373  1.00  0.00     0.008 C 
ATOM      8  C   UNL     1      -4.764  -4.678  -9.739  1.00  0.00     0.143 C 
ATOM      9  C   UNL     1      -6.272  -4.846  -9.463  1.00  0.00     0.034 C 
ENDROOT
BRANCH   1  10
ATOM     10  C   UNL     1      -4.214   0.095  -9.863  1.00  0.00     0.246 C 
ATOM     11  O   UNL     1      -4.814   1.157 -10.060  1.00  0.00    -0.272 OA
BRANCH  10  12
ATOM     12  C   UNL     1      -2.791  -0.150 -10.442  1.00  0.00     0.174 C 
BRANCH  12  13
ATOM     13  N   UNL     1      -1.779   0.268  -9.473  1.00  0.00    -0.342 N 
ATOM     14  C   UNL     1      -0.680  -0.477  -9.106  1.00  0.00     0.249 C 
ATOM     15  O   UNL     1      -0.412  -1.575  -9.579  1.00  0.00    -0.272 OA
ATOM     16  H   UNL     1      -1.949   1.080  -8.885  1.00  0.00     0.164 HD
BRANCH  14  17
ATOM     17  C   UNL     1       0.192   0.229  -8.047  1.00  0.00     0.207 C 
BRANCH  17  18
ATOM     18  C   UNL     1       1.585  -0.405  -7.991  1.00  0.00     0.077 C 
BRANCH  18  19
ATOM     19  C   UNL     1       2.611   0.424  -8.732  1.00  0.00    -0.043 A 
ATOM     20  C   UNL     1       3.717   2.548  -9.116  1.00  0.00     0.083 A 
ATOM     21  C   UNL     1       2.805   1.773  -8.398  1.00  0.00     0.028 A 
ATOM     22  C   UNL     1       4.436   1.983 -10.169  1.00  0.00     0.134 A 
ATOM     23  C   UNL     1       4.254   0.648 -10.510  1.00  0.00     0.048 A 
ATOM     24  C   UNL     1       3.341  -0.130  -9.795  1.00  0.00     0.008 A 
ATOM     25  Cl  UNL     1       3.942   4.204  -8.691  1.00  0.00    -0.080 Cl
BRANCH  22  26
ATOM     26  O   UNL     1       5.333   2.706 -10.908  1.00  0.00    -0.506 OA
ATOM     27  H   UNL     1       5.891   2.061 -11.382  1.00  0.00     0.293 HD
ENDBRANCH  22  26
ENDBRANCH  18  19
ENDBRANCH  17  18
BRANCH  17  28
ATOM     28  O   UNL     1      -0.415   0.161  -6.747  1.00  0.00    -0.383 OA
ATOM     29  H   UNL     1       0.043   0.836  -6.197  1.00  0.00     0.211 HD
ENDBRANCH  17  28
ENDBRANCH  14  17
ENDBRANCH  12  13
BRANCH  12  30
ATOM     30  C   UNL     1      -2.587   0.510 -11.833  1.00  0.00     0.018 C 
ATOM     31  C   UNL     1      -1.909  -0.466 -12.807  1.00  0.00     0.010 C 
BRANCH  30  32
ATOM     32  C   UNL     1      -1.800   1.842 -11.779  1.00  0.00     0.002 C 
ATOM     33  C   UNL     1      -1.443   2.442 -13.133  1.00  0.00     0.004 C 
ENDBRANCH  30  32
ENDBRANCH  12  30
ENDBRANCH  10  12
ENDBRANCH   1  10
BRANCH   5  34
ATOM     34  C   UNL     1      -4.041  -0.769  -6.702  1.00  0.00     0.242 C 
ATOM     35  O   UNL     1      -3.116   0.034  -6.582  1.00  0.00    -0.273 OA
ATOM     36  N   UNL     1      -4.083  -1.958  -6.009  1.00  0.00    -0.354 N 
ATOM     37  H   UNL     1      -4.810  -2.636  -6.240  1.00  0.00     0.163 HD
BRANCH  36  38
ATOM     38  C   UNL     1      -3.196  -2.238  -4.899  1.00  0.00     0.116 C 
BRANCH  38  39
ATOM     39  C   UNL     1      -4.013  -2.529  -3.643  1.00  0.00     0.023 C 
BRANCH  39  40
ATOM     40  C   UNL     1      -3.595  -3.829  -2.964  1.00  0.00     0.026 C 
BRANCH  40  41
ATOM     41  C   UNL     1      -2.240  -3.669  -2.275  1.00  0.00     0.146 C 
BRANCH  41  42
ATOM     42  N   UNL     1      -2.019  -4.782  -1.361  1.00  0.00    -0.254 NA
ATOM     43  C   UNL     1      -1.356  -5.804  -1.756  1.00  0.00     0.185 C 
ATOM     44  N   UNL     1      -0.784  -6.056  -2.947  1.00  0.00    -0.370 N 
ATOM     45  N   UNL     1      -1.167  -6.821  -0.899  1.00  0.00    -0.370 N 
ATOM     46  H   UNL     1      -0.510  -6.991  -3.197  1.00  0.00     0.159 HD
ATOM     47  H   UNL     1      -0.820  -5.385  -3.708  1.00  0.00     0.159 HD
ATOM     48  H   UNL     1      -1.559  -6.708   0.025  1.00  0.00     0.159 HD
ATOM     49  H   UNL     1      -0.474  -7.534  -1.046  1.00  0.00     0.159 HD
ENDBRANCH  41  42
ENDBRANCH  40  41
ENDBRANCH  39  40
ENDBRANCH  38  39
ENDBRANCH  36  38
ENDBRANCH   5  34
BRANCH   8  50
ATOM     50  O   UNL     1      -4.041  -5.125  -8.592  1.00  0.00    -0.245 OA
BRANCH  50  51
ATOM     51  S   UNL     1      -3.036  -6.398  -8.721  1.00  0.00     0.397 S 
ATOM     52  O   UNL     1      -1.834  -6.095  -7.977  1.00  0.00    -0.169 OA
ATOM     53  O   UNL     1      -2.986  -6.839 -10.099  1.00  0.00    -0.169 OA
BRANCH  51  54
ATOM     54  O   UNL     1      -3.808  -7.521  -7.868  1.00  0.00    -0.264 OA
ATOM     55  H   UNL     1      -3.784  -8.354  -8.382  1.00  0.00     0.236 HD
ENDBRANCH  51  54
ENDBRANCH  50  51
ENDBRANCH   8  50
TORSDOF 19
ENDMDL
MODEL 20
REMARK VINA RESULT:    -6.047      5.207      8.501
REMARK INTER + INTRA:         -16.524
REMARK INTER:                 -13.237
REMARK INTRA:                  -3.287
REMARK UNBOUND:                -4.291
REMARK SMILES CC[C@@H](C)[C@@H](NC(=O)[C@@H](O)Cc1ccc(O)c(Cl)c1)C(=O)N1[C@H](C(=O)NCCCCN=C(N)N)C[C@H]2CC[C@H](OS(=O)(=O)O)C[C@@H]21
REMARK SMILES IDX 22 1 36 2 46 3 35 4 23 5 45 6 37 7 39 8 38 9 20 10 21 11
REMARK SMILES IDX 5 12 6 13 7 14 8 15 9 17 11 18 12 19 17 20 19 21 15 22 14 23
REMARK SMILES IDX 13 24 18 25 16 26 10 28 3 30 4 31 2 32 1 33 24 34 25 35
REMARK SMILES IDX 26 36 27 38 28 39 29 40 30 41 31 42 32 43 33 44 34 45 40 50
REMARK SMILES IDX 41 51 42 52 43 53 44 54
REMARK H PARENT 6 16 16 27 10 29 26 37 33 46 33 47 34 48 34 49 44 55
ROOT
ATOM      1  N   UNL     1      -5.693  -1.605  -8.171  1.00  0.00    -0.326 N 
ATOM      2  C   UNL     1      -7.907  -1.665  -7.374  1.00  0.00     0.014 C 
ATOM      3  C   UNL     1      -6.476  -2.086  -7.029  1.00  0.00     0.091 C 
ATOM      4  C   UNL     1      -7.945  -1.815  -8.887  1.00  0.00     0.041 C 
ATOM      5  C   UNL     1      -6.600  -1.163  -9.259  1.00  0.00     0.175 C 
ATOM      6  C   UNL     1      -6.136  -1.548  -5.640  1.00  0.00     0.059 C 
ATOM      7  C   UNL     1      -8.913  -2.420  -6.527  1.00  0.00     0.008 C 
ATOM      8  C   UNL     1      -7.351  -1.467  -4.691  1.00  0.00     0.143 C 
ATOM      9  C   UNL     1      -8.443  -2.492  -5.059  1.00  0.00     0.034 C 
ENDROOT
BRANCH   1  10
ATOM     10  C   UNL     1      -4.337  -1.714  -8.427  1.00  0.00     0.246 C 
ATOM     11  O   UNL     1      -3.567  -0.867  -7.960  1.00  0.00    -0.272 OA
BRANCH  10  12
ATOM     12  C   UNL     1      -3.807  -2.919  -9.256  1.00  0.00     0.174 C 
BRANCH  12  13
ATOM     13  N   UNL     1      -2.958  -3.766  -8.419  1.00  0.00    -0.342 N 
ATOM     14  C   UNL     1      -3.092  -5.129  -8.281  1.00  0.00     0.249 C 
ATOM     15  O   UNL     1      -3.931  -5.795  -8.874  1.00  0.00    -0.272 OA
ATOM     16  H   UNL     1      -2.322  -3.337  -7.750  1.00  0.00     0.164 HD
BRANCH  14  17
ATOM     17  C   UNL     1      -2.054  -5.735  -7.312  1.00  0.00     0.207 C 
BRANCH  17  18
ATOM     18  C   UNL     1      -1.481  -4.650  -6.395  1.00  0.00     0.077 C 
BRANCH  18  19
ATOM     19  C   UNL     1      -1.320  -5.143  -4.974  1.00  0.00    -0.043 A 
ATOM     20  C   UNL     1      -2.169  -5.352  -2.712  1.00  0.00     0.083 A 
ATOM     21  C   UNL     1      -2.341  -4.940  -4.034  1.00  0.00     0.028 A 
ATOM     22  C   UNL     1      -0.978  -5.966  -2.321  1.00  0.00     0.134 A 
ATOM     23  C   UNL     1       0.042  -6.173  -3.243  1.00  0.00     0.048 A 
ATOM     24  C   UNL     1      -0.127  -5.761  -4.566  1.00  0.00     0.008 A 
ATOM     25  Cl  UNL     1      -3.436  -5.093  -1.570  1.00  0.00    -0.080 Cl
BRANCH  22  26
ATOM     26  O   UNL     1      -0.759  -6.377  -1.035  1.00  0.00    -0.506 OA
ATOM     27  H   UNL     1      -1.538  -6.103  -0.516  1.00  0.00     0.293 HD
ENDBRANCH  22  26
ENDBRANCH  18  19
ENDBRANCH  17  18
BRANCH  17  28
ATOM     28  O   UNL     1      -0.983  -6.367  -8.030  1.00  0.00    -0.383 OA
ATOM     29  H   UNL     1      -0.300  -5.671  -8.168  1.00  0.00     0.211 HD
ENDBRANCH  17  28
ENDBRANCH  14  17
ENDBRANCH  12  13
BRANCH  12  30
ATOM     30  C   UNL     1      -3.098  -2.481 -10.566  1.00  0.00     0.018 C 
ATOM     31  C   UNL     1      -1.583  -2.345 -10.349  1.00  0.00     0.010 C 
BRANCH  30  32
ATOM     32  C   UNL     1      -3.667  -1.175 -11.174  1.00  0.00     0.002 C 
ATOM     33  C   UNL     1      -2.760  -0.474 -12.176  1.00  0.00     0.004 C 
ENDBRANCH  30  32
ENDBRANCH  12  30
ENDBRANCH  10  12
ENDBRANCH   1  10
BRANCH   5  34
ATOM     34  C   UNL     1      -6.705   0.386  -9.293  1.00  0.00     0.242 C 
ATOM     35  O   UNL     1      -7.159   0.993 -10.262  1.00  0.00    -0.273 OA
ATOM     36  N   UNL     1      -6.205   1.031  -8.184  1.00  0.00    -0.354 N 
ATOM     37  H   UNL     1      -5.733   0.480  -7.466  1.00  0.00     0.163 HD
BRANCH  36  38
ATOM     38  C   UNL     1      -6.415   2.445  -7.952  1.00  0.00     0.116 C 
BRANCH  38  39
ATOM     39  C   UNL     1      -7.596   2.646  -7.006  1.00  0.00     0.023 C 
BRANCH  39  40
ATOM     40  C   UNL     1      -8.537   3.750  -7.474  1.00  0.00     0.026 C 
BRANCH  40  41
ATOM     41  C   UNL     1      -8.850   4.717  -6.332  1.00  0.00     0.146 C 
BRANCH  41  42
ATOM     42  N   UNL     1      -9.384   3.979  -5.195  1.00  0.00    -0.254 NA
ATOM     43  C   UNL     1     -10.646   3.967  -4.984  1.00  0.00     0.185 C 
ATOM     44  N   UNL     1     -11.644   4.553  -5.671  1.00  0.00    -0.370 N 
ATOM     45  N   UNL     1     -11.118   3.284  -3.927  1.00  0.00    -0.370 N 
ATOM     46  H   UNL     1     -12.554   4.664  -5.258  1.00  0.00     0.159 HD
ATOM     47  H   UNL     1     -11.466   5.099  -6.508  1.00  0.00     0.159 HD
ATOM     48  H   UNL     1     -10.431   2.805  -3.361  1.00  0.00     0.159 HD
ATOM     49  H   UNL     1     -12.085   3.032  -3.831  1.00  0.00     0.159 HD
ENDBRANCH  41  42
ENDBRANCH  40  41
ENDBRANCH  39  40
ENDBRANCH  38  39
ENDBRANCH  36  38
ENDBRANCH   5  34
BRANCH   8  50
ATOM     50  O   UNL     1      -7.922  -0.160  -4.736  1.00  0.00    -0.245 OA
BRANCH  50  51
ATOM     51  S   UNL     1      -8.804   0.375  -3.478  1.00  0.00     0.397 S 
ATOM     52  O   UNL     1      -8.313  -0.271  -2.282  1.00  0.00    -0.169 OA
ATOM     53  O   UNL     1     -10.210   0.358  -3.828  1.00  0.00    -0.169 OA
BRANCH  51  54
ATOM     54  O   UNL     1      -8.339   1.910  -3.370  1.00  0.00    -0.264 OA
ATOM     55  H   UNL     1      -8.669   2.263  -2.519  1.00  0.00     0.236 HD
ENDBRANCH  51  54
ENDBRANCH  50  51
ENDBRANCH   8  50
TORSDOF 19
ENDMDL
MODEL 21
REMARK VINA RESULT:    -5.961      3.165      6.906
REMARK INTER + INTRA:         -16.351
REMARK INTER:                 -12.831
REMARK INTRA:                  -3.520
REMARK UNBOUND:                -4.291
REMARK SMILES CC[C@@H](C)[C@@H](NC(=O)[C@@H](O)Cc1ccc(O)c(Cl)c1)C(=O)N1[C@H](C(=O)NCCCCN=C(N)N)C[C@H]2CC[C@H](OS(=O)(=O)O)C[C@@H]21
REMARK SMILES IDX 22 1 36 2 46 3 35 4 23 5 45 6 37 7 39 8 38 9 20 10 21 11
REMARK SMILES IDX 5 12 6 13 7 14 8 15 9 17 11 18 12 19 17 20 19 21 15 22 14 23
REMARK SMILES IDX 13 24 18 25 16 26 10 28 3 30 4 31 2 32 1 33 24 34 25 35
REMARK SMILES IDX 26 36 27 38 28 39 29 40 30 41 31 42 32 43 33 44 34 45 40 50
REMARK SMILES IDX 41 51 42 52 43 53 44 54
REMARK H PARENT 6 16 16 27 10 29 26 37 33 46 33 47 34 48 34 49 44 55
ROOT
ATOM      1  N   UNL     1      -2.841  -0.230  -8.031  1.00  0.00    -0.326 N 
ATOM      2  C   UNL     1      -1.001  -1.660  -7.696  1.00  0.00     0.014 C 
ATOM      3  C   UNL     1      -1.477  -0.457  -8.516  1.00  0.00     0.091 C 
ATOM      4  C   UNL     1      -2.273  -2.479  -7.535  1.00  0.00     0.041 C 
ATOM      5  C   UNL     1      -3.272  -1.363  -7.176  1.00  0.00     0.175 C 
ATOM      6  C   UNL     1      -0.455   0.668  -8.360  1.00  0.00     0.059 C 
ATOM      7  C   UNL     1       0.219  -2.299  -8.329  1.00  0.00     0.008 C 
ATOM      8  C   UNL     1       0.993   0.170  -8.167  1.00  0.00     0.143 C 
ATOM      9  C   UNL     1       1.217  -1.219  -8.799  1.00  0.00     0.034 C 
ENDROOT
BRANCH   1  10
ATOM     10  C   UNL     1      -3.775   0.715  -8.420  1.00  0.00     0.246 C 
ATOM     11  O   UNL     1      -3.829   1.792  -7.815  1.00  0.00    -0.272 OA
BRANCH  10  12
ATOM     12  C   UNL     1      -4.705   0.421  -9.632  1.00  0.00     0.174 C 
BRANCH  12  13
ATOM     13  N   UNL     1      -5.218  -0.946  -9.547  1.00  0.00    -0.342 N 
ATOM     14  C   UNL     1      -6.418  -1.306  -8.976  1.00  0.00     0.249 C 
ATOM     15  O   UNL     1      -7.212  -0.506  -8.496  1.00  0.00    -0.272 OA
ATOM     16  H   UNL     1      -4.605  -1.729  -9.761  1.00  0.00     0.164 HD
BRANCH  14  17
ATOM     17  C   UNL     1      -6.669  -2.828  -9.026  1.00  0.00     0.207 C 
BRANCH  17  18
ATOM     18  C   UNL     1      -6.038  -3.434 -10.283  1.00  0.00     0.077 C 
BRANCH  18  19
ATOM     19  C   UNL     1      -4.882  -4.349  -9.947  1.00  0.00    -0.043 A 
ATOM     20  C   UNL     1      -2.546  -4.958 -10.183  1.00  0.00     0.083 A 
ATOM     21  C   UNL     1      -3.600  -4.085 -10.455  1.00  0.00     0.028 A 
ATOM     22  C   UNL     1      -2.764  -6.097  -9.407  1.00  0.00     0.134 A 
ATOM     23  C   UNL     1      -4.029  -6.369  -8.897  1.00  0.00     0.048 A 
ATOM     24  C   UNL     1      -5.086  -5.499  -9.169  1.00  0.00     0.008 A 
ATOM     25  Cl  UNL     1      -0.978  -4.618 -10.816  1.00  0.00    -0.080 Cl
BRANCH  22  26
ATOM     26  O   UNL     1      -1.764  -6.987  -9.123  1.00  0.00    -0.506 OA
ATOM     27  H   UNL     1      -1.583  -6.909  -8.168  1.00  0.00     0.293 HD
ENDBRANCH  22  26
ENDBRANCH  18  19
ENDBRANCH  17  18
BRANCH  17  28
ATOM     28  O   UNL     1      -8.075  -3.122  -9.009  1.00  0.00    -0.383 OA
ATOM     29  H   UNL     1      -8.445  -2.728  -9.831  1.00  0.00     0.211 HD
ENDBRANCH  17  28
ENDBRANCH  14  17
ENDBRANCH  12  13
BRANCH  12  30
ATOM     30  C   UNL     1      -4.024   0.713 -10.996  1.00  0.00     0.018 C 
ATOM     31  C   UNL     1      -3.428  -0.570 -11.596  1.00  0.00     0.010 C 
BRANCH  30  32
ATOM     32  C   UNL     1      -2.942   1.819 -10.926  1.00  0.00     0.002 C 
ATOM     33  C   UNL     1      -3.448   3.239 -11.145  1.00  0.00     0.004 C 
ENDBRANCH  30  32
ENDBRANCH  12  30
ENDBRANCH  10  12
ENDBRANCH   1  10
BRANCH   5  34
ATOM     34  C   UNL     1      -3.188  -0.982  -5.674  1.00  0.00     0.242 C 
ATOM     35  O   UNL     1      -2.997   0.174  -5.298  1.00  0.00    -0.273 OA
ATOM     36  N   UNL     1      -3.288  -2.038  -4.796  1.00  0.00    -0.354 N 
ATOM     37  H   UNL     1      -3.325  -2.987  -5.170  1.00  0.00     0.163 HD
BRANCH  36  38
ATOM     38  C   UNL     1      -3.447  -1.845  -3.369  1.00  0.00     0.116 C 
BRANCH  38  39
ATOM     39  C   UNL     1      -3.809  -3.170  -2.703  1.00  0.00     0.023 C 
BRANCH  39  40
ATOM     40  C   UNL     1      -2.589  -3.897  -2.149  1.00  0.00     0.026 C 
BRANCH  40  41
ATOM     41  C   UNL     1      -2.608  -5.372  -2.548  1.00  0.00     0.146 C 
BRANCH  41  42
ATOM     42  N   UNL     1      -1.248  -5.834  -2.794  1.00  0.00    -0.254 NA
ATOM     43  C   UNL     1      -0.747  -5.732  -3.968  1.00  0.00     0.185 C 
ATOM     44  N   UNL     1      -1.286  -5.241  -5.099  1.00  0.00    -0.370 N 
ATOM     45  N   UNL     1       0.506  -6.168  -4.174  1.00  0.00    -0.370 N 
ATOM     46  H   UNL     1      -0.875  -5.446  -5.994  1.00  0.00     0.159 HD
ATOM     47  H   UNL     1      -2.225  -4.856  -5.119  1.00  0.00     0.159 HD
ATOM     48  H   UNL     1       0.988  -6.546  -3.370  1.00  0.00     0.159 HD
ATOM     49  H   UNL     1       1.044  -5.912  -4.983  1.00  0.00     0.159 HD
ENDBRANCH  41  42
ENDBRANCH  40  41
ENDBRANCH  39  40
ENDBRANCH  38  39
ENDBRANCH  36  38
ENDBRANCH   5  34
BRANCH   8  50
ATOM     50  O   UNL     1       1.304   0.091  -6.776  1.00  0.00    -0.245 OA
BRANCH  50  51
ATOM     51  S   UNL     1       1.766   1.431  -5.979  1.00  0.00     0.397 S 
ATOM     52  O   UNL     1       2.586   1.025  -4.860  1.00  0.00    -0.169 OA
ATOM     53  O   UNL     1       0.629   2.311  -5.808  1.00  0.00    -0.169 OA
BRANCH  51  54
ATOM     54  O   UNL     1       2.770   2.117  -7.031  1.00  0.00    -0.264 OA
ATOM     55  H   UNL     1       3.376   1.423  -7.361  1.00  0.00     0.236 HD
ENDBRANCH  51  54
ENDBRANCH  50  51
ENDBRANCH   8  50
TORSDOF 19
ENDMDL
MODEL 22
REMARK VINA RESULT:    -5.938      2.936      4.273
REMARK INTER + INTRA:         -16.304
REMARK INTER:                 -11.434
REMARK INTRA:                  -4.870
REMARK UNBOUND:                -4.291
REMARK SMILES CC[C@@H](C)[C@@H](NC(=O)[C@@H](O)Cc1ccc(O)c(Cl)c1)C(=O)N1[C@H](C(=O)NCCCCN=C(N)N)C[C@H]2CC[C@H](OS(=O)(=O)O)C[C@@H]21
REMARK SMILES IDX 22 1 36 2 46 3 35 4 23 5 45 6 37 7 39 8 38 9 20 10 21 11
REMARK SMILES IDX 5 12 6 13 7 14 8 15 9 17 11 18 12 19 17 20 19 21 15 22 14 23
REMARK SMILES IDX 13 24 18 25 16 26 10 28 3 30 4 31 2 32 1 33 24 34 25 35
REMARK SMILES IDX 26 36 27 38 28 39 29 40 30 41 31 42 32 43 33 44 34 45 40 50
REMARK SMILES IDX 41 51 42 52 43 53 44 54
REMARK H PARENT 6 16 16 27 10 29 26 37 33 46 33 47 34 48 34 49 44 55
ROOT
ATOM      1  N   UNL     1      -4.502  -2.427 -10.505  1.00  0.00    -0.326 N 
ATOM      2  C   UNL     1      -5.137  -4.292  -9.216  1.00  0.00     0.014 C 
ATOM      3  C   UNL     1      -4.147  -3.833 -10.291  1.00  0.00     0.091 C 
ATOM      4  C   UNL     1      -6.392  -3.504  -9.557  1.00  0.00     0.041 C 
ATOM      5  C   UNL     1      -5.779  -2.115  -9.816  1.00  0.00     0.175 C 
ATOM      6  C   UNL     1      -2.732  -4.159  -9.817  1.00  0.00     0.059 C 
ATOM      7  C   UNL     1      -5.204  -5.805  -9.152  1.00  0.00     0.008 C 
ATOM      8  C   UNL     1      -2.649  -5.424  -8.935  1.00  0.00     0.143 C 
ATOM      9  C   UNL     1      -3.790  -6.417  -9.237  1.00  0.00     0.034 C 
ENDROOT
BRANCH   1  10
ATOM     10  C   UNL     1      -3.961  -1.498 -11.377  1.00  0.00     0.246 C 
ATOM     11  O   UNL     1      -4.710  -0.895 -12.153  1.00  0.00    -0.272 OA
BRANCH  10  12
ATOM     12  C   UNL     1      -2.434  -1.203 -11.334  1.00  0.00     0.174 C 
BRANCH  12  13
ATOM     13  N   UNL     1      -2.084  -0.575 -10.060  1.00  0.00    -0.342 N 
ATOM     14  C   UNL     1      -1.073  -0.995  -9.224  1.00  0.00     0.249 C 
ATOM     15  O   UNL     1      -0.329  -1.935  -9.472  1.00  0.00    -0.272 OA
ATOM     16  H   UNL     1      -2.709   0.114  -9.649  1.00  0.00     0.164 HD
BRANCH  14  17
ATOM     17  C   UNL     1      -0.964  -0.137  -7.945  1.00  0.00     0.207 C 
BRANCH  17  18
ATOM     18  C   UNL     1       0.506   0.125  -7.601  1.00  0.00     0.077 C 
BRANCH  18  19
ATOM     19  C   UNL     1       1.225   0.848  -8.718  1.00  0.00    -0.043 A 
ATOM     20  C   UNL     1       3.208   1.178 -10.074  1.00  0.00     0.083 A 
ATOM     21  C   UNL     1       2.530   0.477  -9.077  1.00  0.00     0.028 A 
ATOM     22  C   UNL     1       2.591   2.252 -10.716  1.00  0.00     0.134 A 
ATOM     23  C   UNL     1       1.299   2.630 -10.370  1.00  0.00     0.048 A 
ATOM     24  C   UNL     1       0.617   1.931  -9.371  1.00  0.00     0.008 A 
ATOM     25  Cl  UNL     1       4.811   0.707 -10.502  1.00  0.00    -0.080 Cl
BRANCH  22  26
ATOM     26  O   UNL     1       3.220   2.976 -11.693  1.00  0.00    -0.506 OA
ATOM     27  H   UNL     1       4.111   3.184 -11.357  1.00  0.00     0.293 HD
ENDBRANCH  22  26
ENDBRANCH  18  19
ENDBRANCH  17  18
BRANCH  17  28
ATOM     28  O   UNL     1      -1.606  -0.782  -6.834  1.00  0.00    -0.383 OA
ATOM     29  H   UNL     1      -2.416  -1.208  -7.197  1.00  0.00     0.211 HD
ENDBRANCH  17  28
ENDBRANCH  14  17
ENDBRANCH  12  13
BRANCH  12  30
ATOM     30  C   UNL     1      -1.948  -0.377 -12.555  1.00  0.00     0.018 C 
ATOM     31  C   UNL     1      -0.530  -0.799 -12.971  1.00  0.00     0.010 C 
BRANCH  30  32
ATOM     32  C   UNL     1      -2.002   1.154 -12.331  1.00  0.00     0.002 C 
ATOM     33  C   UNL     1      -1.240   1.989 -13.352  1.00  0.00     0.004 C 
ENDBRANCH  30  32
ENDBRANCH  12  30
ENDBRANCH  10  12
ENDBRANCH   1  10
BRANCH   5  34
ATOM     34  C   UNL     1      -5.517  -1.349  -8.492  1.00  0.00     0.242 C 
ATOM     35  O   UNL     1      -4.409  -0.900  -8.200  1.00  0.00    -0.273 OA
ATOM     36  N   UNL     1      -6.598  -1.257  -7.645  1.00  0.00    -0.354 N 
ATOM     37  H   UNL     1      -7.457  -1.753  -7.888  1.00  0.00     0.163 HD
BRANCH  36  38
ATOM     38  C   UNL     1      -6.595  -0.401  -6.477  1.00  0.00     0.116 C 
BRANCH  38  39
ATOM     39  C   UNL     1      -7.238   0.942  -6.816  1.00  0.00     0.023 C 
BRANCH  39  40
ATOM     40  C   UNL     1      -6.341   2.123  -6.465  1.00  0.00     0.026 C 
BRANCH  40  41
ATOM     41  C   UNL     1      -6.073   2.987  -7.698  1.00  0.00     0.146 C 
BRANCH  41  42
ATOM     42  N   UNL     1      -6.624   2.339  -8.881  1.00  0.00    -0.254 NA
ATOM     43  C   UNL     1      -5.834   1.901  -9.788  1.00  0.00     0.185 C 
ATOM     44  N   UNL     1      -4.490   1.931  -9.854  1.00  0.00    -0.370 N 
ATOM     45  N   UNL     1      -6.361   1.311 -10.874  1.00  0.00    -0.370 N 
ATOM     46  H   UNL     1      -4.016   1.775 -10.727  1.00  0.00     0.159 HD
ATOM     47  H   UNL     1      -3.929   2.331  -9.108  1.00  0.00     0.159 HD
ATOM     48  H   UNL     1      -7.369   1.240 -10.900  1.00  0.00     0.159 HD
ATOM     49  H   UNL     1      -5.820   0.742 -11.500  1.00  0.00     0.159 HD
ENDBRANCH  41  42
ENDBRANCH  40  41
ENDBRANCH  39  40
ENDBRANCH  38  39
ENDBRANCH  36  38
ENDBRANCH   5  34
BRANCH   8  50
ATOM     50  O   UNL     1      -2.714  -5.065  -7.555  1.00  0.00    -0.245 OA
BRANCH  50  51
ATOM     51  S   UNL     1      -1.361  -5.098  -6.652  1.00  0.00     0.397 S 
ATOM     52  O   UNL     1      -0.426  -6.004  -7.282  1.00  0.00    -0.169 OA
ATOM     53  O   UNL     1      -1.713  -5.222  -5.253  1.00  0.00    -0.169 OA
BRANCH  51  54
ATOM     54  O   UNL     1      -0.766  -3.623  -6.885  1.00  0.00    -0.264 OA
ATOM     55  H   UNL     1       0.055  -3.712  -7.411  1.00  0.00     0.236 HD
ENDBRANCH  51  54
ENDBRANCH  50  51
ENDBRANCH   8  50
TORSDOF 19
ENDMDL
MODEL 23
REMARK VINA RESULT:    -5.927      3.479      6.507
REMARK INTER + INTRA:         -16.282
REMARK INTER:                 -11.837
REMARK INTRA:                  -4.445
REMARK UNBOUND:                -4.291
REMARK SMILES CC[C@@H](C)[C@@H](NC(=O)[C@@H](O)Cc1ccc(O)c(Cl)c1)C(=O)N1[C@H](C(=O)NCCCCN=C(N)N)C[C@H]2CC[C@H](OS(=O)(=O)O)C[C@@H]21
REMARK SMILES IDX 22 1 36 2 46 3 35 4 23 5 45 6 37 7 39 8 38 9 20 10 21 11
REMARK SMILES IDX 5 12 6 13 7 14 8 15 9 17 11 18 12 19 17 20 19 21 15 22 14 23
REMARK SMILES IDX 13 24 18 25 16 26 10 28 3 30 4 31 2 32 1 33 24 34 25 35
REMARK SMILES IDX 26 36 27 38 28 39 29 40 30 41 31 42 32 43 33 44 34 45 40 50
REMARK SMILES IDX 41 51 42 52 43 53 44 54
REMARK H PARENT 6 16 16 27 10 29 26 37 33 46 33 47 34 48 34 49 44 55
ROOT
ATOM      1  N   UNL     1      -1.342  -0.655 -10.367  1.00  0.00    -0.326 N 
ATOM      2  C   UNL     1      -3.535   0.193 -10.240  1.00  0.00     0.014 C 
ATOM      3  C   UNL     1      -2.680  -0.878 -10.924  1.00  0.00     0.091 C 
ATOM      4  C   UNL     1      -2.567   1.360 -10.108  1.00  0.00     0.041 C 
ATOM      5  C   UNL     1      -1.314   0.619  -9.607  1.00  0.00     0.175 C 
ATOM      6  C   UNL     1      -3.340  -2.237 -10.701  1.00  0.00     0.059 C 
ATOM      7  C   UNL     1      -4.844   0.394 -10.976  1.00  0.00     0.008 C 
ATOM      8  C   UNL     1      -4.881  -2.173 -10.612  1.00  0.00     0.143 C 
ATOM      9  C   UNL     1      -5.455  -0.965 -11.380  1.00  0.00     0.034 C 
ENDROOT
BRANCH   1  10
ATOM     10  C   UNL     1      -0.152  -1.312 -10.629  1.00  0.00     0.246 C 
ATOM     11  O   UNL     1       0.418  -1.116 -11.708  1.00  0.00    -0.272 OA
BRANCH  10  12
ATOM     12  C   UNL     1       0.464  -2.245  -9.546  1.00  0.00     0.174 C 
BRANCH  12  13
ATOM     13  N   UNL     1      -0.565  -2.639  -8.585  1.00  0.00    -0.342 N 
ATOM     14  C   UNL     1      -0.974  -3.933  -8.351  1.00  0.00     0.249 C 
ATOM     15  O   UNL     1      -0.494  -4.911  -8.910  1.00  0.00    -0.272 OA
ATOM     16  H   UNL     1      -1.158  -1.930  -8.162  1.00  0.00     0.164 HD
BRANCH  14  17
ATOM     17  C   UNL     1      -2.090  -4.022  -7.289  1.00  0.00     0.207 C 
BRANCH  17  18
ATOM     18  C   UNL     1      -1.886  -5.252  -6.398  1.00  0.00     0.077 C 
BRANCH  18  19
ATOM     19  C   UNL     1      -1.962  -4.902  -4.929  1.00  0.00    -0.043 A 
ATOM     20  C   UNL     1      -1.542  -5.467  -2.608  1.00  0.00     0.083 A 
ATOM     21  C   UNL     1      -1.426  -5.770  -3.965  1.00  0.00     0.028 A 
ATOM     22  C   UNL     1      -2.194  -4.301  -2.206  1.00  0.00     0.134 A 
ATOM     23  C   UNL     1      -2.729  -3.433  -3.150  1.00  0.00     0.048 A 
ATOM     24  C   UNL     1      -2.616  -3.733  -4.509  1.00  0.00     0.008 A 
ATOM     25  Cl  UNL     1      -0.878  -6.546  -1.439  1.00  0.00    -0.080 Cl
BRANCH  22  26
ATOM     26  O   UNL     1      -2.342  -3.968  -0.887  1.00  0.00    -0.506 OA
ATOM     27  H   UNL     1      -3.015  -4.570  -0.519  1.00  0.00     0.293 HD
ENDBRANCH  22  26
ENDBRANCH  18  19
ENDBRANCH  17  18
BRANCH  17  28
ATOM     28  O   UNL     1      -3.386  -4.090  -7.905  1.00  0.00    -0.383 OA
ATOM     29  H   UNL     1      -3.380  -4.901  -8.463  1.00  0.00     0.211 HD
ENDBRANCH  17  28
ENDBRANCH  14  17
ENDBRANCH  12  13
BRANCH  12  30
ATOM     30  C   UNL     1       1.711  -1.626  -8.859  1.00  0.00     0.018 C 
ATOM     31  C   UNL     1       1.520  -1.562  -7.336  1.00  0.00     0.010 C 
BRANCH  30  32
ATOM     32  C   UNL     1       2.092  -0.229  -9.406  1.00  0.00     0.002 C 
ATOM     33  C   UNL     1       2.509   0.791  -8.355  1.00  0.00     0.004 C 
ENDBRANCH  30  32
ENDBRANCH  12  30
ENDBRANCH  10  12
ENDBRANCH   1  10
BRANCH   5  34
ATOM     34  C   UNL     1      -1.380   0.350  -8.080  1.00  0.00     0.242 C 
ATOM     35  O   UNL     1      -1.915  -0.655  -7.612  1.00  0.00    -0.273 OA
ATOM     36  N   UNL     1      -0.847   1.342  -7.288  1.00  0.00    -0.354 N 
ATOM     37  H   UNL     1      -0.527   2.205  -7.729  1.00  0.00     0.163 HD
BRANCH  36  38
ATOM     38  C   UNL     1      -0.631   1.163  -5.867  1.00  0.00     0.116 C 
BRANCH  38  39
ATOM     39  C   UNL     1      -1.427   2.206  -5.086  1.00  0.00     0.023 C 
BRANCH  39  40
ATOM     40  C   UNL     1      -2.328   1.579  -4.028  1.00  0.00     0.026 C 
BRANCH  40  41
ATOM     41  C   UNL     1      -3.037   0.344  -4.583  1.00  0.00     0.146 C 
BRANCH  41  42
ATOM     42  N   UNL     1      -4.151   0.754  -5.429  1.00  0.00    -0.254 NA
ATOM     43  C   UNL     1      -4.698  -0.098  -6.212  1.00  0.00     0.185 C 
ATOM     44  N   UNL     1      -4.412  -1.398  -6.412  1.00  0.00    -0.370 N 
ATOM     45  N   UNL     1      -5.720   0.300  -6.987  1.00  0.00    -0.370 N 
ATOM     46  H   UNL     1      -4.756  -1.879  -7.226  1.00  0.00     0.159 HD
ATOM     47  H   UNL     1      -3.674  -1.867  -5.897  1.00  0.00     0.159 HD
ATOM     48  H   UNL     1      -6.005   1.266  -6.892  1.00  0.00     0.159 HD
ATOM     49  H   UNL     1      -6.343  -0.344  -7.440  1.00  0.00     0.159 HD
ENDBRANCH  41  42
ENDBRANCH  40  41
ENDBRANCH  39  40
ENDBRANCH  38  39
ENDBRANCH  36  38
ENDBRANCH   5  34
BRANCH   8  50
ATOM     50  O   UNL     1      -5.290  -2.079  -9.247  1.00  0.00    -0.245 OA
BRANCH  50  51
ATOM     51  S   UNL     1      -6.521  -2.997  -8.713  1.00  0.00     0.397 S 
ATOM     52  O   UNL     1      -6.989  -2.434  -7.466  1.00  0.00    -0.169 OA
ATOM     53  O   UNL     1      -6.170  -4.397  -8.830  1.00  0.00    -0.169 OA
BRANCH  51  54
ATOM     54  O   UNL     1      -7.669  -2.681  -9.794  1.00  0.00    -0.264 OA
ATOM     55  H   UNL     1      -7.439  -3.153 -10.620  1.00  0.00     0.236 HD
ENDBRANCH  51  54
ENDBRANCH  50  51
ENDBRANCH   8  50
TORSDOF 19
ENDMDL
MODEL 24
REMARK VINA RESULT:    -5.922     10.434     15.810
REMARK INTER + INTRA:         -16.272
REMARK INTER:                 -11.946
REMARK INTRA:                  -4.326
REMARK UNBOUND:                -4.291
REMARK SMILES CC[C@@H](C)[C@@H](NC(=O)[C@@H](O)Cc1ccc(O)c(Cl)c1)C(=O)N1[C@H](C(=O)NCCCCN=C(N)N)C[C@H]2CC[C@H](OS(=O)(=O)O)C[C@@H]21
REMARK SMILES IDX 22 1 36 2 46 3 35 4 23 5 45 6 37 7 39 8 38 9 20 10 21 11
REMARK SMILES IDX 5 12 6 13 7 14 8 15 9 17 11 18 12 19 17 20 19 21 15 22 14 23
REMARK SMILES IDX 13 24 18 25 16 26 10 28 3 30 4 31 2 32 1 33 24 34 25 35
REMARK SMILES IDX 26 36 27 38 28 39 29 40 30 41 31 42 32 43 33 44 34 45 40 50
REMARK SMILES IDX 41 51 42 52 43 53 44 54
REMARK H PARENT 6 16 16 27 10 29 26 37 33 46 33 47 34 48 34 49 44 55
ROOT
ATOM      1  N   UNL     1      -6.943  -3.946   4.075  1.00  0.00    -0.326 N 
ATOM      2  C   UNL     1      -5.992  -1.810   3.800  1.00  0.00     0.014 C 
ATOM      3  C   UNL     1      -5.682  -3.229   4.284  1.00  0.00     0.091 C 
ATOM      4  C   UNL     1      -7.449  -1.631   4.197  1.00  0.00     0.041 C 
ATOM      5  C   UNL     1      -8.024  -2.985   3.741  1.00  0.00     0.175 C 
ATOM      6  C   UNL     1      -4.436  -3.726   3.554  1.00  0.00     0.059 C 
ATOM      7  C   UNL     1      -4.957  -0.825   4.307  1.00  0.00     0.008 C 
ATOM      8  C   UNL     1      -3.431  -2.607   3.206  1.00  0.00     0.143 C 
ATOM      9  C   UNL     1      -3.536  -1.412   4.174  1.00  0.00     0.034 C 
ENDROOT
BRANCH   1  10
ATOM     10  C   UNL     1      -7.271  -5.263   4.347  1.00  0.00     0.246 C 
ATOM     11  O   UNL     1      -7.191  -6.102   3.443  1.00  0.00    -0.272 OA
BRANCH  10  12
ATOM     12  C   UNL     1      -7.690  -5.666   5.791  1.00  0.00     0.174 C 
BRANCH  12  13
ATOM     13  N   UNL     1      -7.320  -4.609   6.731  1.00  0.00    -0.342 N 
ATOM     14  C   UNL     1      -8.150  -4.081   7.694  1.00  0.00     0.249 C 
ATOM     15  O   UNL     1      -9.297  -4.464   7.890  1.00  0.00    -0.272 OA
ATOM     16  H   UNL     1      -6.458  -4.088   6.589  1.00  0.00     0.164 HD
BRANCH  14  17
ATOM     17  C   UNL     1      -7.472  -2.967   8.519  1.00  0.00     0.207 C 
BRANCH  17  18
ATOM     18  C   UNL     1      -6.308  -2.352   7.735  1.00  0.00     0.077 C 
BRANCH  18  19
ATOM     19  C   UNL     1      -6.132  -0.883   8.049  1.00  0.00    -0.043 A 
ATOM     20  C   UNL     1      -7.048   1.226   8.820  1.00  0.00     0.083 A 
ATOM     21  C   UNL     1      -7.199  -0.140   8.578  1.00  0.00     0.028 A 
ATOM     22  C   UNL     1      -5.836   1.856   8.536  1.00  0.00     0.134 A 
ATOM     23  C   UNL     1      -4.772   1.132   8.012  1.00  0.00     0.048 A 
ATOM     24  C   UNL     1      -4.920  -0.235   7.766  1.00  0.00     0.008 A 
ATOM     25  Cl  UNL     1      -8.370   2.123   9.470  1.00  0.00    -0.080 Cl
BRANCH  22  26
ATOM     26  O   UNL     1      -5.644   3.195   8.746  1.00  0.00    -0.506 OA
ATOM     27  H   UNL     1      -5.655   3.621   7.869  1.00  0.00     0.293 HD
ENDBRANCH  22  26
ENDBRANCH  18  19
ENDBRANCH  17  18
BRANCH  17  28
ATOM     28  O   UNL     1      -6.986  -3.473   9.773  1.00  0.00    -0.383 OA
ATOM     29  H   UNL     1      -7.784  -3.706  10.299  1.00  0.00     0.211 HD
ENDBRANCH  17  28
ENDBRANCH  14  17
ENDBRANCH  12  13
BRANCH  12  30
ATOM     30  C   UNL     1      -7.137  -7.054   6.211  1.00  0.00     0.018 C 
ATOM     31  C   UNL     1      -8.175  -7.830   7.036  1.00  0.00     0.010 C 
BRANCH  30  32
ATOM     32  C   UNL     1      -5.794  -6.981   6.978  1.00  0.00     0.002 C 
ATOM     33  C   UNL     1      -4.556  -6.808   6.108  1.00  0.00     0.004 C 
ENDBRANCH  30  32
ENDBRANCH  12  30
ENDBRANCH  10  12
ENDBRANCH   1  10
BRANCH   5  34
ATOM     34  C   UNL     1      -8.320  -2.997   2.218  1.00  0.00     0.242 C 
ATOM     35  O   UNL     1      -8.784  -2.020   1.630  1.00  0.00    -0.273 OA
ATOM     36  N   UNL     1      -8.077  -4.195   1.583  1.00  0.00    -0.354 N 
ATOM     37  H   UNL     1      -7.807  -5.003   2.145  1.00  0.00     0.163 HD
BRANCH  36  38
ATOM     38  C   UNL     1      -8.091  -4.322   0.141  1.00  0.00     0.116 C 
BRANCH  38  39
ATOM     39  C   UNL     1      -6.661  -4.419  -0.385  1.00  0.00     0.023 C 
BRANCH  39  40
ATOM     40  C   UNL     1      -5.794  -5.354   0.451  1.00  0.00     0.026 C 
BRANCH  40  41
ATOM     41  C   UNL     1      -4.310  -5.088   0.200  1.00  0.00     0.146 C 
BRANCH  41  42
ATOM     42  N   UNL     1      -3.887  -5.767  -1.018  1.00  0.00    -0.254 NA
ATOM     43  C   UNL     1      -2.750  -5.489  -1.536  1.00  0.00     0.185 C 
ATOM     44  N   UNL     1      -1.804  -4.622  -1.132  1.00  0.00    -0.370 N 
ATOM     45  N   UNL     1      -2.381  -6.123  -2.661  1.00  0.00    -0.370 N 
ATOM     46  H   UNL     1      -1.076  -4.328  -1.761  1.00  0.00     0.159 HD
ATOM     47  H   UNL     1      -1.914  -4.067  -0.289  1.00  0.00     0.159 HD
ATOM     48  H   UNL     1      -3.035  -6.802  -3.029  1.00  0.00     0.159 HD
ATOM     49  H   UNL     1      -1.432  -6.141  -2.990  1.00  0.00     0.159 HD
ENDBRANCH  41  42
ENDBRANCH  40  41
ENDBRANCH  39  40
ENDBRANCH  38  39
ENDBRANCH  36  38
ENDBRANCH   5  34
BRANCH   8  50
ATOM     50  O   UNL     1      -3.663  -2.136   1.878  1.00  0.00    -0.245 OA
BRANCH  50  51
ATOM     51  S   UNL     1      -2.409  -1.624   0.977  1.00  0.00     0.397 S 
ATOM     52  O   UNL     1      -1.345  -2.595   1.101  1.00  0.00    -0.169 OA
ATOM     53  O   UNL     1      -2.183  -0.214   1.216  1.00  0.00    -0.169 OA
BRANCH  51  54
ATOM     54  O   UNL     1      -2.980  -1.788  -0.517  1.00  0.00    -0.264 OA
ATOM     55  H   UNL     1      -3.247  -2.723  -0.633  1.00  0.00     0.236 HD
ENDBRANCH  51  54
ENDBRANCH  50  51
ENDBRANCH   8  50
TORSDOF 19
ENDMDL
MODEL 25
REMARK VINA RESULT:    -5.920     13.840     18.037
REMARK INTER + INTRA:         -16.267
REMARK INTER:                 -12.001
REMARK INTRA:                  -4.266
REMARK UNBOUND:                -4.291
REMARK SMILES CC[C@@H](C)[C@@H](NC(=O)[C@@H](O)Cc1ccc(O)c(Cl)c1)C(=O)N1[C@H](C(=O)NCCCCN=C(N)N)C[C@H]2CC[C@H](OS(=O)(=O)O)C[C@@H]21
REMARK SMILES IDX 22 1 36 2 46 3 35 4 23 5 45 6 37 7 39 8 38 9 20 10 21 11
REMARK SMILES IDX 5 12 6 13 7 14 8 15 9 17 11 18 12 19 17 20 19 21 15 22 14 23
REMARK SMILES IDX 13 24 18 25 16 26 10 28 3 30 4 31 2 32 1 33 24 34 25 35
REMARK SMILES IDX 26 36 27 38 28 39 29 40 30 41 31 42 32 43 33 44 34 45 40 50
REMARK SMILES IDX 41 51 42 52 43 53 44 54
REMARK H PARENT 6 16 16 27 10 29 26 37 33 46 33 47 34 48 34 49 44 55
ROOT
ATOM      1  N   UNL     1      -7.098  -6.552   6.415  1.00  0.00    -0.326 N 
ATOM      2  C   UNL     1      -7.150  -5.846   8.660  1.00  0.00     0.014 C 
ATOM      3  C   UNL     1      -7.742  -5.557   7.277  1.00  0.00     0.091 C 
ATOM      4  C   UNL     1      -5.729  -6.277   8.333  1.00  0.00     0.041 C 
ATOM      5  C   UNL     1      -5.997  -7.224   7.149  1.00  0.00     0.175 C 
ATOM      6  C   UNL     1      -9.265  -5.575   7.391  1.00  0.00     0.059 C 
ATOM      7  C   UNL     1      -7.375  -4.679   9.600  1.00  0.00     0.008 C 
ATOM      8  C   UNL     1      -9.792  -5.097   8.761  1.00  0.00     0.143 C 
ATOM      9  C   UNL     1      -8.810  -4.131   9.454  1.00  0.00     0.034 C 
ENDROOT
BRANCH   1  10
ATOM     10  C   UNL     1      -7.228  -6.763   5.053  1.00  0.00     0.246 C 
ATOM     11  O   UNL     1      -8.032  -7.610   4.650  1.00  0.00    -0.272 OA
BRANCH  10  12
ATOM     12  C   UNL     1      -6.394  -5.903   4.060  1.00  0.00     0.174 C 
BRANCH  12  13
ATOM     13  N   UNL     1      -6.354  -4.513   4.515  1.00  0.00    -0.342 N 
ATOM     14  C   UNL     1      -5.244  -3.881   5.028  1.00  0.00     0.249 C 
ATOM     15  O   UNL     1      -4.146  -4.412   5.135  1.00  0.00    -0.272 OA
ATOM     16  H   UNL     1      -7.223  -3.997   4.633  1.00  0.00     0.164 HD
BRANCH  14  17
ATOM     17  C   UNL     1      -5.526  -2.420   5.437  1.00  0.00     0.207 C 
BRANCH  17  18
ATOM     18  C   UNL     1      -6.320  -2.373   6.747  1.00  0.00     0.077 C 
BRANCH  18  19
ATOM     19  C   UNL     1      -5.847  -1.258   7.651  1.00  0.00    -0.043 A 
ATOM     20  C   UNL     1      -4.453   0.690   8.035  1.00  0.00     0.083 A 
ATOM     21  C   UNL     1      -4.925  -0.309   7.182  1.00  0.00     0.028 A 
ATOM     22  C   UNL     1      -4.896   0.747   9.357  1.00  0.00     0.134 A 
ATOM     23  C   UNL     1      -5.809  -0.186   9.834  1.00  0.00     0.048 A 
ATOM     24  C   UNL     1      -6.282  -1.188   8.984  1.00  0.00     0.008 A 
ATOM     25  Cl  UNL     1      -3.320   1.847   7.441  1.00  0.00    -0.080 Cl
BRANCH  22  26
ATOM     26  O   UNL     1      -4.453   1.701  10.232  1.00  0.00    -0.506 OA
ATOM     27  H   UNL     1      -3.605   2.032   9.881  1.00  0.00     0.293 HD
ENDBRANCH  22  26
ENDBRANCH  18  19
ENDBRANCH  17  18
BRANCH  17  28
ATOM     28  O   UNL     1      -6.258  -1.728   4.412  1.00  0.00    -0.383 OA
ATOM     29  H   UNL     1      -5.582  -1.353   3.802  1.00  0.00     0.211 HD
ENDBRANCH  17  28
ENDBRANCH  14  17
ENDBRANCH  12  13
BRANCH  12  30
ATOM     30  C   UNL     1      -6.887  -6.031   2.593  1.00  0.00     0.018 C 
ATOM     31  C   UNL     1      -5.711  -5.921   1.610  1.00  0.00     0.010 C 
BRANCH  30  32
ATOM     32  C   UNL     1      -7.992  -5.014   2.218  1.00  0.00     0.002 C 
ATOM     33  C   UNL     1      -7.940  -4.496   0.786  1.00  0.00     0.004 C 
ENDBRANCH  30  32
ENDBRANCH  12  30
ENDBRANCH  10  12
ENDBRANCH   1  10
BRANCH   5  34
ATOM     34  C   UNL     1      -6.437  -8.632   7.631  1.00  0.00     0.242 C 
ATOM     35  O   UNL     1      -7.531  -8.835   8.158  1.00  0.00    -0.273 OA
ATOM     36  N   UNL     1      -5.496  -9.625   7.475  1.00  0.00    -0.354 N 
ATOM     37  H   UNL     1      -4.565  -9.372   7.143  1.00  0.00     0.163 HD
BRANCH  36  38
ATOM     38  C   UNL     1      -5.810 -11.026   7.668  1.00  0.00     0.116 C 
BRANCH  38  39
ATOM     39  C   UNL     1      -6.364 -11.616   6.374  1.00  0.00     0.023 C 
BRANCH  39  40
ATOM     40  C   UNL     1      -7.767 -12.189   6.548  1.00  0.00     0.026 C 
BRANCH  40  41
ATOM     41  C   UNL     1      -8.808 -11.280   5.895  1.00  0.00     0.146 C 
BRANCH  41  42
ATOM     42  N   UNL     1      -9.997 -11.213   6.735  1.00  0.00    -0.254 NA
ATOM     43  C   UNL     1     -10.515 -10.074   7.009  1.00  0.00     0.185 C 
ATOM     44  N   UNL     1     -10.135  -8.838   6.637  1.00  0.00    -0.370 N 
ATOM     45  N   UNL     1     -11.608 -10.033   7.788  1.00  0.00    -0.370 N 
ATOM     46  H   UNL     1     -10.482  -8.028   7.120  1.00  0.00     0.159 HD
ATOM     47  H   UNL     1      -9.332  -8.687   6.033  1.00  0.00     0.159 HD
ATOM     48  H   UNL     1     -11.966 -10.924   8.106  1.00  0.00     0.159 HD
ATOM     49  H   UNL     1     -12.200  -9.224   7.852  1.00  0.00     0.159 HD
ENDBRANCH  41  42
ENDBRANCH  40  41
ENDBRANCH  39  40
ENDBRANCH  38  39
ENDBRANCH  36  38
ENDBRANCH   5  34
BRANCH   8  50
ATOM     50  O   UNL     1     -10.008  -6.217   9.621  1.00  0.00    -0.245 OA
BRANCH  50  51
ATOM     51  S   UNL     1     -11.462  -6.947   9.638  1.00  0.00     0.397 S 
ATOM     52  O   UNL     1     -11.327  -8.192  10.360  1.00  0.00    -0.169 OA
ATOM     53  O   UNL     1     -12.047  -6.896   8.314  1.00  0.00    -0.169 OA
BRANCH  51  54
ATOM     54  O   UNL     1     -12.314  -5.976  10.595  1.00  0.00    -0.264 OA
ATOM     55  H   UNL     1     -13.252  -6.247  10.536  1.00  0.00     0.236 HD
ENDBRANCH  51  54
ENDBRANCH  50  51
ENDBRANCH   8  50
TORSDOF 19
ENDMDL
MODEL 26
REMARK VINA RESULT:    -5.873      3.694      8.656
REMARK INTER + INTRA:         -16.173
REMARK INTER:                 -11.698
REMARK INTRA:                  -4.474
REMARK UNBOUND:                -4.291
REMARK SMILES CC[C@@H](C)[C@@H](NC(=O)[C@@H](O)Cc1ccc(O)c(Cl)c1)C(=O)N1[C@H](C(=O)NCCCCN=C(N)N)C[C@H]2CC[C@H](OS(=O)(=O)O)C[C@@H]21
REMARK SMILES IDX 22 1 36 2 46 3 35 4 23 5 45 6 37 7 39 8 38 9 20 10 21 11
REMARK SMILES IDX 5 12 6 13 7 14 8 15 9 17 11 18 12 19 17 20 19 21 15 22 14 23
REMARK SMILES IDX 13 24 18 25 16 26 10 28 3 30 4 31 2 32 1 33 24 34 25 35
REMARK SMILES IDX 26 36 27 38 28 39 29 40 30 41 31 42 32 43 33 44 34 45 40 50
REMARK SMILES IDX 41 51 42 52 43 53 44 54
REMARK H PARENT 6 16 16 27 10 29 26 37 33 46 33 47 34 48 34 49 44 55
ROOT
ATOM      1  N   UNL     1      -1.582  -2.514  -9.466  1.00  0.00    -0.326 N 
ATOM      2  C   UNL     1      -2.076  -0.238  -9.122  1.00  0.00     0.014 C 
ATOM      3  C   UNL     1      -1.620  -1.508  -8.399  1.00  0.00     0.091 C 
ATOM      4  C   UNL     1      -3.034  -0.776 -10.174  1.00  0.00     0.041 C 
ATOM      5  C   UNL     1      -2.221  -1.977 -10.692  1.00  0.00     0.175 C 
ATOM      6  C   UNL     1      -0.325  -1.199  -7.649  1.00  0.00     0.059 C 
ATOM      7  C   UNL     1      -2.567   0.802  -8.133  1.00  0.00     0.008 C 
ATOM      8  C   UNL     1      -0.231   0.258  -7.147  1.00  0.00     0.143 C 
ATOM      9  C   UNL     1      -1.623   0.881  -6.915  1.00  0.00     0.034 C 
ENDROOT
BRANCH   1  10
ATOM     10  C   UNL     1      -1.258  -3.858  -9.407  1.00  0.00     0.246 C 
ATOM     11  O   UNL     1      -0.170  -4.235  -9.856  1.00  0.00    -0.272 OA
BRANCH  10  12
ATOM     12  C   UNL     1      -2.247  -4.857  -8.740  1.00  0.00     0.174 C 
BRANCH  12  13
ATOM     13  N   UNL     1      -3.625  -4.419  -8.963  1.00  0.00    -0.342 N 
ATOM     14  C   UNL     1      -4.709  -5.257  -9.093  1.00  0.00     0.249 C 
ATOM     15  O   UNL     1      -4.643  -6.477  -9.008  1.00  0.00    -0.272 OA
ATOM     16  H   UNL     1      -3.811  -3.451  -9.211  1.00  0.00     0.164 HD
BRANCH  14  17
ATOM     17  C   UNL     1      -6.027  -4.492  -9.339  1.00  0.00     0.207 C 
BRANCH  17  18
ATOM     18  C   UNL     1      -6.209  -3.389  -8.292  1.00  0.00     0.077 C 
BRANCH  18  19
ATOM     19  C   UNL     1      -6.295  -2.019  -8.927  1.00  0.00    -0.043 A 
ATOM     20  C   UNL     1      -6.311   0.397  -8.720  1.00  0.00     0.083 A 
ATOM     21  C   UNL     1      -6.182  -0.864  -8.138  1.00  0.00     0.028 A 
ATOM     22  C   UNL     1      -6.554   0.513 -10.089  1.00  0.00     0.134 A 
ATOM     23  C   UNL     1      -6.667  -0.623 -10.882  1.00  0.00     0.048 A 
ATOM     24  C   UNL     1      -6.540  -1.887 -10.303  1.00  0.00     0.008 A 
ATOM     25  Cl  UNL     1      -6.170   1.805  -7.734  1.00  0.00    -0.080 Cl
BRANCH  22  26
ATOM     26  O   UNL     1      -6.698   1.728 -10.703  1.00  0.00    -0.506 OA
ATOM     27  H   UNL     1      -5.947   1.822 -11.318  1.00  0.00     0.293 HD
ENDBRANCH  22  26
ENDBRANCH  18  19
ENDBRANCH  17  18
BRANCH  17  28
ATOM     28  O   UNL     1      -7.156  -5.380  -9.298  1.00  0.00    -0.383 OA
ATOM     29  H   UNL     1      -7.128  -5.815  -8.415  1.00  0.00     0.211 HD
ENDBRANCH  17  28
ENDBRANCH  14  17
ENDBRANCH  12  13
BRANCH  12  30
ATOM     30  C   UNL     1      -1.938  -5.095  -7.237  1.00  0.00     0.018 C 
ATOM     31  C   UNL     1      -2.584  -4.006  -6.367  1.00  0.00     0.010 C 
BRANCH  30  32
ATOM     32  C   UNL     1      -0.425  -5.199  -6.923  1.00  0.00     0.002 C 
ATOM     33  C   UNL     1      -0.062  -5.137  -5.445  1.00  0.00     0.004 C 
ENDBRANCH  30  32
ENDBRANCH  12  30
ENDBRANCH  10  12
ENDBRANCH   1  10
BRANCH   5  34
ATOM     34  C   UNL     1      -1.149  -1.539 -11.725  1.00  0.00     0.242 C 
ATOM     35  O   UNL     1       0.047  -1.793 -11.580  1.00  0.00    -0.273 OA
ATOM     36  N   UNL     1      -1.624  -0.800 -12.785  1.00  0.00    -0.354 N 
ATOM     37  H   UNL     1      -2.605  -0.519 -12.788  1.00  0.00     0.163 HD
BRANCH  36  38
ATOM     38  C   UNL     1      -0.808  -0.495 -13.943  1.00  0.00     0.116 C 
BRANCH  38  39
ATOM     39  C   UNL     1      -0.360   0.963 -13.891  1.00  0.00     0.023 C 
BRANCH  39  40
ATOM     40  C   UNL     1      -1.353   1.853 -13.151  1.00  0.00     0.026 C 
BRANCH  40  41
ATOM     41  C   UNL     1      -0.727   2.419 -11.876  1.00  0.00     0.146 C 
BRANCH  41  42
ATOM     42  N   UNL     1       0.700   2.127 -11.856  1.00  0.00    -0.254 NA
ATOM     43  C   UNL     1       1.496   2.900 -11.219  1.00  0.00     0.185 C 
ATOM     44  N   UNL     1       1.237   4.016 -10.512  1.00  0.00    -0.370 N 
ATOM     45  N   UNL     1       2.808   2.616 -11.216  1.00  0.00    -0.370 N 
ATOM     46  H   UNL     1       1.977   4.654 -10.272  1.00  0.00     0.159 HD
ATOM     47  H   UNL     1       0.292   4.368 -10.399  1.00  0.00     0.159 HD
ATOM     48  H   UNL     1       3.088   1.784 -11.719  1.00  0.00     0.159 HD
ATOM     49  H   UNL     1       3.452   3.022 -10.561  1.00  0.00     0.159 HD
ENDBRANCH  41  42
ENDBRANCH  40  41
ENDBRANCH  39  40
ENDBRANCH  38  39
ENDBRANCH  36  38
ENDBRANCH   5  34
BRANCH   8  50
ATOM     50  O   UNL     1       0.472   1.060  -8.097  1.00  0.00    -0.245 OA
BRANCH  50  51
ATOM     51  S   UNL     1       1.957   1.615  -7.735  1.00  0.00     0.397 S 
ATOM     52  O   UNL     1       1.877   3.052  -7.601  1.00  0.00    -0.169 OA
ATOM     53  O   UNL     1       2.935   0.986  -8.599  1.00  0.00    -0.169 OA
BRANCH  51  54
ATOM     54  O   UNL     1       2.174   1.048  -6.246  1.00  0.00    -0.264 OA
ATOM     55  H   UNL     1       2.196   1.813  -5.636  1.00  0.00     0.236 HD
ENDBRANCH  51  54
ENDBRANCH  50  51
ENDBRANCH   8  50
TORSDOF 19
ENDMDL
MODEL 27
REMARK VINA RESULT:    -5.812      4.322      7.606
REMARK INTER + INTRA:         -16.050
REMARK INTER:                 -11.732
REMARK INTRA:                  -4.317
REMARK UNBOUND:                -4.291
REMARK SMILES CC[C@@H](C)[C@@H](NC(=O)[C@@H](O)Cc1ccc(O)c(Cl)c1)C(=O)N1[C@H](C(=O)NCCCCN=C(N)N)C[C@H]2CC[C@H](OS(=O)(=O)O)C[C@@H]21
REMARK SMILES IDX 22 1 36 2 46 3 35 4 23 5 45 6 37 7 39 8 38 9 20 10 21 11
REMARK SMILES IDX 5 12 6 13 7 14 8 15 9 17 11 18 12 19 17 20 19 21 15 22 14 23
REMARK SMILES IDX 13 24 18 25 16 26 10 28 3 30 4 31 2 32 1 33 24 34 25 35
REMARK SMILES IDX 26 36 27 38 28 39 29 40 30 41 31 42 32 43 33 44 34 45 40 50
REMARK SMILES IDX 41 51 42 52 43 53 44 54
REMARK H PARENT 6 16 16 27 10 29 26 37 33 46 33 47 34 48 34 49 44 55
ROOT
ATOM      1  N   UNL     1       2.681   0.429  -9.292  1.00  0.00    -0.326 N 
ATOM      2  C   UNL     1       1.765   0.434  -7.123  1.00  0.00     0.014 C 
ATOM      3  C   UNL     1       2.629   1.256  -8.084  1.00  0.00     0.091 C 
ATOM      4  C   UNL     1       2.144  -0.997  -7.474  1.00  0.00     0.041 C 
ATOM      5  C   UNL     1       2.121  -0.916  -9.011  1.00  0.00     0.175 C 
ATOM      6  C   UNL     1       2.032   2.658  -8.190  1.00  0.00     0.059 C 
ATOM      7  C   UNL     1       1.929   0.918  -5.696  1.00  0.00     0.008 C 
ATOM      8  C   UNL     1       1.339   3.139  -6.897  1.00  0.00     0.143 C 
ATOM      9  C   UNL     1       1.923   2.460  -5.641  1.00  0.00     0.034 C 
ENDROOT
BRANCH   1  10
ATOM     10  C   UNL     1       3.335   0.650 -10.492  1.00  0.00     0.246 C 
ATOM     11  O   UNL     1       4.511   0.290 -10.611  1.00  0.00    -0.272 OA
BRANCH  10  12
ATOM     12  C   UNL     1       2.565   1.305 -11.676  1.00  0.00     0.174 C 
BRANCH  12  13
ATOM     13  N   UNL     1       1.274   1.812 -11.212  1.00  0.00    -0.342 N 
ATOM     14  C   UNL     1       0.801   3.086 -11.430  1.00  0.00     0.249 C 
ATOM     15  O   UNL     1       1.406   3.938 -12.070  1.00  0.00    -0.272 OA
ATOM     16  H   UNL     1       0.735   1.274 -10.538  1.00  0.00     0.164 HD
BRANCH  14  17
ATOM     17  C   UNL     1      -0.588   3.322 -10.799  1.00  0.00     0.207 C 
BRANCH  17  18
ATOM     18  C   UNL     1      -1.673   3.327 -11.880  1.00  0.00     0.077 C 
BRANCH  18  19
ATOM     19  C   UNL     1      -2.644   2.180 -11.707  1.00  0.00    -0.043 A 
ATOM     20  C   UNL     1      -4.716   1.297 -10.807  1.00  0.00     0.083 A 
ATOM     21  C   UNL     1      -3.846   2.370 -11.008  1.00  0.00     0.028 A 
ATOM     22  C   UNL     1      -4.392   0.033 -11.300  1.00  0.00     0.134 A 
ATOM     23  C   UNL     1      -3.204  -0.168 -11.994  1.00  0.00     0.048 A 
ATOM     24  C   UNL     1      -2.330   0.902 -12.195  1.00  0.00     0.008 A 
ATOM     25  Cl  UNL     1      -6.189   1.549  -9.946  1.00  0.00    -0.080 Cl
BRANCH  22  26
ATOM     26  O   UNL     1      -5.208  -1.051 -11.119  1.00  0.00    -0.506 OA
ATOM     27  H   UNL     1      -6.112  -0.704 -11.004  1.00  0.00     0.293 HD
ENDBRANCH  22  26
ENDBRANCH  18  19
ENDBRANCH  17  18
BRANCH  17  28
ATOM     28  O   UNL     1      -0.625   4.566 -10.080  1.00  0.00    -0.383 OA
ATOM     29  H   UNL     1      -1.385   4.498  -9.459  1.00  0.00     0.211 HD
ENDBRANCH  17  28
ENDBRANCH  14  17
ENDBRANCH  12  13
BRANCH  12  30
ATOM     30  C   UNL     1       2.425   0.357 -12.898  1.00  0.00     0.018 C 
ATOM     31  C   UNL     1       3.387   0.771 -14.023  1.00  0.00     0.010 C 
BRANCH  30  32
ATOM     32  C   UNL     1       0.980   0.257 -13.444  1.00  0.00     0.002 C 
ATOM     33  C   UNL     1       0.415  -1.155 -13.537  1.00  0.00     0.004 C 
ENDBRANCH  30  32
ENDBRANCH  12  30
ENDBRANCH  10  12
ENDBRANCH   1  10
BRANCH   5  34
ATOM     34  C   UNL     1       0.677  -1.039  -9.568  1.00  0.00     0.242 C 
ATOM     35  O   UNL     1      -0.056  -0.062  -9.717  1.00  0.00    -0.273 OA
ATOM     36  N   UNL     1       0.259  -2.324  -9.833  1.00  0.00    -0.354 N 
ATOM     37  H   UNL     1       0.868  -3.102  -9.577  1.00  0.00     0.163 HD
BRANCH  36  38
ATOM     38  C   UNL     1      -0.966  -2.605 -10.553  1.00  0.00     0.116 C 
BRANCH  38  39
ATOM     39  C   UNL     1      -2.137  -2.673  -9.576  1.00  0.00     0.023 C 
BRANCH  39  40
ATOM     40  C   UNL     1      -3.220  -3.645 -10.031  1.00  0.00     0.026 C 
BRANCH  40  41
ATOM     41  C   UNL     1      -2.645  -5.049 -10.220  1.00  0.00     0.146 C 
BRANCH  41  42
ATOM     42  N   UNL     1      -2.138  -5.548  -8.949  1.00  0.00    -0.254 NA
ATOM     43  C   UNL     1      -0.933  -5.974  -8.871  1.00  0.00     0.185 C 
ATOM     44  N   UNL     1       0.021  -6.050  -9.817  1.00  0.00    -0.370 N 
ATOM     45  N   UNL     1      -0.487  -6.435  -7.691  1.00  0.00    -0.370 N 
ATOM     46  H   UNL     1       0.833  -6.627  -9.681  1.00  0.00     0.159 HD
ATOM     47  H   UNL     1      -0.144  -5.731 -10.766  1.00  0.00     0.159 HD
ATOM     48  H   UNL     1      -1.141  -6.405  -6.921  1.00  0.00     0.159 HD
ATOM     49  H   UNL     1       0.490  -6.560  -7.490  1.00  0.00     0.159 HD
ENDBRANCH  41  42
ENDBRANCH  40  41
ENDBRANCH  39  40
ENDBRANCH  38  39
ENDBRANCH  36  38
ENDBRANCH   5  34
BRANCH   8  50
ATOM     50  O   UNL     1      -0.059   2.857  -6.956  1.00  0.00    -0.245 OA
BRANCH  50  51
ATOM     51  S   UNL     1      -1.131   4.050  -6.684  1.00  0.00     0.397 S 
ATOM     52  O   UNL     1      -1.261   4.215  -5.253  1.00  0.00    -0.169 OA
ATOM     53  O   UNL     1      -2.287   3.868  -7.536  1.00  0.00    -0.169 OA
BRANCH  51  54
ATOM     54  O   UNL     1      -0.331   5.344  -7.203  1.00  0.00    -0.264 OA
ATOM     55  H   UNL     1      -0.941   6.109  -7.161  1.00  0.00     0.236 HD
ENDBRANCH  51  54
ENDBRANCH  50  51
ENDBRANCH   8  50
TORSDOF 19
ENDMDL
MODEL 28
REMARK VINA RESULT:    -5.770      8.909     12.324
REMARK INTER + INTRA:         -15.965
REMARK INTER:                 -12.705
REMARK INTRA:                  -3.260
REMARK UNBOUND:                -4.291
REMARK SMILES CC[C@@H](C)[C@@H](NC(=O)[C@@H](O)Cc1ccc(O)c(Cl)c1)C(=O)N1[C@H](C(=O)NCCCCN=C(N)N)C[C@H]2CC[C@H](OS(=O)(=O)O)C[C@@H]21
REMARK SMILES IDX 22 1 36 2 46 3 35 4 23 5 45 6 37 7 39 8 38 9 20 10 21 11
REMARK SMILES IDX 5 12 6 13 7 14 8 15 9 17 11 18 12 19 17 20 19 21 15 22 14 23
REMARK SMILES IDX 13 24 18 25 16 26 10 28 3 30 4 31 2 32 1 33 24 34 25 35
REMARK SMILES IDX 26 36 27 38 28 39 29 40 30 41 31 42 32 43 33 44 34 45 40 50
REMARK SMILES IDX 41 51 42 52 43 53 44 54
REMARK H PARENT 6 16 16 27 10 29 26 37 33 46 33 47 34 48 34 49 44 55
ROOT
ATOM      1  N   UNL     1      -5.286  -2.874   2.821  1.00  0.00    -0.326 N 
ATOM      2  C   UNL     1      -7.303  -3.461   3.882  1.00  0.00     0.014 C 
ATOM      3  C   UNL     1      -6.203  -4.008   2.968  1.00  0.00     0.091 C 
ATOM      4  C   UNL     1      -7.399  -2.004   3.457  1.00  0.00     0.041 C 
ATOM      5  C   UNL     1      -5.904  -1.645   3.377  1.00  0.00     0.175 C 
ATOM      6  C   UNL     1      -5.666  -5.301   3.579  1.00  0.00     0.059 C 
ATOM      7  C   UNL     1      -8.541  -4.335   3.824  1.00  0.00     0.008 C 
ATOM      8  C   UNL     1      -6.724  -6.103   4.366  1.00  0.00     0.143 C 
ATOM      9  C   UNL     1      -8.154  -5.829   3.859  1.00  0.00     0.034 C 
ENDROOT
BRANCH   1  10
ATOM     10  C   UNL     1      -4.114  -2.770   2.090  1.00  0.00     0.246 C 
ATOM     11  O   UNL     1      -3.044  -3.084   2.622  1.00  0.00    -0.272 OA
BRANCH  10  12
ATOM     12  C   UNL     1      -4.175  -2.301   0.608  1.00  0.00     0.174 C 
BRANCH  12  13
ATOM     13  N   UNL     1      -3.157  -2.998  -0.178  1.00  0.00    -0.342 N 
ATOM     14  C   UNL     1      -3.409  -3.786  -1.278  1.00  0.00     0.249 C 
ATOM     15  O   UNL     1      -4.528  -3.970  -1.742  1.00  0.00    -0.272 OA
ATOM     16  H   UNL     1      -2.206  -3.066   0.177  1.00  0.00     0.164 HD
BRANCH  14  17
ATOM     17  C   UNL     1      -2.126  -4.399  -1.879  1.00  0.00     0.207 C 
BRANCH  17  18
ATOM     18  C   UNL     1      -2.475  -5.347  -3.031  1.00  0.00     0.077 C 
BRANCH  18  19
ATOM     19  C   UNL     1      -1.941  -4.845  -4.353  1.00  0.00    -0.043 A 
ATOM     20  C   UNL     1      -2.116  -3.362  -6.265  1.00  0.00     0.083 A 
ATOM     21  C   UNL     1      -2.582  -3.790  -5.021  1.00  0.00     0.028 A 
ATOM     22  C   UNL     1      -1.011  -3.984  -6.848  1.00  0.00     0.134 A 
ATOM     23  C   UNL     1      -0.367  -5.029  -6.198  1.00  0.00     0.048 A 
ATOM     24  C   UNL     1      -0.832  -5.461  -4.953  1.00  0.00     0.008 A 
ATOM     25  Cl  UNL     1      -2.917  -2.065  -7.071  1.00  0.00    -0.080 Cl
BRANCH  22  26
ATOM     26  O   UNL     1      -0.525  -3.606  -8.071  1.00  0.00    -0.506 OA
ATOM     27  H   UNL     1       0.179  -4.241  -8.300  1.00  0.00     0.293 HD
ENDBRANCH  22  26
ENDBRANCH  18  19
ENDBRANCH  17  18
BRANCH  17  28
ATOM     28  O   UNL     1      -1.378  -5.114  -0.882  1.00  0.00    -0.383 OA
ATOM     29  H   UNL     1      -1.979  -5.210  -0.109  1.00  0.00     0.211 HD
ENDBRANCH  17  28
ENDBRANCH  14  17
ENDBRANCH  12  13
BRANCH  12  30
ATOM     30  C   UNL     1      -4.082  -0.758   0.462  1.00  0.00     0.018 C 
ATOM     31  C   UNL     1      -5.446  -0.163   0.077  1.00  0.00     0.010 C 
BRANCH  30  32
ATOM     32  C   UNL     1      -2.997  -0.293  -0.540  1.00  0.00     0.002 C 
ATOM     33  C   UNL     1      -3.491  -0.021  -1.955  1.00  0.00     0.004 C 
ENDBRANCH  30  32
ENDBRANCH  12  30
ENDBRANCH  10  12
ENDBRANCH   1  10
BRANCH   5  34
ATOM     34  C   UNL     1      -5.317  -1.320   4.777  1.00  0.00     0.242 C 
ATOM     35  O   UNL     1      -4.954  -2.198   5.559  1.00  0.00    -0.273 OA
ATOM     36  N   UNL     1      -5.284   0.018   5.101  1.00  0.00    -0.354 N 
ATOM     37  H   UNL     1      -5.710   0.690   4.461  1.00  0.00     0.163 HD
BRANCH  36  38
ATOM     38  C   UNL     1      -4.578   0.514   6.264  1.00  0.00     0.116 C 
BRANCH  38  39
ATOM     39  C   UNL     1      -5.535   0.608   7.450  1.00  0.00     0.023 C 
BRANCH  39  40
ATOM     40  C   UNL     1      -5.138  -0.319   8.594  1.00  0.00     0.026 C 
BRANCH  40  41
ATOM     41  C   UNL     1      -6.301  -1.234   8.980  1.00  0.00     0.146 C 
BRANCH  41  42
ATOM     42  N   UNL     1      -7.445  -0.965   8.118  1.00  0.00    -0.254 NA
ATOM     43  C   UNL     1      -7.918  -1.901   7.384  1.00  0.00     0.185 C 
ATOM     44  N   UNL     1      -7.524  -3.181   7.253  1.00  0.00    -0.370 N 
ATOM     45  N   UNL     1      -8.970  -1.632   6.594  1.00  0.00    -0.370 N 
ATOM     46  H   UNL     1      -7.826  -3.733   6.468  1.00  0.00     0.159 HD
ATOM     47  H   UNL     1      -6.749  -3.558   7.790  1.00  0.00     0.159 HD
ATOM     48  H   UNL     1      -9.335  -0.691   6.639  1.00  0.00     0.159 HD
ATOM     49  H   UNL     1      -9.537  -2.351   6.180  1.00  0.00     0.159 HD
ENDBRANCH  41  42
ENDBRANCH  40  41
ENDBRANCH  39  40
ENDBRANCH  38  39
ENDBRANCH  36  38
ENDBRANCH   5  34
BRANCH   8  50
ATOM     50  O   UNL     1      -6.662  -5.768   5.753  1.00  0.00    -0.245 OA
BRANCH  50  51
ATOM     51  S   UNL     1      -5.867  -6.745   6.781  1.00  0.00     0.397 S 
ATOM     52  O   UNL     1      -4.450  -6.524   6.601  1.00  0.00    -0.169 OA
ATOM     53  O   UNL     1      -6.440  -8.074   6.730  1.00  0.00    -0.169 OA
BRANCH  51  54
ATOM     54  O   UNL     1      -6.233  -6.101   8.208  1.00  0.00    -0.264 OA
ATOM     55  H   UNL     1      -5.947  -5.165   8.195  1.00  0.00     0.236 HD
ENDBRANCH  51  54
ENDBRANCH  50  51
ENDBRANCH   8  50
TORSDOF 19
ENDMDL
MODEL 29
REMARK VINA RESULT:    -5.770      3.670      9.169
REMARK INTER + INTRA:         -15.964
REMARK INTER:                 -12.829
REMARK INTRA:                  -3.135
REMARK UNBOUND:                -4.291
REMARK SMILES CC[C@@H](C)[C@@H](NC(=O)[C@@H](O)Cc1ccc(O)c(Cl)c1)C(=O)N1[C@H](C(=O)NCCCCN=C(N)N)C[C@H]2CC[C@H](OS(=O)(=O)O)C[C@@H]21
REMARK SMILES IDX 22 1 36 2 46 3 35 4 23 5 45 6 37 7 39 8 38 9 20 10 21 11
REMARK SMILES IDX 5 12 6 13 7 14 8 15 9 17 11 18 12 19 17 20 19 21 15 22 14 23
REMARK SMILES IDX 13 24 18 25 16 26 10 28 3 30 4 31 2 32 1 33 24 34 25 35
REMARK SMILES IDX 26 36 27 38 28 39 29 40 30 41 31 42 32 43 33 44 34 45 40 50
REMARK SMILES IDX 41 51 42 52 43 53 44 54
REMARK H PARENT 6 16 16 27 10 29 26 37 33 46 33 47 34 48 34 49 44 55
ROOT
ATOM      1  N   UNL     1      -0.991  -2.839  -8.964  1.00  0.00    -0.326 N 
ATOM      2  C   UNL     1      -1.000  -0.541  -8.456  1.00  0.00     0.014 C 
ATOM      3  C   UNL     1      -0.389  -1.880  -8.033  1.00  0.00     0.091 C 
ATOM      4  C   UNL     1      -2.403  -0.935  -8.890  1.00  0.00     0.041 C 
ATOM      5  C   UNL     1      -2.087  -2.191  -9.724  1.00  0.00     0.175 C 
ATOM      6  C   UNL     1       1.132  -1.735  -8.024  1.00  0.00     0.059 C 
ATOM      7  C   UNL     1      -0.824   0.503  -7.370  1.00  0.00     0.008 C 
ATOM      8  C   UNL     1       1.619  -0.317  -7.655  1.00  0.00     0.143 C 
ATOM      9  C   UNL     1       0.599   0.436  -6.777  1.00  0.00     0.034 C 
ENDROOT
BRANCH   1  10
ATOM     10  C   UNL     1      -0.828  -4.211  -9.052  1.00  0.00     0.246 C 
ATOM     11  O   UNL     1       0.147  -4.664  -9.661  1.00  0.00    -0.272 OA
BRANCH  10  12
ATOM     12  C   UNL     1      -1.849  -5.151  -8.347  1.00  0.00     0.174 C 
BRANCH  12  13
ATOM     13  N   UNL     1      -3.188  -4.932  -8.894  1.00  0.00    -0.342 N 
ATOM     14  C   UNL     1      -4.175  -5.889  -8.973  1.00  0.00     0.249 C 
ATOM     15  O   UNL     1      -4.048  -7.036  -8.564  1.00  0.00    -0.272 OA
ATOM     16  H   UNL     1      -3.388  -4.080  -9.411  1.00  0.00     0.164 HD
BRANCH  14  17
ATOM     17  C   UNL     1      -5.472  -5.354  -9.616  1.00  0.00     0.207 C 
BRANCH  17  18
ATOM     18  C   UNL     1      -5.350  -3.853  -9.902  1.00  0.00     0.077 C 
BRANCH  18  19
ATOM     19  C   UNL     1      -6.193  -3.030  -8.953  1.00  0.00    -0.043 A 
ATOM     20  C   UNL     1      -6.497  -1.963  -6.796  1.00  0.00     0.083 A 
ATOM     21  C   UNL     1      -5.698  -2.680  -7.688  1.00  0.00     0.028 A 
ATOM     22  C   UNL     1      -7.792  -1.594  -7.162  1.00  0.00     0.134 A 
ATOM     23  C   UNL     1      -8.294  -1.934  -8.412  1.00  0.00     0.048 A 
ATOM     24  C   UNL     1      -7.498  -2.653  -9.306  1.00  0.00     0.008 A 
ATOM     25  Cl  UNL     1      -5.871  -1.543  -5.245  1.00  0.00    -0.080 Cl
BRANCH  22  26
ATOM     26  O   UNL     1      -8.616  -0.899  -6.318  1.00  0.00    -0.506 OA
ATOM     27  H   UNL     1      -8.267  -1.029  -5.417  1.00  0.00     0.293 HD
ENDBRANCH  22  26
ENDBRANCH  18  19
ENDBRANCH  17  18
BRANCH  17  28
ATOM     28  O   UNL     1      -6.606  -5.586  -8.765  1.00  0.00    -0.383 OA
ATOM     29  H   UNL     1      -7.274  -6.048  -9.321  1.00  0.00     0.211 HD
ENDBRANCH  17  28
ENDBRANCH  14  17
ENDBRANCH  12  13
BRANCH  12  30
ATOM     30  C   UNL     1      -1.813  -5.025  -6.800  1.00  0.00     0.018 C 
ATOM     31  C   UNL     1      -2.624  -3.806  -6.333  1.00  0.00     0.010 C 
BRANCH  30  32
ATOM     32  C   UNL     1      -0.381  -4.968  -6.215  1.00  0.00     0.002 C 
ATOM     33  C   UNL     1      -0.240  -5.481  -4.788  1.00  0.00     0.004 C 
ENDBRANCH  30  32
ENDBRANCH  12  30
ENDBRANCH  10  12
ENDBRANCH   1  10
BRANCH   5  34
ATOM     34  C   UNL     1      -1.621  -1.823 -11.158  1.00  0.00     0.242 C 
ATOM     35  O   UNL     1      -0.698  -2.413 -11.721  1.00  0.00    -0.273 OA
ATOM     36  N   UNL     1      -2.276  -0.757 -11.731  1.00  0.00    -0.354 N 
ATOM     37  H   UNL     1      -2.948  -0.233 -11.170  1.00  0.00     0.163 HD
BRANCH  36  38
ATOM     38  C   UNL     1      -2.121  -0.416 -13.131  1.00  0.00     0.116 C 
BRANCH  38  39
ATOM     39  C   UNL     1      -1.105   0.713 -13.280  1.00  0.00     0.023 C 
BRANCH  39  40
ATOM     40  C   UNL     1       0.164   0.265 -13.997  1.00  0.00     0.026 C 
BRANCH  40  41
ATOM     41  C   UNL     1       1.297   0.032 -12.999  1.00  0.00     0.146 C 
BRANCH  41  42
ATOM     42  N   UNL     1       1.987   1.288 -12.735  1.00  0.00    -0.254 NA
ATOM     43  C   UNL     1       3.264   1.303 -12.651  1.00  0.00     0.185 C 
ATOM     44  N   UNL     1       4.152   0.299 -12.771  1.00  0.00    -0.370 N 
ATOM     45  N   UNL     1       3.881   2.470 -12.402  1.00  0.00    -0.370 N 
ATOM     46  H   UNL     1       5.096   0.406 -12.442  1.00  0.00     0.159 HD
ATOM     47  H   UNL     1       3.857  -0.651 -12.974  1.00  0.00     0.159 HD
ATOM     48  H   UNL     1       3.284   3.281 -12.306  1.00  0.00     0.159 HD
ATOM     49  H   UNL     1       4.864   2.610 -12.556  1.00  0.00     0.159 HD
ENDBRANCH  41  42
ENDBRANCH  40  41
ENDBRANCH  39  40
ENDBRANCH  38  39
ENDBRANCH  36  38
ENDBRANCH   5  34
BRANCH   8  50
ATOM     50  O   UNL     1       1.847   0.446  -8.840  1.00  0.00    -0.245 OA
BRANCH  50  51
ATOM     51  S   UNL     1       2.944   1.647  -8.823  1.00  0.00     0.397 S 
ATOM     52  O   UNL     1       4.110   1.197  -9.551  1.00  0.00    -0.169 OA
ATOM     53  O   UNL     1       3.047   2.192  -7.486  1.00  0.00    -0.169 OA
BRANCH  51  54
ATOM     54  O   UNL     1       2.245   2.753  -9.757  1.00  0.00    -0.264 OA
ATOM     55  H   UNL     1       1.305   2.501  -9.867  1.00  0.00     0.236 HD
ENDBRANCH  51  54
ENDBRANCH  50  51
ENDBRANCH   8  50
TORSDOF 19
ENDMDL
MODEL 30
REMARK VINA RESULT:    -5.742      3.268      7.692
REMARK INTER + INTRA:         -15.907
REMARK INTER:                 -12.896
REMARK INTRA:                  -3.011
REMARK UNBOUND:                -4.291
REMARK SMILES CC[C@@H](C)[C@@H](NC(=O)[C@@H](O)Cc1ccc(O)c(Cl)c1)C(=O)N1[C@H](C(=O)NCCCCN=C(N)N)C[C@H]2CC[C@H](OS(=O)(=O)O)C[C@@H]21
REMARK SMILES IDX 22 1 36 2 46 3 35 4 23 5 45 6 37 7 39 8 38 9 20 10 21 11
REMARK SMILES IDX 5 12 6 13 7 14 8 15 9 17 11 18 12 19 17 20 19 21 15 22 14 23
REMARK SMILES IDX 13 24 18 25 16 26 10 28 3 30 4 31 2 32 1 33 24 34 25 35
REMARK SMILES IDX 26 36 27 38 28 39 29 40 30 41 31 42 32 43 33 44 34 45 40 50
REMARK SMILES IDX 41 51 42 52 43 53 44 54
REMARK H PARENT 6 16 16 27 10 29 26 37 33 46 33 47 34 48 34 49 44 55
ROOT
ATOM      1  N   UNL     1      -0.562  -0.567 -10.316  1.00  0.00    -0.326 N 
ATOM      2  C   UNL     1       1.462  -0.812  -9.139  1.00  0.00     0.014 C 
ATOM      3  C   UNL     1       0.814  -0.064 -10.307  1.00  0.00     0.091 C 
ATOM      4  C   UNL     1       0.777  -2.169  -9.189  1.00  0.00     0.041 C 
ATOM      5  C   UNL     1      -0.684  -1.729  -9.401  1.00  0.00     0.175 C 
ATOM      6  C   UNL     1       1.036   1.434 -10.105  1.00  0.00     0.059 C 
ATOM      7  C   UNL     1       2.974  -0.739  -9.219  1.00  0.00     0.008 C 
ATOM      8  C   UNL     1       2.358   1.774  -9.383  1.00  0.00     0.143 C 
ATOM      9  C   UNL     1       3.431   0.687  -9.595  1.00  0.00     0.034 C 
ENDROOT
BRANCH   1  10
ATOM     10  C   UNL     1      -1.613  -0.264 -11.165  1.00  0.00     0.246 C 
ATOM     11  O   UNL     1      -1.539  -0.592 -12.354  1.00  0.00    -0.272 OA
BRANCH  10  12
ATOM     12  C   UNL     1      -2.879   0.441 -10.597  1.00  0.00     0.174 C 
BRANCH  12  13
ATOM     13  N   UNL     1      -4.000  -0.497 -10.565  1.00  0.00    -0.342 N 
ATOM     14  C   UNL     1      -4.795  -0.741  -9.468  1.00  0.00     0.249 C 
ATOM     15  O   UNL     1      -4.666  -0.171  -8.392  1.00  0.00    -0.272 OA
ATOM     16  H   UNL     1      -4.130  -1.153 -11.331  1.00  0.00     0.164 HD
BRANCH  14  17
ATOM     17  C   UNL     1      -5.885  -1.798  -9.745  1.00  0.00     0.207 C 
BRANCH  17  18
ATOM     18  C   UNL     1      -5.363  -2.864 -10.714  1.00  0.00     0.077 C 
BRANCH  18  19
ATOM     19  C   UNL     1      -4.909  -4.110  -9.987  1.00  0.00    -0.043 A 
ATOM     20  C   UNL     1      -3.124  -5.547  -9.191  1.00  0.00     0.083 A 
ATOM     21  C   UNL     1      -3.540  -4.373  -9.819  1.00  0.00     0.028 A 
ATOM     22  C   UNL     1      -4.068  -6.465  -8.730  1.00  0.00     0.134 A 
ATOM     23  C   UNL     1      -5.427  -6.217  -8.890  1.00  0.00     0.048 A 
ATOM     24  C   UNL     1      -5.847  -5.043  -9.519  1.00  0.00     0.008 A 
ATOM     25  Cl  UNL     1      -1.438  -5.853  -8.995  1.00  0.00    -0.080 Cl
BRANCH  22  26
ATOM     26  O   UNL     1      -3.708  -7.635  -8.118  1.00  0.00    -0.506 OA
ATOM     27  H   UNL     1      -3.176  -7.391  -7.338  1.00  0.00     0.293 HD
ENDBRANCH  22  26
ENDBRANCH  18  19
ENDBRANCH  17  18
BRANCH  17  28
ATOM     28  O   UNL     1      -7.066  -1.192 -10.295  1.00  0.00    -0.383 OA
ATOM     29  H   UNL     1      -7.273  -0.425  -9.714  1.00  0.00     0.211 HD
ENDBRANCH  17  28
ENDBRANCH  14  17
ENDBRANCH  12  13
BRANCH  12  30
ATOM     30  C   UNL     1      -3.225   1.752 -11.354  1.00  0.00     0.018 C 
ATOM     31  C   UNL     1      -1.950   2.433 -11.878  1.00  0.00     0.010 C 
BRANCH  30  32
ATOM     32  C   UNL     1      -4.056   2.753 -10.514  1.00  0.00     0.002 C 
ATOM     33  C   UNL     1      -3.370   3.277  -9.259  1.00  0.00     0.004 C 
ENDBRANCH  30  32
ENDBRANCH  12  30
ENDBRANCH  10  12
ENDBRANCH   1  10
BRANCH   5  34
ATOM     34  C   UNL     1      -1.354  -1.310  -8.065  1.00  0.00     0.242 C 
ATOM     35  O   UNL     1      -1.407  -0.137  -7.695  1.00  0.00    -0.273 OA
ATOM     36  N   UNL     1      -1.836  -2.349  -7.300  1.00  0.00    -0.354 N 
ATOM     37  H   UNL     1      -1.656  -3.307  -7.603  1.00  0.00     0.163 HD
BRANCH  36  38
ATOM     38  C   UNL     1      -2.675  -2.130  -6.140  1.00  0.00     0.116 C 
BRANCH  38  39
ATOM     39  C   UNL     1      -3.003  -3.467  -5.479  1.00  0.00     0.023 C 
BRANCH  39  40
ATOM     40  C   UNL     1      -3.021  -3.375  -3.957  1.00  0.00     0.026 C 
BRANCH  40  41
ATOM     41  C   UNL     1      -2.639  -4.715  -3.329  1.00  0.00     0.146 C 
BRANCH  41  42
ATOM     42  N   UNL     1      -1.370  -5.173  -3.879  1.00  0.00    -0.254 NA
ATOM     43  C   UNL     1      -0.682  -6.045  -3.243  1.00  0.00     0.185 C 
ATOM     44  N   UNL     1      -0.935  -6.664  -2.075  1.00  0.00    -0.370 N 
ATOM     45  N   UNL     1       0.488  -6.451  -3.765  1.00  0.00    -0.370 N 
ATOM     46  H   UNL     1      -0.202  -7.137  -1.576  1.00  0.00     0.159 HD
ATOM     47  H   UNL     1      -1.786  -6.484  -1.551  1.00  0.00     0.159 HD
ATOM     48  H   UNL     1       0.750  -6.040  -4.650  1.00  0.00     0.159 HD
ATOM     49  H   UNL     1       0.959  -7.284  -3.461  1.00  0.00     0.159 HD
ENDBRANCH  41  42
ENDBRANCH  40  41
ENDBRANCH  39  40
ENDBRANCH  38  39
ENDBRANCH  36  38
ENDBRANCH   5  34
BRANCH   8  50
ATOM     50  O   UNL     1       2.128   1.916  -7.981  1.00  0.00    -0.245 OA
BRANCH  50  51
ATOM     51  S   UNL     1       2.425   3.344  -7.259  1.00  0.00     0.397 S 
ATOM     52  O   UNL     1       3.837   3.625  -7.389  1.00  0.00    -0.169 OA
ATOM     53  O   UNL     1       1.757   3.387  -5.975  1.00  0.00    -0.169 OA
BRANCH  51  54
ATOM     54  O   UNL     1       1.680   4.377  -8.241  1.00  0.00    -0.264 OA
ATOM     55  H   UNL     1       1.364   5.128  -7.699  1.00  0.00     0.236 HD
ENDBRANCH  51  54
ENDBRANCH  50  51
ENDBRANCH   8  50
TORSDOF 19
ENDMDL
MODEL 31
REMARK VINA RESULT:    -5.723      3.741      8.625
REMARK INTER + INTRA:         -15.870
REMARK INTER:                 -12.125
REMARK INTRA:                  -3.744
REMARK UNBOUND:                -4.291
REMARK SMILES CC[C@@H](C)[C@@H](NC(=O)[C@@H](O)Cc1ccc(O)c(Cl)c1)C(=O)N1[C@H](C(=O)NCCCCN=C(N)N)C[C@H]2CC[C@H](OS(=O)(=O)O)C[C@@H]21
REMARK SMILES IDX 22 1 36 2 46 3 35 4 23 5 45 6 37 7 39 8 38 9 20 10 21 11
REMARK SMILES IDX 5 12 6 13 7 14 8 15 9 17 11 18 12 19 17 20 19 21 15 22 14 23
REMARK SMILES IDX 13 24 18 25 16 26 10 28 3 30 4 31 2 32 1 33 24 34 25 35
REMARK SMILES IDX 26 36 27 38 28 39 29 40 30 41 31 42 32 43 33 44 34 45 40 50
REMARK SMILES IDX 41 51 42 52 43 53 44 54
REMARK H PARENT 6 16 16 27 10 29 26 37 33 46 33 47 34 48 34 49 44 55
ROOT
ATOM      1  N   UNL     1       1.395  -0.360 -11.304  1.00  0.00    -0.326 N 
ATOM      2  C   UNL     1       3.397   0.672 -10.618  1.00  0.00     0.014 C 
ATOM      3  C   UNL     1       2.672   0.116 -11.846  1.00  0.00     0.091 C 
ATOM      4  C   UNL     1       2.942  -0.263  -9.508  1.00  0.00     0.041 C 
ATOM      5  C   UNL     1       1.437  -0.345  -9.821  1.00  0.00     0.175 C 
ATOM      6  C   UNL     1       2.643   1.200 -12.922  1.00  0.00     0.059 C 
ATOM      7  C   UNL     1       4.879   0.836 -10.892  1.00  0.00     0.008 C 
ATOM      8  C   UNL     1       3.870   2.136 -12.895  1.00  0.00     0.143 C 
ATOM      9  C   UNL     1       5.110   1.447 -12.290  1.00  0.00     0.034 C 
ENDROOT
BRANCH   1  10
ATOM     10  C   UNL     1       0.335  -0.978 -11.943  1.00  0.00     0.246 C 
ATOM     11  O   UNL     1       0.552  -1.647 -12.959  1.00  0.00    -0.272 OA
BRANCH  10  12
ATOM     12  C   UNL     1      -1.098  -0.855 -11.347  1.00  0.00     0.174 C 
BRANCH  12  13
ATOM     13  N   UNL     1      -1.582  -2.173 -10.937  1.00  0.00    -0.342 N 
ATOM     14  C   UNL     1      -1.712  -2.597  -9.634  1.00  0.00     0.249 C 
ATOM     15  O   UNL     1      -1.459  -1.897  -8.661  1.00  0.00    -0.272 OA
ATOM     16  H   UNL     1      -1.681  -2.911 -11.630  1.00  0.00     0.164 HD
BRANCH  14  17
ATOM     17  C   UNL     1      -2.233  -4.046  -9.528  1.00  0.00     0.207 C 
BRANCH  17  18
ATOM     18  C   UNL     1      -3.237  -4.337 -10.647  1.00  0.00     0.077 C 
BRANCH  18  19
ATOM     19  C   UNL     1      -4.635  -3.894 -10.278  1.00  0.00    -0.043 A 
ATOM     20  C   UNL     1      -6.345  -2.175 -10.200  1.00  0.00     0.083 A 
ATOM     21  C   UNL     1      -5.072  -2.596 -10.586  1.00  0.00     0.028 A 
ATOM     22  C   UNL     1      -7.187  -3.043  -9.505  1.00  0.00     0.134 A 
ATOM     23  C   UNL     1      -6.767  -4.331  -9.193  1.00  0.00     0.048 A 
ATOM     24  C   UNL     1      -5.493  -4.756  -9.576  1.00  0.00     0.008 A 
ATOM     25  Cl  UNL     1      -6.863  -0.577 -10.588  1.00  0.00    -0.080 Cl
BRANCH  22  26
ATOM     26  O   UNL     1      -8.439  -2.672  -9.096  1.00  0.00    -0.506 OA
ATOM     27  H   UNL     1      -8.849  -3.461  -8.696  1.00  0.00     0.293 HD
ENDBRANCH  22  26
ENDBRANCH  18  19
ENDBRANCH  17  18
BRANCH  17  28
ATOM     28  O   UNL     1      -2.858  -4.279  -8.255  1.00  0.00    -0.383 OA
ATOM     29  H   UNL     1      -2.127  -4.476  -7.626  1.00  0.00     0.211 HD
ENDBRANCH  17  28
ENDBRANCH  14  17
ENDBRANCH  12  13
BRANCH  12  30
ATOM     30  C   UNL     1      -2.085  -0.132 -12.302  1.00  0.00     0.018 C 
ATOM     31  C   UNL     1      -1.399   1.052 -13.003  1.00  0.00     0.010 C 
BRANCH  30  32
ATOM     32  C   UNL     1      -3.386   0.341 -11.609  1.00  0.00     0.002 C 
ATOM     33  C   UNL     1      -3.192   1.060 -10.280  1.00  0.00     0.004 C 
ENDBRANCH  30  32
ENDBRANCH  12  30
ENDBRANCH  10  12
ENDBRANCH   1  10
BRANCH   5  34
ATOM     34  C   UNL     1       0.669   0.882  -9.261  1.00  0.00     0.242 C 
ATOM     35  O   UNL     1       0.497   1.907  -9.920  1.00  0.00    -0.273 OA
ATOM     36  N   UNL     1       0.242   0.760  -7.957  1.00  0.00    -0.354 N 
ATOM     37  H   UNL     1       0.519  -0.065  -7.424  1.00  0.00     0.163 HD
BRANCH  36  38
ATOM     38  C   UNL     1      -0.668   1.710  -7.350  1.00  0.00     0.116 C 
BRANCH  38  39
ATOM     39  C   UNL     1      -0.466   1.726  -5.837  1.00  0.00     0.023 C 
BRANCH  39  40
ATOM     40  C   UNL     1      -1.621   1.071  -5.087  1.00  0.00     0.026 C 
BRANCH  40  41
ATOM     41  C   UNL     1      -2.837   0.910  -6.000  1.00  0.00     0.146 C 
BRANCH  41  42
ATOM     42  N   UNL     1      -3.121  -0.506  -6.197  1.00  0.00    -0.254 NA
ATOM     43  C   UNL     1      -4.160  -0.857  -6.856  1.00  0.00     0.185 C 
ATOM     44  N   UNL     1      -5.108  -0.105  -7.443  1.00  0.00    -0.370 N 
ATOM     45  N   UNL     1      -4.406  -2.167  -7.023  1.00  0.00    -0.370 N 
ATOM     46  H   UNL     1      -5.990  -0.507  -7.712  1.00  0.00     0.159 HD
ATOM     47  H   UNL     1      -5.070   0.910  -7.425  1.00  0.00     0.159 HD
ATOM     48  H   UNL     1      -3.734  -2.805  -6.618  1.00  0.00     0.159 HD
ATOM     49  H   UNL     1      -5.049  -2.517  -7.711  1.00  0.00     0.159 HD
ENDBRANCH  41  42
ENDBRANCH  40  41
ENDBRANCH  39  40
ENDBRANCH  38  39
ENDBRANCH  36  38
ENDBRANCH   5  34
BRANCH   8  50
ATOM     50  O   UNL     1       3.580   3.303 -12.126  1.00  0.00    -0.245 OA
BRANCH  50  51
ATOM     51  S   UNL     1       4.375   4.688 -12.436  1.00  0.00     0.397 S 
ATOM     52  O   UNL     1       3.443   5.782 -12.278  1.00  0.00    -0.169 OA
ATOM     53  O   UNL     1       5.169   4.533 -13.638  1.00  0.00    -0.169 OA
BRANCH  51  54
ATOM     54  O   UNL     1       5.381   4.785 -11.186  1.00  0.00    -0.264 OA
ATOM     55  H   UNL     1       5.046   4.187 -10.487  1.00  0.00     0.236 HD
ENDBRANCH  51  54
ENDBRANCH  50  51
ENDBRANCH   8  50
TORSDOF 19
ENDMDL
MODEL 32
REMARK VINA RESULT:    -5.688     20.346     23.963
REMARK INTER + INTRA:         -15.799
REMARK INTER:                 -11.553
REMARK INTRA:                  -4.246
REMARK UNBOUND:                -4.291
REMARK SMILES CC[C@@H](C)[C@@H](NC(=O)[C@@H](O)Cc1ccc(O)c(Cl)c1)C(=O)N1[C@H](C(=O)NCCCCN=C(N)N)C[C@H]2CC[C@H](OS(=O)(=O)O)C[C@@H]21
REMARK SMILES IDX 22 1 36 2 46 3 35 4 23 5 45 6 37 7 39 8 38 9 20 10 21 11
REMARK SMILES IDX 5 12 6 13 7 14 8 15 9 17 11 18 12 19 17 20 19 21 15 22 14 23
REMARK SMILES IDX 13 24 18 25 16 26 10 28 3 30 4 31 2 32 1 33 24 34 25 35
REMARK SMILES IDX 26 36 27 38 28 39 29 40 30 41 31 42 32 43 33 44 34 45 40 50
REMARK SMILES IDX 41 51 42 52 43 53 44 54
REMARK H PARENT 6 16 16 27 10 29 26 37 33 46 33 47 34 48 34 49 44 55
ROOT
ATOM      1  N   UNL     1      10.484  12.789   5.161  1.00  0.00    -0.326 N 
ATOM      2  C   UNL     1      12.238  11.307   5.680  1.00  0.00     0.014 C 
ATOM      3  C   UNL     1      11.836  12.432   4.722  1.00  0.00     0.091 C 
ATOM      4  C   UNL     1      10.921  10.584   5.919  1.00  0.00     0.041 C 
ATOM      5  C   UNL     1       9.985  11.788   6.135  1.00  0.00     0.175 C 
ATOM      6  C   UNL     1      12.919  13.509   4.760  1.00  0.00     0.059 C 
ATOM      7  C   UNL     1      13.424  10.533   5.140  1.00  0.00     0.008 C 
ATOM      8  C   UNL     1      14.336  12.957   5.027  1.00  0.00     0.143 C 
ATOM      9  C   UNL     1      14.484  11.494   4.562  1.00  0.00     0.034 C 
ENDROOT
BRANCH   1  10
ATOM     10  C   UNL     1       9.607  13.733   4.654  1.00  0.00     0.246 C 
ATOM     11  O   UNL     1       9.520  14.833   5.211  1.00  0.00    -0.272 OA
BRANCH  10  12
ATOM     12  C   UNL     1       8.784  13.407   3.375  1.00  0.00     0.174 C 
BRANCH  12  13
ATOM     13  N   UNL     1       8.518  11.970   3.306  1.00  0.00    -0.342 N 
ATOM     14  C   UNL     1       7.287  11.405   3.058  1.00  0.00     0.249 C 
ATOM     15  O   UNL     1       6.271  12.053   2.837  1.00  0.00    -0.272 OA
ATOM     16  H   UNL     1       9.226  11.311   3.621  1.00  0.00     0.164 HD
BRANCH  14  17
ATOM     17  C   UNL     1       7.327   9.862   3.066  1.00  0.00     0.207 C 
BRANCH  17  18
ATOM     18  C   UNL     1       8.026   9.338   1.808  1.00  0.00     0.077 C 
BRANCH  18  19
ATOM     19  C   UNL     1       9.444   8.898   2.094  1.00  0.00    -0.043 A 
ATOM     20  C   UNL     1      11.745   8.620   1.378  1.00  0.00     0.083 A 
ATOM     21  C   UNL     1      10.448   9.072   1.129  1.00  0.00     0.028 A 
ATOM     22  C   UNL     1      12.046   7.992   2.587  1.00  0.00     0.134 A 
ATOM     23  C   UNL     1      11.061   7.813   3.551  1.00  0.00     0.048 A 
ATOM     24  C   UNL     1       9.762   8.263   3.305  1.00  0.00     0.008 A 
ATOM     25  Cl  UNL     1      12.965   8.842   0.180  1.00  0.00    -0.080 Cl
BRANCH  22  26
ATOM     26  O   UNL     1      13.300   7.522   2.871  1.00  0.00    -0.506 OA
ATOM     27  H   UNL     1      13.552   7.902   3.733  1.00  0.00     0.293 HD
ENDBRANCH  22  26
ENDBRANCH  18  19
ENDBRANCH  17  18
BRANCH  17  28
ATOM     28  O   UNL     1       6.003   9.311   3.141  1.00  0.00    -0.383 OA
ATOM     29  H   UNL     1       6.069   8.523   3.728  1.00  0.00     0.211 HD
ENDBRANCH  17  28
ENDBRANCH  14  17
ENDBRANCH  12  13
BRANCH  12  30
ATOM     30  C   UNL     1       9.447  13.949   2.080  1.00  0.00     0.018 C 
ATOM     31  C   UNL     1       8.428  14.722   1.227  1.00  0.00     0.010 C 
BRANCH  30  32
ATOM     32  C   UNL     1      10.132  12.854   1.227  1.00  0.00     0.002 C 
ATOM     33  C   UNL     1      11.652  12.935   1.163  1.00  0.00     0.004 C 
ENDBRANCH  30  32
ENDBRANCH  12  30
ENDBRANCH  10  12
ENDBRANCH   1  10
BRANCH   5  34
ATOM     34  C   UNL     1      10.082  12.334   7.584  1.00  0.00     0.242 C 
ATOM     35  O   UNL     1      10.973  13.106   7.938  1.00  0.00    -0.273 OA
ATOM     36  N   UNL     1       9.132  11.851   8.457  1.00  0.00    -0.354 N 
ATOM     37  H   UNL     1       8.494  11.123   8.135  1.00  0.00     0.163 HD
BRANCH  36  38
ATOM     38  C   UNL     1       8.941  12.411   9.779  1.00  0.00     0.116 C 
BRANCH  38  39
ATOM     39  C   UNL     1       9.341  11.388  10.838  1.00  0.00     0.023 C 
BRANCH  39  40
ATOM     40  C   UNL     1       9.886  12.041  12.104  1.00  0.00     0.026 C 
BRANCH  40  41
ATOM     41  C   UNL     1      11.410  12.142  12.048  1.00  0.00     0.146 C 
BRANCH  41  42
ATOM     42  N   UNL     1      11.819  13.528  12.238  1.00  0.00    -0.254 NA
ATOM     43  C   UNL     1      12.508  14.114  11.333  1.00  0.00     0.185 C 
ATOM     44  N   UNL     1      12.956  13.653  10.151  1.00  0.00    -0.370 N 
ATOM     45  N   UNL     1      12.879  15.390  11.530  1.00  0.00    -0.370 N 
ATOM     46  H   UNL     1      13.685  14.136   9.655  1.00  0.00     0.159 HD
ATOM     47  H   UNL     1      12.754  12.709   9.836  1.00  0.00     0.159 HD
ATOM     48  H   UNL     1      12.575  15.818  12.394  1.00  0.00     0.159 HD
ATOM     49  H   UNL     1      13.205  15.983  10.787  1.00  0.00     0.159 HD
ENDBRANCH  41  42
ENDBRANCH  40  41
ENDBRANCH  39  40
ENDBRANCH  38  39
ENDBRANCH  36  38
ENDBRANCH   5  34
BRANCH   8  50
ATOM     50  O   UNL     1      14.633  13.022   6.422  1.00  0.00    -0.245 OA
BRANCH  50  51
ATOM     51  S   UNL     1      15.689  14.133   6.966  1.00  0.00     0.397 S 
ATOM     52  O   UNL     1      16.030  15.003   5.864  1.00  0.00    -0.169 OA
ATOM     53  O   UNL     1      16.708  13.485   7.766  1.00  0.00    -0.169 OA
BRANCH  51  54
ATOM     54  O   UNL     1      14.771  15.013   7.951  1.00  0.00    -0.264 OA
ATOM     55  H   UNL     1      15.363  15.601   8.463  1.00  0.00     0.236 HD
ENDBRANCH  51  54
ENDBRANCH  50  51
ENDBRANCH   8  50
TORSDOF 19
ENDMDL
MODEL 33
REMARK VINA RESULT:    -5.685     10.156     15.570
REMARK INTER + INTRA:         -15.792
REMARK INTER:                 -13.178
REMARK INTRA:                  -2.615
REMARK UNBOUND:                -4.291
REMARK SMILES CC[C@@H](C)[C@@H](NC(=O)[C@@H](O)Cc1ccc(O)c(Cl)c1)C(=O)N1[C@H](C(=O)NCCCCN=C(N)N)C[C@H]2CC[C@H](OS(=O)(=O)O)C[C@@H]21
REMARK SMILES IDX 22 1 36 2 46 3 35 4 23 5 45 6 37 7 39 8 38 9 20 10 21 11
REMARK SMILES IDX 5 12 6 13 7 14 8 15 9 17 11 18 12 19 17 20 19 21 15 22 14 23
REMARK SMILES IDX 13 24 18 25 16 26 10 28 3 30 4 31 2 32 1 33 24 34 25 35
REMARK SMILES IDX 26 36 27 38 28 39 29 40 30 41 31 42 32 43 33 44 34 45 40 50
REMARK SMILES IDX 41 51 42 52 43 53 44 54
REMARK H PARENT 6 16 16 27 10 29 26 37 33 46 33 47 34 48 34 49 44 55
ROOT
ATOM      1  N   UNL     1      -6.998  -5.952   2.167  1.00  0.00    -0.326 N 
ATOM      2  C   UNL     1      -7.024  -7.145   0.137  1.00  0.00     0.014 C 
ATOM      3  C   UNL     1      -7.852  -6.858   1.393  1.00  0.00     0.091 C 
ATOM      4  C   UNL     1      -5.599  -7.145   0.669  1.00  0.00     0.041 C 
ATOM      5  C   UNL     1      -5.642  -5.896   1.567  1.00  0.00     0.175 C 
ATOM      6  C   UNL     1      -9.230  -6.362   0.960  1.00  0.00     0.059 C 
ATOM      7  C   UNL     1      -7.547  -8.368  -0.590  1.00  0.00     0.008 C 
ATOM      8  C   UNL     1      -9.718  -6.967  -0.374  1.00  0.00     0.143 C 
ATOM      9  C   UNL     1      -9.089  -8.348  -0.648  1.00  0.00     0.034 C 
ENDROOT
BRANCH   1  10
ATOM     10  C   UNL     1      -7.213  -5.371   3.405  1.00  0.00     0.246 C 
ATOM     11  O   UNL     1      -8.335  -4.930   3.675  1.00  0.00    -0.272 OA
BRANCH  10  12
ATOM     12  C   UNL     1      -6.054  -5.325   4.442  1.00  0.00     0.174 C 
BRANCH  12  13
ATOM     13  N   UNL     1      -6.458  -6.003   5.673  1.00  0.00    -0.342 N 
ATOM     14  C   UNL     1      -5.696  -6.925   6.354  1.00  0.00     0.249 C 
ATOM     15  O   UNL     1      -4.569  -7.263   6.015  1.00  0.00    -0.272 OA
ATOM     16  H   UNL     1      -7.424  -5.942   5.987  1.00  0.00     0.164 HD
BRANCH  14  17
ATOM     17  C   UNL     1      -6.408  -7.475   7.609  1.00  0.00     0.207 C 
BRANCH  17  18
ATOM     18  C   UNL     1      -6.091  -6.604   8.829  1.00  0.00     0.077 C 
BRANCH  18  19
ATOM     19  C   UNL     1      -7.205  -5.626   9.126  1.00  0.00    -0.043 A 
ATOM     20  C   UNL     1      -7.937  -3.410   9.788  1.00  0.00     0.083 A 
ATOM     21  C   UNL     1      -6.909  -4.297   9.466  1.00  0.00     0.028 A 
ATOM     22  C   UNL     1      -9.263  -3.844   9.773  1.00  0.00     0.134 A 
ATOM     23  C   UNL     1      -9.571  -5.157   9.438  1.00  0.00     0.048 A 
ATOM     24  C   UNL     1      -8.544  -6.048   9.118  1.00  0.00     0.008 A 
ATOM     25  Cl  UNL     1      -7.553  -1.781  10.204  1.00  0.00    -0.080 Cl
BRANCH  22  26
ATOM     26  O   UNL     1     -10.304  -3.014  10.092  1.00  0.00    -0.506 OA
ATOM     27  H   UNL     1     -10.315  -2.938  11.064  1.00  0.00     0.293 HD
ENDBRANCH  22  26
ENDBRANCH  18  19
ENDBRANCH  17  18
BRANCH  17  28
ATOM     28  O   UNL     1      -6.013  -8.830   7.875  1.00  0.00    -0.383 OA
ATOM     29  H   UNL     1      -6.840  -9.316   8.096  1.00  0.00     0.211 HD
ENDBRANCH  17  28
ENDBRANCH  14  17
ENDBRANCH  12  13
BRANCH  12  30
ATOM     30  C   UNL     1      -5.538  -3.884   4.701  1.00  0.00     0.018 C 
ATOM     31  C   UNL     1      -4.016  -3.805   4.508  1.00  0.00     0.010 C 
BRANCH  30  32
ATOM     32  C   UNL     1      -5.927  -3.325   6.092  1.00  0.00     0.002 C 
ATOM     33  C   UNL     1      -5.678  -1.836   6.289  1.00  0.00     0.004 C 
ENDBRANCH  30  32
ENDBRANCH  12  30
ENDBRANCH  10  12
ENDBRANCH   1  10
BRANCH   5  34
ATOM     34  C   UNL     1      -5.458  -4.593   0.744  1.00  0.00     0.242 C 
ATOM     35  O   UNL     1      -6.310  -3.705   0.718  1.00  0.00    -0.273 OA
ATOM     36  N   UNL     1      -4.299  -4.527   0.003  1.00  0.00    -0.354 N 
ATOM     37  H   UNL     1      -3.690  -5.345  -0.029  1.00  0.00     0.163 HD
BRANCH  36  38
ATOM     38  C   UNL     1      -3.865  -3.308  -0.647  1.00  0.00     0.116 C 
BRANCH  38  39
ATOM     39  C   UNL     1      -4.047  -3.433  -2.158  1.00  0.00     0.023 C 
BRANCH  39  40
ATOM     40  C   UNL     1      -2.769  -3.119  -2.927  1.00  0.00     0.026 C 
BRANCH  40  41
ATOM     41  C   UNL     1      -2.141  -4.398  -3.481  1.00  0.00     0.146 C 
BRANCH  41  42
ATOM     42  N   UNL     1      -1.954  -5.361  -2.404  1.00  0.00    -0.254 NA
ATOM     43  C   UNL     1      -1.010  -6.223  -2.483  1.00  0.00     0.185 C 
ATOM     44  N   UNL     1      -0.093  -6.416  -3.448  1.00  0.00    -0.370 N 
ATOM     45  N   UNL     1      -0.857  -7.105  -1.481  1.00  0.00    -0.370 N 
ATOM     46  H   UNL     1       0.427  -7.276  -3.496  1.00  0.00     0.159 HD
ATOM     47  H   UNL     1      -0.057  -5.827  -4.274  1.00  0.00     0.159 HD
ATOM     48  H   UNL     1      -1.503  -7.023  -0.708  1.00  0.00     0.159 HD
ATOM     49  H   UNL     1      -0.018  -7.643  -1.354  1.00  0.00     0.159 HD
ENDBRANCH  41  42
ENDBRANCH  40  41
ENDBRANCH  39  40
ENDBRANCH  38  39
ENDBRANCH  36  38
ENDBRANCH   5  34
BRANCH   8  50
ATOM     50  O   UNL     1      -9.388  -6.097  -1.457  1.00  0.00    -0.245 OA
BRANCH  50  51
ATOM     51  S   UNL     1     -10.560  -5.583  -2.460  1.00  0.00     0.397 S 
ATOM     52  O   UNL     1     -11.701  -6.455  -2.297  1.00  0.00    -0.169 OA
ATOM     53  O   UNL     1      -9.997  -5.306  -3.765  1.00  0.00    -0.169 OA
BRANCH  51  54
ATOM     54  O   UNL     1     -10.981  -4.181  -1.795  1.00  0.00    -0.264 OA
ATOM     55  H   UNL     1     -11.778  -3.856  -2.262  1.00  0.00     0.236 HD
ENDBRANCH  51  54
ENDBRANCH  50  51
ENDBRANCH   8  50
TORSDOF 19
ENDMDL
MODEL 34
REMARK VINA RESULT:    -5.631      8.780     13.614
REMARK INTER + INTRA:         -15.683
REMARK INTER:                 -12.727
REMARK INTRA:                  -2.957
REMARK UNBOUND:                -4.291
REMARK SMILES CC[C@@H](C)[C@@H](NC(=O)[C@@H](O)Cc1ccc(O)c(Cl)c1)C(=O)N1[C@H](C(=O)NCCCCN=C(N)N)C[C@H]2CC[C@H](OS(=O)(=O)O)C[C@@H]21
REMARK SMILES IDX 22 1 36 2 46 3 35 4 23 5 45 6 37 7 39 8 38 9 20 10 21 11
REMARK SMILES IDX 5 12 6 13 7 14 8 15 9 17 11 18 12 19 17 20 19 21 15 22 14 23
REMARK SMILES IDX 13 24 18 25 16 26 10 28 3 30 4 31 2 32 1 33 24 34 25 35
REMARK SMILES IDX 26 36 27 38 28 39 29 40 30 41 31 42 32 43 33 44 34 45 40 50
REMARK SMILES IDX 41 51 42 52 43 53 44 54
REMARK H PARENT 6 16 16 27 10 29 26 37 33 46 33 47 34 48 34 49 44 55
ROOT
ATOM      1  N   UNL     1      -4.734  -1.756   0.960  1.00  0.00    -0.326 N 
ATOM      2  C   UNL     1      -5.671  -2.555  -1.046  1.00  0.00     0.014 C 
ATOM      3  C   UNL     1      -4.563  -1.656  -0.492  1.00  0.00     0.091 C 
ATOM      4  C   UNL     1      -6.798  -2.353  -0.045  1.00  0.00     0.041 C 
ATOM      5  C   UNL     1      -6.010  -2.445   1.274  1.00  0.00     0.175 C 
ATOM      6  C   UNL     1      -3.232  -2.100  -1.097  1.00  0.00     0.059 C 
ATOM      7  C   UNL     1      -5.920  -2.267  -2.514  1.00  0.00     0.008 C 
ATOM      8  C   UNL     1      -3.359  -2.670  -2.527  1.00  0.00     0.143 C 
ATOM      9  C   UNL     1      -4.585  -2.101  -3.270  1.00  0.00     0.034 C 
ENDROOT
BRANCH   1  10
ATOM     10  C   UNL     1      -4.029  -1.144   1.982  1.00  0.00     0.246 C 
ATOM     11  O   UNL     1      -2.839  -1.433   2.149  1.00  0.00    -0.272 OA
BRANCH  10  12
ATOM     12  C   UNL     1      -4.734  -0.076   2.867  1.00  0.00     0.174 C 
BRANCH  12  13
ATOM     13  N   UNL     1      -5.335  -0.716   4.037  1.00  0.00    -0.342 N 
ATOM     14  C   UNL     1      -5.012  -0.434   5.345  1.00  0.00     0.249 C 
ATOM     15  O   UNL     1      -4.194   0.414   5.678  1.00  0.00    -0.272 OA
ATOM     16  H   UNL     1      -5.912  -1.544   3.917  1.00  0.00     0.164 HD
BRANCH  14  17
ATOM     17  C   UNL     1      -5.808  -1.290   6.353  1.00  0.00     0.207 C 
BRANCH  17  18
ATOM     18  C   UNL     1      -6.608  -2.373   5.621  1.00  0.00     0.077 C 
BRANCH  18  19
ATOM     19  C   UNL     1      -5.956  -3.732   5.745  1.00  0.00    -0.043 A 
ATOM     20  C   UNL     1      -5.880  -5.945   6.735  1.00  0.00     0.083 A 
ATOM     21  C   UNL     1      -6.511  -4.710   6.586  1.00  0.00     0.028 A 
ATOM     22  C   UNL     1      -4.694  -6.211   6.050  1.00  0.00     0.134 A 
ATOM     23  C   UNL     1      -4.134  -5.253   5.213  1.00  0.00     0.048 A 
ATOM     24  C   UNL     1      -4.762  -4.014   5.063  1.00  0.00     0.008 A 
ATOM     25  Cl  UNL     1      -6.576  -7.133   7.773  1.00  0.00    -0.080 Cl
BRANCH  22  26
ATOM     26  O   UNL     1      -4.034  -7.404   6.173  1.00  0.00    -0.506 OA
ATOM     27  H   UNL     1      -4.450  -7.879   6.916  1.00  0.00     0.293 HD
ENDBRANCH  22  26
ENDBRANCH  18  19
ENDBRANCH  17  18
BRANCH  17  28
ATOM     28  O   UNL     1      -6.705  -0.477   7.127  1.00  0.00    -0.383 OA
ATOM     29  H   UNL     1      -7.496  -1.036   7.302  1.00  0.00     0.211 HD
ENDBRANCH  17  28
ENDBRANCH  14  17
ENDBRANCH  12  13
BRANCH  12  30
ATOM     30  C   UNL     1      -5.753   0.784   2.073  1.00  0.00     0.018 C 
ATOM     31  C   UNL     1      -5.143   2.142   1.692  1.00  0.00     0.010 C 
BRANCH  30  32
ATOM     32  C   UNL     1      -7.098   0.993   2.811  1.00  0.00     0.002 C 
ATOM     33  C   UNL     1      -8.337   0.543   2.047  1.00  0.00     0.004 C 
ENDBRANCH  30  32
ENDBRANCH  12  30
ENDBRANCH  10  12
ENDBRANCH   1  10
BRANCH   5  34
ATOM     34  C   UNL     1      -5.753  -3.919   1.685  1.00  0.00     0.242 C 
ATOM     35  O   UNL     1      -4.628  -4.419   1.673  1.00  0.00    -0.273 OA
ATOM     36  N   UNL     1      -6.879  -4.642   2.011  1.00  0.00    -0.354 N 
ATOM     37  H   UNL     1      -7.795  -4.207   1.886  1.00  0.00     0.163 HD
BRANCH  36  38
ATOM     38  C   UNL     1      -6.807  -5.954   2.619  1.00  0.00     0.116 C 
BRANCH  38  39
ATOM     39  C   UNL     1      -7.721  -6.922   1.872  1.00  0.00     0.023 C 
BRANCH  39  40
ATOM     40  C   UNL     1      -7.498  -6.889   0.364  1.00  0.00     0.026 C 
BRANCH  40  41
ATOM     41  C   UNL     1      -8.105  -8.124  -0.301  1.00  0.00     0.146 C 
BRANCH  41  42
ATOM     42  N   UNL     1      -7.842  -9.303   0.514  1.00  0.00    -0.254 NA
ATOM     43  C   UNL     1      -8.611 -10.322   0.420  1.00  0.00     0.185 C 
ATOM     44  N   UNL     1      -9.696 -10.520  -0.351  1.00  0.00    -0.370 N 
ATOM     45  N   UNL     1      -8.354 -11.397   1.184  1.00  0.00    -0.370 N 
ATOM     46  H   UNL     1     -10.341 -11.264  -0.147  1.00  0.00     0.159 HD
ATOM     47  H   UNL     1     -10.024  -9.812  -1.000  1.00  0.00     0.159 HD
ATOM     48  H   UNL     1      -7.547 -11.334   1.789  1.00  0.00     0.159 HD
ATOM     49  H   UNL     1      -8.752 -12.301   1.002  1.00  0.00     0.159 HD
ENDBRANCH  41  42
ENDBRANCH  40  41
ENDBRANCH  39  40
ENDBRANCH  38  39
ENDBRANCH  36  38
ENDBRANCH   5  34
BRANCH   8  50
ATOM     50  O   UNL     1      -3.478  -4.092  -2.479  1.00  0.00    -0.245 OA
BRANCH  50  51
ATOM     51  S   UNL     1      -2.139  -5.013  -2.563  1.00  0.00     0.397 S 
ATOM     52  O   UNL     1      -1.509  -5.004  -1.262  1.00  0.00    -0.169 OA
ATOM     53  O   UNL     1      -1.402  -4.688  -3.766  1.00  0.00    -0.169 OA
BRANCH  51  54
ATOM     54  O   UNL     1      -2.756  -6.487  -2.742  1.00  0.00    -0.264 OA
ATOM     55  H   UNL     1      -3.667  -6.389  -3.088  1.00  0.00     0.236 HD
ENDBRANCH  51  54
ENDBRANCH  50  51
ENDBRANCH   8  50
TORSDOF 19
ENDMDL
MODEL 35
REMARK VINA RESULT:    -5.630      4.886      7.979
REMARK INTER + INTRA:         -15.681
REMARK INTER:                 -12.358
REMARK INTRA:                  -3.323
REMARK UNBOUND:                -4.291
REMARK SMILES CC[C@@H](C)[C@@H](NC(=O)[C@@H](O)Cc1ccc(O)c(Cl)c1)C(=O)N1[C@H](C(=O)NCCCCN=C(N)N)C[C@H]2CC[C@H](OS(=O)(=O)O)C[C@@H]21
REMARK SMILES IDX 22 1 36 2 46 3 35 4 23 5 45 6 37 7 39 8 38 9 20 10 21 11
REMARK SMILES IDX 5 12 6 13 7 14 8 15 9 17 11 18 12 19 17 20 19 21 15 22 14 23
REMARK SMILES IDX 13 24 18 25 16 26 10 28 3 30 4 31 2 32 1 33 24 34 25 35
REMARK SMILES IDX 26 36 27 38 28 39 29 40 30 41 31 42 32 43 33 44 34 45 40 50
REMARK SMILES IDX 41 51 42 52 43 53 44 54
REMARK H PARENT 6 16 16 27 10 29 26 37 33 46 33 47 34 48 34 49 44 55
ROOT
ATOM      1  N   UNL     1      -4.985  -0.544  -9.683  1.00  0.00    -0.326 N 
ATOM      2  C   UNL     1      -7.220  -1.018  -9.115  1.00  0.00     0.014 C 
ATOM      3  C   UNL     1      -5.772  -1.381  -8.773  1.00  0.00     0.091 C 
ATOM      4  C   UNL     1      -7.156  -0.763 -10.613  1.00  0.00     0.041 C 
ATOM      5  C   UNL     1      -5.873   0.085 -10.691  1.00  0.00     0.175 C 
ATOM      6  C   UNL     1      -5.572  -1.202  -7.269  1.00  0.00     0.059 C 
ATOM      7  C   UNL     1      -8.181  -2.059  -8.578  1.00  0.00     0.008 C 
ATOM      8  C   UNL     1      -6.839  -1.489  -6.435  1.00  0.00     0.143 C 
ATOM      9  C   UNL     1      -7.789  -2.475  -7.144  1.00  0.00     0.034 C 
ENDROOT
BRANCH   1  10
ATOM     10  C   UNL     1      -3.612  -0.456  -9.845  1.00  0.00     0.246 C 
ATOM     11  O   UNL     1      -2.974   0.334  -9.142  1.00  0.00    -0.272 OA
BRANCH  10  12
ATOM     12  C   UNL     1      -2.900  -1.381 -10.874  1.00  0.00     0.174 C 
BRANCH  12  13
ATOM     13  N   UNL     1      -2.575  -2.664 -10.251  1.00  0.00    -0.342 N 
ATOM     14  C   UNL     1      -3.381  -3.780 -10.273  1.00  0.00     0.249 C 
ATOM     15  O   UNL     1      -4.462  -3.830 -10.847  1.00  0.00    -0.272 OA
ATOM     16  H   UNL     1      -1.789  -2.727  -9.609  1.00  0.00     0.164 HD
BRANCH  14  17
ATOM     17  C   UNL     1      -2.767  -4.973  -9.510  1.00  0.00     0.207 C 
BRANCH  17  18
ATOM     18  C   UNL     1      -1.461  -4.556  -8.827  1.00  0.00     0.077 C 
BRANCH  18  19
ATOM     19  C   UNL     1      -1.571  -4.614  -7.320  1.00  0.00    -0.043 A 
ATOM     20  C   UNL     1      -2.556  -3.816  -5.251  1.00  0.00     0.083 A 
ATOM     21  C   UNL     1      -2.491  -3.796  -6.645  1.00  0.00     0.028 A 
ATOM     22  C   UNL     1      -1.705  -4.649  -4.524  1.00  0.00     0.134 A 
ATOM     23  C   UNL     1      -0.790  -5.465  -5.180  1.00  0.00     0.048 A 
ATOM     24  C   UNL     1      -0.721  -5.446  -6.575  1.00  0.00     0.008 A 
ATOM     25  Cl  UNL     1      -3.692  -2.803  -4.440  1.00  0.00    -0.080 Cl
BRANCH  22  26
ATOM     26  O   UNL     1      -1.725  -4.695  -3.157  1.00  0.00    -0.506 OA
ATOM     27  H   UNL     1      -2.095  -3.846  -2.853  1.00  0.00     0.293 HD
ENDBRANCH  22  26
ENDBRANCH  18  19
ENDBRANCH  17  18
BRANCH  17  28
ATOM     28  O   UNL     1      -2.512  -6.076 -10.394  1.00  0.00    -0.383 OA
ATOM     29  H   UNL     1      -1.740  -5.811 -10.944  1.00  0.00     0.211 HD
ENDBRANCH  17  28
ENDBRANCH  14  17
ENDBRANCH  12  13
BRANCH  12  30
ATOM     30  C   UNL     1      -1.663  -0.710 -11.529  1.00  0.00     0.018 C 
ATOM     31  C   UNL     1      -1.952  -0.339 -12.992  1.00  0.00     0.010 C 
BRANCH  30  32
ATOM     32  C   UNL     1      -0.374  -1.563 -11.441  1.00  0.00     0.002 C 
ATOM     33  C   UNL     1       0.590  -1.173 -10.328  1.00  0.00     0.004 C 
ENDBRANCH  30  32
ENDBRANCH  12  30
ENDBRANCH  10  12
ENDBRANCH   1  10
BRANCH   5  34
ATOM     34  C   UNL     1      -6.147   1.570 -10.333  1.00  0.00     0.242 C 
ATOM     35  O   UNL     1      -6.781   2.320 -11.075  1.00  0.00    -0.273 OA
ATOM     36  N   UNL     1      -5.583   2.001  -9.153  1.00  0.00    -0.354 N 
ATOM     37  H   UNL     1      -4.968   1.367  -8.642  1.00  0.00     0.163 HD
BRANCH  36  38
ATOM     38  C   UNL     1      -5.912   3.282  -8.562  1.00  0.00     0.116 C 
BRANCH  38  39
ATOM     39  C   UNL     1      -7.186   3.156  -7.729  1.00  0.00     0.023 C 
BRANCH  39  40
ATOM     40  C   UNL     1      -8.231   4.202  -8.101  1.00  0.00     0.026 C 
BRANCH  40  41
ATOM     41  C   UNL     1      -9.330   4.271  -7.041  1.00  0.00     0.146 C 
BRANCH  41  42
ATOM     42  N   UNL     1     -10.610   4.559  -7.676  1.00  0.00    -0.254 NA
ATOM     43  C   UNL     1     -11.652   4.728  -6.952  1.00  0.00     0.185 C 
ATOM     44  N   UNL     1     -11.792   4.688  -5.615  1.00  0.00    -0.370 N 
ATOM     45  N   UNL     1     -12.823   4.988  -7.557  1.00  0.00    -0.370 N 
ATOM     46  H   UNL     1     -12.703   4.595  -5.197  1.00  0.00     0.159 HD
ATOM     47  H   UNL     1     -11.002   4.516  -5.001  1.00  0.00     0.159 HD
ATOM     48  H   UNL     1     -12.803   5.044  -8.567  1.00  0.00     0.159 HD
ATOM     49  H   UNL     1     -13.617   5.361  -7.068  1.00  0.00     0.159 HD
ENDBRANCH  41  42
ENDBRANCH  40  41
ENDBRANCH  39  40
ENDBRANCH  38  39
ENDBRANCH  36  38
ENDBRANCH   5  34
BRANCH   8  50
ATOM     50  O   UNL     1      -7.548  -0.274  -6.188  1.00  0.00    -0.245 OA
BRANCH  50  51
ATOM     51  S   UNL     1      -7.657   0.298  -4.669  1.00  0.00     0.397 S 
ATOM     52  O   UNL     1      -9.030   0.164  -4.239  1.00  0.00    -0.169 OA
ATOM     53  O   UNL     1      -6.950   1.558  -4.573  1.00  0.00    -0.169 OA
BRANCH  51  54
ATOM     54  O   UNL     1      -6.827  -0.800  -3.837  1.00  0.00    -0.264 OA
ATOM     55  H   UNL     1      -6.930  -1.660  -4.293  1.00  0.00     0.236 HD
ENDBRANCH  51  54
ENDBRANCH  50  51
ENDBRANCH   8  50
TORSDOF 19
ENDMDL
MODEL 36
REMARK VINA RESULT:    -5.611      2.451      3.787
REMARK INTER + INTRA:         -15.643
REMARK INTER:                 -12.974
REMARK INTRA:                  -2.669
REMARK UNBOUND:                -4.291
REMARK SMILES CC[C@@H](C)[C@@H](NC(=O)[C@@H](O)Cc1ccc(O)c(Cl)c1)C(=O)N1[C@H](C(=O)NCCCCN=C(N)N)C[C@H]2CC[C@H](OS(=O)(=O)O)C[C@@H]21
REMARK SMILES IDX 22 1 36 2 46 3 35 4 23 5 45 6 37 7 39 8 38 9 20 10 21 11
REMARK SMILES IDX 5 12 6 13 7 14 8 15 9 17 11 18 12 19 17 20 19 21 15 22 14 23
REMARK SMILES IDX 13 24 18 25 16 26 10 28 3 30 4 31 2 32 1 33 24 34 25 35
REMARK SMILES IDX 26 36 27 38 28 39 29 40 30 41 31 42 32 43 33 44 34 45 40 50
REMARK SMILES IDX 41 51 42 52 43 53 44 54
REMARK H PARENT 6 16 16 27 10 29 26 37 33 46 33 47 34 48 34 49 44 55
ROOT
ATOM      1  N   UNL     1      -3.116  -2.745  -9.237  1.00  0.00    -0.326 N 
ATOM      2  C   UNL     1      -3.089  -5.000  -8.563  1.00  0.00     0.014 C 
ATOM      3  C   UNL     1      -2.185  -3.786  -8.793  1.00  0.00     0.091 C 
ATOM      4  C   UNL     1      -4.143  -4.843  -9.648  1.00  0.00     0.041 C 
ATOM      5  C   UNL     1      -4.446  -3.339  -9.518  1.00  0.00     0.175 C 
ATOM      6  C   UNL     1      -1.374  -3.540  -7.522  1.00  0.00     0.059 C 
ATOM      7  C   UNL     1      -2.276  -6.278  -8.496  1.00  0.00     0.008 C 
ATOM      8  C   UNL     1      -1.045  -4.827  -6.735  1.00  0.00     0.143 C 
ATOM      9  C   UNL     1      -1.003  -6.069  -7.649  1.00  0.00     0.034 C 
ENDROOT
BRANCH   1  10
ATOM     10  C   UNL     1      -2.869  -1.435  -9.610  1.00  0.00     0.246 C 
ATOM     11  O   UNL     1      -2.747  -0.572  -8.734  1.00  0.00    -0.272 OA
BRANCH  10  12
ATOM     12  C   UNL     1      -2.709  -1.084 -11.118  1.00  0.00     0.174 C 
BRANCH  12  13
ATOM     13  N   UNL     1      -1.398  -0.480 -11.353  1.00  0.00    -0.342 N 
ATOM     14  C   UNL     1      -0.220  -1.179 -11.498  1.00  0.00     0.249 C 
ATOM     15  O   UNL     1      -0.145  -2.401 -11.474  1.00  0.00    -0.272 OA
ATOM     16  H   UNL     1      -1.279   0.524 -11.242  1.00  0.00     0.164 HD
BRANCH  14  17
ATOM     17  C   UNL     1       0.997  -0.255 -11.717  1.00  0.00     0.207 C 
BRANCH  17  18
ATOM     18  C   UNL     1       1.808  -0.122 -10.424  1.00  0.00     0.077 C 
BRANCH  18  19
ATOM     19  C   UNL     1       3.006   0.783 -10.602  1.00  0.00    -0.043 A 
ATOM     20  C   UNL     1       5.079   1.328 -11.738  1.00  0.00     0.083 A 
ATOM     21  C   UNL     1       3.949   0.520 -11.608  1.00  0.00     0.028 A 
ATOM     22  C   UNL     1       5.274   2.401 -10.867  1.00  0.00     0.134 A 
ATOM     23  C   UNL     1       4.347   2.673  -9.867  1.00  0.00     0.048 A 
ATOM     24  C   UNL     1       3.216   1.864  -9.733  1.00  0.00     0.008 A 
ATOM     25  Cl  UNL     1       6.227   0.988 -12.979  1.00  0.00    -0.080 Cl
BRANCH  22  26
ATOM     26  O   UNL     1       6.371   3.215 -10.949  1.00  0.00    -0.506 OA
ATOM     27  H   UNL     1       6.047   4.096 -11.212  1.00  0.00     0.293 HD
ENDBRANCH  22  26
ENDBRANCH  18  19
ENDBRANCH  17  18
BRANCH  17  28
ATOM     28  O   UNL     1       0.585   1.049 -12.157  1.00  0.00    -0.383 OA
ATOM     29  H   UNL     1       0.310   1.535 -11.347  1.00  0.00     0.211 HD
ENDBRANCH  17  28
ENDBRANCH  14  17
ENDBRANCH  12  13
BRANCH  12  30
ATOM     30  C   UNL     1      -3.871  -0.206 -11.657  1.00  0.00     0.018 C 
ATOM     31  C   UNL     1      -3.842   1.191 -11.017  1.00  0.00     0.010 C 
BRANCH  30  32
ATOM     32  C   UNL     1      -5.269  -0.846 -11.474  1.00  0.00     0.002 C 
ATOM     33  C   UNL     1      -6.256  -0.028 -10.652  1.00  0.00     0.004 C 
ENDBRANCH  30  32
ENDBRANCH  12  30
ENDBRANCH  10  12
ENDBRANCH   1  10
BRANCH   5  34
ATOM     34  C   UNL     1      -5.433  -3.053  -8.355  1.00  0.00     0.242 C 
ATOM     35  O   UNL     1      -6.598  -3.451  -8.367  1.00  0.00    -0.273 OA
ATOM     36  N   UNL     1      -4.928  -2.276  -7.335  1.00  0.00    -0.354 N 
ATOM     37  H   UNL     1      -3.995  -1.876  -7.439  1.00  0.00     0.163 HD
BRANCH  36  38
ATOM     38  C   UNL     1      -5.631  -2.093  -6.083  1.00  0.00     0.116 C 
BRANCH  38  39
ATOM     39  C   UNL     1      -4.646  -2.176  -4.919  1.00  0.00     0.023 C 
BRANCH  39  40
ATOM     40  C   UNL     1      -5.331  -2.030  -3.564  1.00  0.00     0.026 C 
BRANCH  40  41
ATOM     41  C   UNL     1      -4.914  -3.159  -2.621  1.00  0.00     0.146 C 
BRANCH  41  42
ATOM     42  N   UNL     1      -3.780  -2.732  -1.812  1.00  0.00    -0.254 NA
ATOM     43  C   UNL     1      -3.164  -3.586  -1.084  1.00  0.00     0.185 C 
ATOM     44  N   UNL     1      -3.387  -4.902  -0.919  1.00  0.00    -0.370 N 
ATOM     45  N   UNL     1      -2.124  -3.170  -0.342  1.00  0.00    -0.370 N 
ATOM     46  H   UNL     1      -2.987  -5.396  -0.138  1.00  0.00     0.159 HD
ATOM     47  H   UNL     1      -4.129  -5.384  -1.417  1.00  0.00     0.159 HD
ATOM     48  H   UNL     1      -1.884  -2.191  -0.416  1.00  0.00     0.159 HD
ATOM     49  H   UNL     1      -1.455  -3.803   0.059  1.00  0.00     0.159 HD
ENDBRANCH  41  42
ENDBRANCH  40  41
ENDBRANCH  39  40
ENDBRANCH  38  39
ENDBRANCH  36  38
ENDBRANCH   5  34
BRANCH   8  50
ATOM     50  O   UNL     1      -2.023  -5.045  -5.719  1.00  0.00    -0.245 OA
BRANCH  50  51
ATOM     51  S   UNL     1      -1.544  -5.308  -4.187  1.00  0.00     0.397 S 
ATOM     52  O   UNL     1      -0.138  -5.643  -4.210  1.00  0.00    -0.169 OA
ATOM     53  O   UNL     1      -2.514  -6.146  -3.512  1.00  0.00    -0.169 OA
BRANCH  51  54
ATOM     54  O   UNL     1      -1.634  -3.835  -3.549  1.00  0.00    -0.264 OA
ATOM     55  H   UNL     1      -0.753  -3.417  -3.640  1.00  0.00     0.236 HD
ENDBRANCH  51  54
ENDBRANCH  50  51
ENDBRANCH   8  50
TORSDOF 19
ENDMDL
MODEL 37
REMARK VINA RESULT:    -5.599     11.265     15.637
REMARK INTER + INTRA:         -15.618
REMARK INTER:                 -10.285
REMARK INTRA:                  -5.333
REMARK UNBOUND:                -4.291
REMARK SMILES CC[C@@H](C)[C@@H](NC(=O)[C@@H](O)Cc1ccc(O)c(Cl)c1)C(=O)N1[C@H](C(=O)NCCCCN=C(N)N)C[C@H]2CC[C@H](OS(=O)(=O)O)C[C@@H]21
REMARK SMILES IDX 22 1 36 2 46 3 35 4 23 5 45 6 37 7 39 8 38 9 20 10 21 11
REMARK SMILES IDX 5 12 6 13 7 14 8 15 9 17 11 18 12 19 17 20 19 21 15 22 14 23
REMARK SMILES IDX 13 24 18 25 16 26 10 28 3 30 4 31 2 32 1 33 24 34 25 35
REMARK SMILES IDX 26 36 27 38 28 39 29 40 30 41 31 42 32 43 33 44 34 45 40 50
REMARK SMILES IDX 41 51 42 52 43 53 44 54
REMARK H PARENT 6 16 16 27 10 29 26 37 33 46 33 47 34 48 34 49 44 55
ROOT
ATOM      1  N   UNL     1      -6.865  -4.814   4.728  1.00  0.00    -0.326 N 
ATOM      2  C   UNL     1      -5.089  -3.287   4.965  1.00  0.00     0.014 C 
ATOM      3  C   UNL     1      -6.589  -3.376   4.666  1.00  0.00     0.091 C 
ATOM      4  C   UNL     1      -4.543  -4.550   4.319  1.00  0.00     0.041 C 
ATOM      5  C   UNL     1      -5.592  -5.573   4.792  1.00  0.00     0.175 C 
ATOM      6  C   UNL     1      -7.330  -2.453   5.632  1.00  0.00     0.059 C 
ATOM      7  C   UNL     1      -4.533  -1.939   4.549  1.00  0.00     0.008 C 
ATOM      8  C   UNL     1      -6.521  -1.203   6.041  1.00  0.00     0.143 C 
ATOM      9  C   UNL     1      -5.491  -0.803   4.966  1.00  0.00     0.034 C 
ENDROOT
BRANCH   1  10
ATOM     10  C   UNL     1      -8.050  -5.499   4.522  1.00  0.00     0.246 C 
ATOM     11  O   UNL     1      -8.876  -5.561   5.440  1.00  0.00    -0.272 OA
BRANCH  10  12
ATOM     12  C   UNL     1      -8.336  -6.139   3.132  1.00  0.00     0.174 C 
BRANCH  12  13
ATOM     13  N   UNL     1      -7.923  -5.224   2.069  1.00  0.00    -0.342 N 
ATOM     14  C   UNL     1      -6.837  -5.411   1.243  1.00  0.00     0.249 C 
ATOM     15  O   UNL     1      -6.103  -6.391   1.293  1.00  0.00    -0.272 OA
ATOM     16  H   UNL     1      -8.338  -4.298   2.011  1.00  0.00     0.164 HD
BRANCH  14  17
ATOM     17  C   UNL     1      -6.652  -4.260   0.231  1.00  0.00     0.207 C 
BRANCH  17  18
ATOM     18  C   UNL     1      -6.790  -2.904   0.932  1.00  0.00     0.077 C 
BRANCH  18  19
ATOM     19  C   UNL     1      -5.469  -2.171   1.001  1.00  0.00    -0.043 A 
ATOM     20  C   UNL     1      -4.219  -0.094   1.087  1.00  0.00     0.083 A 
ATOM     21  C   UNL     1      -5.440  -0.770   1.074  1.00  0.00     0.028 A 
ATOM     22  C   UNL     1      -3.023  -0.811   1.027  1.00  0.00     0.134 A 
ATOM     23  C   UNL     1      -3.038  -2.199   0.955  1.00  0.00     0.048 A 
ATOM     24  C   UNL     1      -4.258  -2.878   0.939  1.00  0.00     0.008 A 
ATOM     25  Cl  UNL     1      -4.203   1.628   1.177  1.00  0.00    -0.080 Cl
BRANCH  22  26
ATOM     26  O   UNL     1      -1.803  -0.192   1.028  1.00  0.00    -0.506 OA
ATOM     27  H   UNL     1      -1.961   0.739   0.784  1.00  0.00     0.293 HD
ENDBRANCH  22  26
ENDBRANCH  18  19
ENDBRANCH  17  18
BRANCH  17  28
ATOM     28  O   UNL     1      -7.615  -4.347  -0.832  1.00  0.00    -0.383 OA
ATOM     29  H   UNL     1      -7.679  -3.443  -1.215  1.00  0.00     0.211 HD
ENDBRANCH  17  28
ENDBRANCH  14  17
ENDBRANCH  12  13
BRANCH  12  30
ATOM     30  C   UNL     1      -9.809  -6.602   2.977  1.00  0.00     0.018 C 
ATOM     31  C   UNL     1      -9.878  -8.007   2.358  1.00  0.00     0.010 C 
BRANCH  30  32
ATOM     32  C   UNL     1     -10.687  -5.619   2.163  1.00  0.00     0.002 C 
ATOM     33  C   UNL     1     -11.342  -4.508   2.973  1.00  0.00     0.004 C 
ENDBRANCH  30  32
ENDBRANCH  12  30
ENDBRANCH  10  12
ENDBRANCH   1  10
BRANCH   5  34
ATOM     34  C   UNL     1      -5.311  -6.053   6.241  1.00  0.00     0.242 C 
ATOM     35  O   UNL     1      -4.221  -6.512   6.582  1.00  0.00    -0.273 OA
ATOM     36  N   UNL     1      -6.383  -5.977   7.102  1.00  0.00    -0.354 N 
ATOM     37  H   UNL     1      -7.293  -5.701   6.731  1.00  0.00     0.163 HD
BRANCH  36  38
ATOM     38  C   UNL     1      -6.244  -6.176   8.530  1.00  0.00     0.116 C 
BRANCH  38  39
ATOM     39  C   UNL     1      -7.581  -6.610   9.125  1.00  0.00     0.023 C 
BRANCH  39  40
ATOM     40  C   UNL     1      -8.686  -5.588   8.882  1.00  0.00     0.026 C 
BRANCH  40  41
ATOM     41  C   UNL     1      -8.348  -4.255   9.551  1.00  0.00     0.146 C 
BRANCH  41  42
ATOM     42  N   UNL     1      -8.901  -3.157   8.768  1.00  0.00    -0.254 NA
ATOM     43  C   UNL     1      -8.802  -1.957   9.203  1.00  0.00     0.185 C 
ATOM     44  N   UNL     1      -8.240  -1.489  10.332  1.00  0.00    -0.370 N 
ATOM     45  N   UNL     1      -9.322  -0.960   8.468  1.00  0.00    -0.370 N 
ATOM     46  H   UNL     1      -8.448  -0.563  10.663  1.00  0.00     0.159 HD
ATOM     47  H   UNL     1      -7.787  -2.108  10.998  1.00  0.00     0.159 HD
ATOM     48  H   UNL     1      -9.757  -1.226   7.595  1.00  0.00     0.159 HD
ATOM     49  H   UNL     1      -9.083   0.005   8.614  1.00  0.00     0.159 HD
ENDBRANCH  41  42
ENDBRANCH  40  41
ENDBRANCH  39  40
ENDBRANCH  38  39
ENDBRANCH  36  38
ENDBRANCH   5  34
BRANCH   8  50
ATOM     50  O   UNL     1      -5.829  -1.446   7.266  1.00  0.00    -0.245 OA
BRANCH  50  51
ATOM     51  S   UNL     1      -5.505  -0.204   8.265  1.00  0.00     0.397 S 
ATOM     52  O   UNL     1      -6.689   0.622   8.349  1.00  0.00    -0.169 OA
ATOM     53  O   UNL     1      -4.210   0.357   7.939  1.00  0.00    -0.169 OA
BRANCH  51  54
ATOM     54  O   UNL     1      -5.382  -0.941   9.688  1.00  0.00    -0.264 OA
ATOM     55  H   UNL     1      -5.625  -1.881   9.559  1.00  0.00     0.236 HD
ENDBRANCH  51  54
ENDBRANCH  50  51
ENDBRANCH   8  50
TORSDOF 19
ENDMDL
MODEL 38
REMARK VINA RESULT:    -5.598     11.233     15.477
REMARK INTER + INTRA:         -15.617
REMARK INTER:                 -11.682
REMARK INTRA:                  -3.935
REMARK UNBOUND:                -4.291
REMARK SMILES CC[C@@H](C)[C@@H](NC(=O)[C@@H](O)Cc1ccc(O)c(Cl)c1)C(=O)N1[C@H](C(=O)NCCCCN=C(N)N)C[C@H]2CC[C@H](OS(=O)(=O)O)C[C@@H]21
REMARK SMILES IDX 22 1 36 2 46 3 35 4 23 5 45 6 37 7 39 8 38 9 20 10 21 11
REMARK SMILES IDX 5 12 6 13 7 14 8 15 9 17 11 18 12 19 17 20 19 21 15 22 14 23
REMARK SMILES IDX 13 24 18 25 16 26 10 28 3 30 4 31 2 32 1 33 24 34 25 35
REMARK SMILES IDX 26 36 27 38 28 39 29 40 30 41 31 42 32 43 33 44 34 45 40 50
REMARK SMILES IDX 41 51 42 52 43 53 44 54
REMARK H PARENT 6 16 16 27 10 29 26 37 33 46 33 47 34 48 34 49 44 55
ROOT
ATOM      1  N   UNL     1      -6.672  -5.247   4.483  1.00  0.00    -0.326 N 
ATOM      2  C   UNL     1      -5.428  -3.366   5.159  1.00  0.00     0.014 C 
ATOM      3  C   UNL     1      -6.765  -3.785   4.543  1.00  0.00     0.091 C 
ATOM      4  C   UNL     1      -4.461  -4.393   4.591  1.00  0.00     0.041 C 
ATOM      5  C   UNL     1      -5.285  -5.679   4.785  1.00  0.00     0.175 C 
ATOM      6  C   UNL     1      -7.892  -3.165   5.368  1.00  0.00     0.059 C 
ATOM      7  C   UNL     1      -5.164  -1.891   4.931  1.00  0.00     0.008 C 
ATOM      8  C   UNL     1      -7.527  -1.802   5.993  1.00  0.00     0.143 C 
ATOM      9  C   UNL     1      -6.443  -1.064   5.182  1.00  0.00     0.034 C 
ENDROOT
BRANCH   1  10
ATOM     10  C   UNL     1      -7.578  -6.175   4.000  1.00  0.00     0.246 C 
ATOM     11  O   UNL     1      -8.353  -6.726   4.789  1.00  0.00    -0.272 OA
BRANCH  10  12
ATOM     12  C   UNL     1      -7.632  -6.472   2.473  1.00  0.00     0.174 C 
BRANCH  12  13
ATOM     13  N   UNL     1      -6.493  -5.846   1.803  1.00  0.00    -0.342 N 
ATOM     14  C   UNL     1      -5.691  -6.459   0.867  1.00  0.00     0.249 C 
ATOM     15  O   UNL     1      -5.863  -7.604   0.467  1.00  0.00    -0.272 OA
ATOM     16  H   UNL     1      -6.135  -4.957   2.143  1.00  0.00     0.164 HD
BRANCH  14  17
ATOM     17  C   UNL     1      -4.561  -5.541   0.356  1.00  0.00     0.207 C 
BRANCH  17  18
ATOM     18  C   UNL     1      -5.145  -4.332  -0.381  1.00  0.00     0.077 C 
BRANCH  18  19
ATOM     19  C   UNL     1      -4.947  -3.050   0.396  1.00  0.00    -0.043 A 
ATOM     20  C   UNL     1      -5.857  -1.035   1.394  1.00  0.00     0.083 A 
ATOM     21  C   UNL     1      -6.048  -2.241   0.720  1.00  0.00     0.028 A 
ATOM     22  C   UNL     1      -4.569  -0.628   1.746  1.00  0.00     0.134 A 
ATOM     23  C   UNL     1      -3.470  -1.419   1.431  1.00  0.00     0.048 A 
ATOM     24  C   UNL     1      -3.659  -2.627   0.755  1.00  0.00     0.008 A 
ATOM     25  Cl  UNL     1      -7.221  -0.055   1.783  1.00  0.00    -0.080 Cl
BRANCH  22  26
ATOM     26  O   UNL     1      -4.331   0.552   2.398  1.00  0.00    -0.506 OA
ATOM     27  H   UNL     1      -5.017   1.179   2.102  1.00  0.00     0.293 HD
ENDBRANCH  22  26
ENDBRANCH  18  19
ENDBRANCH  17  18
BRANCH  17  28
ATOM     28  O   UNL     1      -3.673  -6.251  -0.522  1.00  0.00    -0.383 OA
ATOM     29  H   UNL     1      -3.549  -5.674  -1.309  1.00  0.00     0.211 HD
ENDBRANCH  17  28
ENDBRANCH  14  17
ENDBRANCH  12  13
BRANCH  12  30
ATOM     30  C   UNL     1      -8.989  -6.076   1.832  1.00  0.00     0.018 C 
ATOM     31  C   UNL     1      -9.387  -4.648   2.236  1.00  0.00     0.010 C 
BRANCH  30  32
ATOM     32  C   UNL     1     -10.139  -7.060   2.153  1.00  0.00     0.002 C 
ATOM     33  C   UNL     1     -11.358  -6.441   2.824  1.00  0.00     0.004 C 
ENDBRANCH  30  32
ENDBRANCH  12  30
ENDBRANCH  10  12
ENDBRANCH   1  10
BRANCH   5  34
ATOM     34  C   UNL     1      -5.179  -6.213   6.238  1.00  0.00     0.242 C 
ATOM     35  O   UNL     1      -4.198  -6.837   6.640  1.00  0.00    -0.273 OA
ATOM     36  N   UNL     1      -6.284  -5.984   7.028  1.00  0.00    -0.354 N 
ATOM     37  H   UNL     1      -7.114  -5.568   6.603  1.00  0.00     0.163 HD
BRANCH  36  38
ATOM     38  C   UNL     1      -6.275  -6.219   8.457  1.00  0.00     0.116 C 
BRANCH  38  39
ATOM     39  C   UNL     1      -7.222  -7.366   8.800  1.00  0.00     0.023 C 
BRANCH  39  40
ATOM     40  C   UNL     1      -6.485  -8.679   9.038  1.00  0.00     0.026 C 
BRANCH  40  41
ATOM     41  C   UNL     1      -7.274  -9.856   8.464  1.00  0.00     0.146 C 
BRANCH  41  42
ATOM     42  N   UNL     1      -8.140  -9.390   7.389  1.00  0.00    -0.254 NA
ATOM     43  C   UNL     1      -8.228 -10.069   6.307  1.00  0.00     0.185 C 
ATOM     44  N   UNL     1      -7.622 -11.218   5.955  1.00  0.00    -0.370 N 
ATOM     45  N   UNL     1      -9.029  -9.620   5.327  1.00  0.00    -0.370 N 
ATOM     46  H   UNL     1      -7.592 -11.507   4.992  1.00  0.00     0.159 HD
ATOM     47  H   UNL     1      -6.991 -11.703   6.586  1.00  0.00     0.159 HD
ATOM     48  H   UNL     1      -9.530  -8.763   5.514  1.00  0.00     0.159 HD
ATOM     49  H   UNL     1      -9.332 -10.200   4.564  1.00  0.00     0.159 HD
ENDBRANCH  41  42
ENDBRANCH  40  41
ENDBRANCH  39  40
ENDBRANCH  38  39
ENDBRANCH  36  38
ENDBRANCH   5  34
BRANCH   8  50
ATOM     50  O   UNL     1      -7.049  -1.986   7.326  1.00  0.00    -0.245 OA
BRANCH  50  51
ATOM     51  S   UNL     1      -7.889  -1.367   8.574  1.00  0.00     0.397 S 
ATOM     52  O   UNL     1      -7.102  -1.544   9.774  1.00  0.00    -0.169 OA
ATOM     53  O   UNL     1      -9.267  -1.805   8.497  1.00  0.00    -0.169 OA
BRANCH  51  54
ATOM     54  O   UNL     1      -7.852   0.209   8.254  1.00  0.00    -0.264 OA
ATOM     55  H   UNL     1      -8.029   0.687   9.090  1.00  0.00     0.236 HD
ENDBRANCH  51  54
ENDBRANCH  50  51
ENDBRANCH   8  50
TORSDOF 19
ENDMDL
MODEL 39
REMARK VINA RESULT:    -5.586     17.919     22.025
REMARK INTER + INTRA:         -15.592
REMARK INTER:                 -12.356
REMARK INTRA:                  -3.236
REMARK UNBOUND:                -4.291
REMARK SMILES CC[C@@H](C)[C@@H](NC(=O)[C@@H](O)Cc1ccc(O)c(Cl)c1)C(=O)N1[C@H](C(=O)NCCCCN=C(N)N)C[C@H]2CC[C@H](OS(=O)(=O)O)C[C@@H]21
REMARK SMILES IDX 22 1 36 2 46 3 35 4 23 5 45 6 37 7 39 8 38 9 20 10 21 11
REMARK SMILES IDX 5 12 6 13 7 14 8 15 9 17 11 18 12 19 17 20 19 21 15 22 14 23
REMARK SMILES IDX 13 24 18 25 16 26 10 28 3 30 4 31 2 32 1 33 24 34 25 35
REMARK SMILES IDX 26 36 27 38 28 39 29 40 30 41 31 42 32 43 33 44 34 45 40 50
REMARK SMILES IDX 41 51 42 52 43 53 44 54
REMARK H PARENT 6 16 16 27 10 29 26 37 33 46 33 47 34 48 34 49 44 55
ROOT
ATOM      1  N   UNL     1      11.449  11.335   2.572  1.00  0.00    -0.326 N 
ATOM      2  C   UNL     1       9.637  12.818   2.820  1.00  0.00     0.014 C 
ATOM      3  C   UNL     1      10.044  11.351   2.990  1.00  0.00     0.091 C 
ATOM      4  C   UNL     1      10.438  13.248   1.600  1.00  0.00     0.041 C 
ATOM      5  C   UNL     1      11.806  12.628   1.940  1.00  0.00     0.175 C 
ATOM      6  C   UNL     1       9.707  10.919   4.416  1.00  0.00     0.059 C 
ATOM      7  C   UNL     1       8.128  12.964   2.809  1.00  0.00     0.008 C 
ATOM      8  C   UNL     1       8.469  11.630   5.005  1.00  0.00     0.143 C 
ATOM      9  C   UNL     1       7.488  12.089   3.907  1.00  0.00     0.034 C 
ENDROOT
BRANCH   1  10
ATOM     10  C   UNL     1      12.340  10.278   2.496  1.00  0.00     0.246 C 
ATOM     11  O   UNL     1      12.906   9.893   3.525  1.00  0.00    -0.272 OA
BRANCH  10  12
ATOM     12  C   UNL     1      12.576   9.571   1.130  1.00  0.00     0.174 C 
BRANCH  12  13
ATOM     13  N   UNL     1      11.293   9.232   0.515  1.00  0.00    -0.342 N 
ATOM     14  C   UNL     1      10.868   9.670  -0.719  1.00  0.00     0.249 C 
ATOM     15  O   UNL     1      11.538  10.379  -1.459  1.00  0.00    -0.272 OA
ATOM     16  H   UNL     1      10.571   8.782   1.072  1.00  0.00     0.164 HD
BRANCH  14  17
ATOM     17  C   UNL     1       9.459   9.153  -1.081  1.00  0.00     0.207 C 
BRANCH  17  18
ATOM     18  C   UNL     1       9.113   7.914  -0.249  1.00  0.00     0.077 C 
BRANCH  18  19
ATOM     19  C   UNL     1       7.713   7.419  -0.534  1.00  0.00    -0.043 A 
ATOM     20  C   UNL     1       6.220   5.685  -1.341  1.00  0.00     0.083 A 
ATOM     21  C   UNL     1       7.509   6.122  -1.032  1.00  0.00     0.028 A 
ATOM     22  C   UNL     1       5.131   6.538  -1.158  1.00  0.00     0.134 A 
ATOM     23  C   UNL     1       5.319   7.824  -0.665  1.00  0.00     0.048 A 
ATOM     24  C   UNL     1       6.608   8.265  -0.357  1.00  0.00     0.008 A 
ATOM     25  Cl  UNL     1       5.989   4.089  -1.952  1.00  0.00    -0.080 Cl
BRANCH  22  26
ATOM     26  O   UNL     1       3.851   6.158  -1.457  1.00  0.00    -0.506 OA
ATOM     27  H   UNL     1       3.332   6.977  -1.560  1.00  0.00     0.293 HD
ENDBRANCH  22  26
ENDBRANCH  18  19
ENDBRANCH  17  18
BRANCH  17  28
ATOM     28  O   UNL     1       9.371   8.827  -2.478  1.00  0.00    -0.383 OA
ATOM     29  H   UNL     1      10.184   9.194  -2.895  1.00  0.00     0.211 HD
ENDBRANCH  17  28
ENDBRANCH  14  17
ENDBRANCH  12  13
BRANCH  12  30
ATOM     30  C   UNL     1      13.521   8.345   1.244  1.00  0.00     0.018 C 
ATOM     31  C   UNL     1      14.280   8.115  -0.073  1.00  0.00     0.010 C 
BRANCH  30  32
ATOM     32  C   UNL     1      12.802   7.044   1.677  1.00  0.00     0.002 C 
ATOM     33  C   UNL     1      13.718   5.869   1.996  1.00  0.00     0.004 C 
ENDBRANCH  30  32
ENDBRANCH  12  30
ENDBRANCH  10  12
ENDBRANCH   1  10
BRANCH   5  34
ATOM     34  C   UNL     1      12.608  13.520   2.925  1.00  0.00     0.242 C 
ATOM     35  O   UNL     1      12.529  13.387   4.146  1.00  0.00    -0.273 OA
ATOM     36  N   UNL     1      13.372  14.503   2.337  1.00  0.00    -0.354 N 
ATOM     37  H   UNL     1      13.304  14.640   1.327  1.00  0.00     0.163 HD
BRANCH  36  38
ATOM     38  C   UNL     1      14.342  15.278   3.082  1.00  0.00     0.116 C 
BRANCH  38  39
ATOM     39  C   UNL     1      15.678  14.539   3.118  1.00  0.00     0.023 C 
BRANCH  39  40
ATOM     40  C   UNL     1      16.250  14.438   4.528  1.00  0.00     0.026 C 
BRANCH  40  41
ATOM     41  C   UNL     1      15.630  13.261   5.282  1.00  0.00     0.146 C 
BRANCH  41  42
ATOM     42  N   UNL     1      15.570  13.565   6.706  1.00  0.00    -0.254 NA
ATOM     43  C   UNL     1      14.535  14.145   7.186  1.00  0.00     0.185 C 
ATOM     44  N   UNL     1      13.409  14.555   6.572  1.00  0.00    -0.370 N 
ATOM     45  N   UNL     1      14.500  14.420   8.500  1.00  0.00    -0.370 N 
ATOM     46  H   UNL     1      12.790  15.209   7.020  1.00  0.00     0.159 HD
ATOM     47  H   UNL     1      13.262  14.412   5.578  1.00  0.00     0.159 HD
ATOM     48  H   UNL     1      15.307  14.136   9.039  1.00  0.00     0.159 HD
ATOM     49  H   UNL     1      13.651  14.649   8.986  1.00  0.00     0.159 HD
ENDBRANCH  41  42
ENDBRANCH  40  41
ENDBRANCH  39  40
ENDBRANCH  38  39
ENDBRANCH  36  38
ENDBRANCH   5  34
BRANCH   8  50
ATOM     50  O   UNL     1       8.873  12.773   5.760  1.00  0.00    -0.245 OA
BRANCH  50  51
ATOM     51  S   UNL     1       9.485  12.573   7.253  1.00  0.00     0.397 S 
ATOM     52  O   UNL     1      10.813  13.145   7.272  1.00  0.00    -0.169 OA
ATOM     53  O   UNL     1       9.234  11.220   7.705  1.00  0.00    -0.169 OA
BRANCH  51  54
ATOM     54  O   UNL     1       8.569  13.565   8.127  1.00  0.00    -0.264 OA
ATOM     55  H   UNL     1       7.809  13.049   8.465  1.00  0.00     0.236 HD
ENDBRANCH  51  54
ENDBRANCH  50  51
ENDBRANCH   8  50
TORSDOF 19
ENDMDL
MODEL 40
REMARK VINA RESULT:    -5.576     19.682     23.551
REMARK INTER + INTRA:         -15.572
REMARK INTER:                 -12.297
REMARK INTRA:                  -3.276
REMARK UNBOUND:                -4.291
REMARK SMILES CC[C@@H](C)[C@@H](NC(=O)[C@@H](O)Cc1ccc(O)c(Cl)c1)C(=O)N1[C@H](C(=O)NCCCCN=C(N)N)C[C@H]2CC[C@H](OS(=O)(=O)O)C[C@@H]21
REMARK SMILES IDX 22 1 36 2 46 3 35 4 23 5 45 6 37 7 39 8 38 9 20 10 21 11
REMARK SMILES IDX 5 12 6 13 7 14 8 15 9 17 11 18 12 19 17 20 19 21 15 22 14 23
REMARK SMILES IDX 13 24 18 25 16 26 10 28 3 30 4 31 2 32 1 33 24 34 25 35
REMARK SMILES IDX 26 36 27 38 28 39 29 40 30 41 31 42 32 43 33 44 34 45 40 50
REMARK SMILES IDX 41 51 42 52 43 53 44 54
REMARK H PARENT 6 16 16 27 10 29 26 37 33 46 33 47 34 48 34 49 44 55
ROOT
ATOM      1  N   UNL     1      11.492  12.142   4.037  1.00  0.00    -0.326 N 
ATOM      2  C   UNL     1       9.775  13.333   5.123  1.00  0.00     0.014 C 
ATOM      3  C   UNL     1      10.373  11.932   4.961  1.00  0.00     0.091 C 
ATOM      4  C   UNL     1       9.978  13.945   3.745  1.00  0.00     0.041 C 
ATOM      5  C   UNL     1      11.427  13.509   3.464  1.00  0.00     0.175 C 
ATOM      6  C   UNL     1      10.675  11.372   6.349  1.00  0.00     0.059 C 
ATOM      7  C   UNL     1       8.378  13.262   5.707  1.00  0.00     0.008 C 
ATOM      8  C   UNL     1       9.700  11.862   7.442  1.00  0.00     0.143 C 
ATOM      9  C   UNL     1       8.322  12.241   6.862  1.00  0.00     0.034 C 
ENDROOT
BRANCH   1  10
ATOM     10  C   UNL     1      12.389  11.230   3.509  1.00  0.00     0.246 C 
ATOM     11  O   UNL     1      13.542  11.195   3.953  1.00  0.00    -0.272 OA
BRANCH  10  12
ATOM     12  C   UNL     1      11.918  10.244   2.401  1.00  0.00     0.174 C 
BRANCH  12  13
ATOM     13  N   UNL     1      10.622   9.671   2.762  1.00  0.00    -0.342 N 
ATOM     14  C   UNL     1       9.421   9.999   2.172  1.00  0.00     0.249 C 
ATOM     15  O   UNL     1       9.310  10.797   1.250  1.00  0.00    -0.272 OA
ATOM     16  H   UNL     1      10.535   9.116   3.609  1.00  0.00     0.164 HD
BRANCH  14  17
ATOM     17  C   UNL     1       8.229   9.235   2.786  1.00  0.00     0.207 C 
BRANCH  17  18
ATOM     18  C   UNL     1       7.115  10.210   3.183  1.00  0.00     0.077 C 
BRANCH  18  19
ATOM     19  C   UNL     1       5.747   9.577   3.069  1.00  0.00    -0.043 A 
ATOM     20  C   UNL     1       3.732   8.722   4.115  1.00  0.00     0.083 A 
ATOM     21  C   UNL     1       4.973   9.352   4.218  1.00  0.00     0.028 A 
ATOM     22  C   UNL     1       3.258   8.314   2.868  1.00  0.00     0.134 A 
ATOM     23  C   UNL     1       4.014   8.531   1.722  1.00  0.00     0.048 A 
ATOM     24  C   UNL     1       5.257   9.160   1.822  1.00  0.00     0.008 A 
ATOM     25  Cl  UNL     1       2.796   8.454   5.538  1.00  0.00    -0.080 Cl
BRANCH  22  26
ATOM     26  O   UNL     1       2.052   7.684   2.718  1.00  0.00    -0.506 OA
ATOM     27  H   UNL     1       2.233   6.726   2.735  1.00  0.00     0.293 HD
ENDBRANCH  22  26
ENDBRANCH  18  19
ENDBRANCH  17  18
BRANCH  17  28
ATOM     28  O   UNL     1       8.635   8.481   3.939  1.00  0.00    -0.383 OA
ATOM     29  H   UNL     1       9.201   7.750   3.600  1.00  0.00     0.211 HD
ENDBRANCH  17  28
ENDBRANCH  14  17
ENDBRANCH  12  13
BRANCH  12  30
ATOM     30  C   UNL     1      12.977   9.156   2.076  1.00  0.00     0.018 C 
ATOM     31  C   UNL     1      13.063   8.912   0.562  1.00  0.00     0.010 C 
BRANCH  30  32
ATOM     32  C   UNL     1      12.741   7.818   2.819  1.00  0.00     0.002 C 
ATOM     33  C   UNL     1      12.412   6.628   1.927  1.00  0.00     0.004 C 
ENDBRANCH  30  32
ENDBRANCH  12  30
ENDBRANCH  10  12
ENDBRANCH   1  10
BRANCH   5  34
ATOM     34  C   UNL     1      12.451  14.446   4.159  1.00  0.00     0.242 C 
ATOM     35  O   UNL     1      12.349  14.771   5.341  1.00  0.00    -0.273 OA
ATOM     36  N   UNL     1      13.450  14.929   3.343  1.00  0.00    -0.354 N 
ATOM     37  H   UNL     1      13.414  14.720   2.345  1.00  0.00     0.163 HD
BRANCH  36  38
ATOM     38  C   UNL     1      14.602  15.635   3.866  1.00  0.00     0.116 C 
BRANCH  38  39
ATOM     39  C   UNL     1      15.783  14.675   3.995  1.00  0.00     0.023 C 
BRANCH  39  40
ATOM     40  C   UNL     1      16.706  15.040   5.153  1.00  0.00     0.026 C 
BRANCH  40  41
ATOM     41  C   UNL     1      16.774  13.902   6.171  1.00  0.00     0.146 C 
BRANCH  41  42
ATOM     42  N   UNL     1      15.985  14.246   7.347  1.00  0.00    -0.254 NA
ATOM     43  C   UNL     1      14.833  13.713   7.514  1.00  0.00     0.185 C 
ATOM     44  N   UNL     1      14.169  12.828   6.748  1.00  0.00    -0.370 N 
ATOM     45  N   UNL     1      14.119  14.046   8.602  1.00  0.00    -0.370 N 
ATOM     46  H   UNL     1      13.181  12.684   6.869  1.00  0.00     0.159 HD
ATOM     47  H   UNL     1      14.570  12.458   5.891  1.00  0.00     0.159 HD
ATOM     48  H   UNL     1      14.551  14.703   9.238  1.00  0.00     0.159 HD
ATOM     49  H   UNL     1      13.334  13.508   8.923  1.00  0.00     0.159 HD
ENDBRANCH  41  42
ENDBRANCH  40  41
ENDBRANCH  39  40
ENDBRANCH  38  39
ENDBRANCH  36  38
ENDBRANCH   5  34
BRANCH   8  50
ATOM     50  O   UNL     1      10.242  13.004   8.106  1.00  0.00    -0.245 OA
BRANCH  50  51
ATOM     51  S   UNL     1      10.350  13.013   9.729  1.00  0.00     0.397 S 
ATOM     52  O   UNL     1       9.384  13.962  10.236  1.00  0.00    -0.169 OA
ATOM     53  O   UNL     1      11.743  13.064  10.123  1.00  0.00    -0.169 OA
BRANCH  51  54
ATOM     54  O   UNL     1       9.779  11.560  10.112  1.00  0.00    -0.264 OA
ATOM     55  H   UNL     1      10.357  10.892   9.689  1.00  0.00     0.236 HD
ENDBRANCH  51  54
ENDBRANCH  50  51
ENDBRANCH   8  50
TORSDOF 19
ENDMDL
MODEL 41
REMARK VINA RESULT:    -5.573      4.505      7.812
REMARK INTER + INTRA:         -15.565
REMARK INTER:                 -12.296
REMARK INTRA:                  -3.270
REMARK UNBOUND:                -4.291
REMARK SMILES CC[C@@H](C)[C@@H](NC(=O)[C@@H](O)Cc1ccc(O)c(Cl)c1)C(=O)N1[C@H](C(=O)NCCCCN=C(N)N)C[C@H]2CC[C@H](OS(=O)(=O)O)C[C@@H]21
REMARK SMILES IDX 22 1 36 2 46 3 35 4 23 5 45 6 37 7 39 8 38 9 20 10 21 11
REMARK SMILES IDX 5 12 6 13 7 14 8 15 9 17 11 18 12 19 17 20 19 21 15 22 14 23
REMARK SMILES IDX 13 24 18 25 16 26 10 28 3 30 4 31 2 32 1 33 24 34 25 35
REMARK SMILES IDX 26 36 27 38 28 39 29 40 30 41 31 42 32 43 33 44 34 45 40 50
REMARK SMILES IDX 41 51 42 52 43 53 44 54
REMARK H PARENT 6 16 16 27 10 29 26 37 33 46 33 47 34 48 34 49 44 55
ROOT
ATOM      1  N   UNL     1      -5.703  -2.595  -9.560  1.00  0.00    -0.326 N 
ATOM      2  C   UNL     1      -7.331  -1.634  -8.157  1.00  0.00     0.014 C 
ATOM      3  C   UNL     1      -6.189  -2.654  -8.178  1.00  0.00     0.091 C 
ATOM      4  C   UNL     1      -7.927  -1.770  -9.550  1.00  0.00     0.041 C 
ATOM      5  C   UNL     1      -6.640  -1.804 -10.395  1.00  0.00     0.175 C 
ATOM      6  C   UNL     1      -5.215  -2.311  -7.052  1.00  0.00     0.059 C 
ATOM      7  C   UNL     1      -8.219  -1.839  -6.946  1.00  0.00     0.008 C 
ATOM      8  C   UNL     1      -5.891  -1.675  -5.818  1.00  0.00     0.143 C 
ATOM      9  C   UNL     1      -7.368  -2.097  -5.685  1.00  0.00     0.034 C 
ENDROOT
BRANCH   1  10
ATOM     10  C   UNL     1      -4.690  -3.311 -10.175  1.00  0.00     0.246 C 
ATOM     11  O   UNL     1      -4.986  -4.196 -10.985  1.00  0.00    -0.272 OA
BRANCH  10  12
ATOM     12  C   UNL     1      -3.206  -2.959  -9.868  1.00  0.00     0.174 C 
BRANCH  12  13
ATOM     13  N   UNL     1      -2.716  -3.782  -8.763  1.00  0.00    -0.342 N 
ATOM     14  C   UNL     1      -1.754  -4.762  -8.874  1.00  0.00     0.249 C 
ATOM     15  O   UNL     1      -1.176  -5.035  -9.918  1.00  0.00    -0.272 OA
ATOM     16  H   UNL     1      -3.209  -3.778  -7.874  1.00  0.00     0.164 HD
BRANCH  14  17
ATOM     17  C   UNL     1      -1.466  -5.467  -7.531  1.00  0.00     0.207 C 
BRANCH  17  18
ATOM     18  C   UNL     1      -0.991  -4.453  -6.485  1.00  0.00     0.077 C 
BRANCH  18  19
ATOM     19  C   UNL     1      -1.074  -5.013  -5.083  1.00  0.00    -0.043 A 
ATOM     20  C   UNL     1      -2.237  -5.212  -2.963  1.00  0.00     0.083 A 
ATOM     21  C   UNL     1      -2.187  -4.735  -4.274  1.00  0.00     0.028 A 
ATOM     22  C   UNL     1      -1.179  -5.965  -2.453  1.00  0.00     0.134 A 
ATOM     23  C   UNL     1      -0.070  -6.247  -3.244  1.00  0.00     0.048 A 
ATOM     24  C   UNL     1      -0.017  -5.770  -4.555  1.00  0.00     0.008 A 
ATOM     25  Cl  UNL     1      -3.612  -4.861  -1.985  1.00  0.00    -0.080 Cl
BRANCH  22  26
ATOM     26  O   UNL     1      -1.178  -6.445  -1.171  1.00  0.00    -0.506 OA
ATOM     27  H   UNL     1      -0.380  -6.088  -0.739  1.00  0.00     0.293 HD
ENDBRANCH  22  26
ENDBRANCH  18  19
ENDBRANCH  17  18
BRANCH  17  28
ATOM     28  O   UNL     1      -0.470  -6.491  -7.688  1.00  0.00    -0.383 OA
ATOM     29  H   UNL     1      -0.765  -7.043  -8.448  1.00  0.00     0.211 HD
ENDBRANCH  17  28
ENDBRANCH  14  17
ENDBRANCH  12  13
BRANCH  12  30
ATOM     30  C   UNL     1      -2.989  -1.442  -9.618  1.00  0.00     0.018 C 
ATOM     31  C   UNL     1      -2.399  -0.762 -10.864  1.00  0.00     0.010 C 
BRANCH  30  32
ATOM     32  C   UNL     1      -2.112  -1.135  -8.380  1.00  0.00     0.002 C 
ATOM     33  C   UNL     1      -0.626  -0.956  -8.662  1.00  0.00     0.004 C 
ENDBRANCH  30  32
ENDBRANCH  12  30
ENDBRANCH  10  12
ENDBRANCH   1  10
BRANCH   5  34
ATOM     34  C   UNL     1      -6.082  -0.377 -10.646  1.00  0.00     0.242 C 
ATOM     35  O   UNL     1      -5.680  -0.013 -11.751  1.00  0.00    -0.273 OA
ATOM     36  N   UNL     1      -6.021   0.432  -9.533  1.00  0.00    -0.354 N 
ATOM     37  H   UNL     1      -6.257   0.034  -8.623  1.00  0.00     0.163 HD
BRANCH  36  38
ATOM     38  C   UNL     1      -5.734   1.848  -9.623  1.00  0.00     0.116 C 
BRANCH  38  39
ATOM     39  C   UNL     1      -7.034   2.646  -9.547  1.00  0.00     0.023 C 
BRANCH  39  40
ATOM     40  C   UNL     1      -6.933   3.836  -8.599  1.00  0.00     0.026 C 
BRANCH  40  41
ATOM     41  C   UNL     1      -8.011   3.762  -7.519  1.00  0.00     0.146 C 
BRANCH  41  42
ATOM     42  N   UNL     1      -7.770   2.610  -6.661  1.00  0.00    -0.254 NA
ATOM     43  C   UNL     1      -8.327   2.550  -5.509  1.00  0.00     0.185 C 
ATOM     44  N   UNL     1      -9.155   3.420  -4.902  1.00  0.00    -0.370 N 
ATOM     45  N   UNL     1      -8.088   1.481  -4.731  1.00  0.00    -0.370 N 
ATOM     46  H   UNL     1      -9.318   3.366  -3.911  1.00  0.00     0.159 HD
ATOM     47  H   UNL     1      -9.451   4.279  -5.356  1.00  0.00     0.159 HD
ATOM     48  H   UNL     1      -7.480   0.772  -5.118  1.00  0.00     0.159 HD
ATOM     49  H   UNL     1      -8.658   1.248  -3.938  1.00  0.00     0.159 HD
ENDBRANCH  41  42
ENDBRANCH  40  41
ENDBRANCH  39  40
ENDBRANCH  38  39
ENDBRANCH  36  38
ENDBRANCH   5  34
BRANCH   8  50
ATOM     50  O   UNL     1      -5.832  -0.251  -5.906  1.00  0.00    -0.245 OA
BRANCH  50  51
ATOM     51  S   UNL     1      -4.797   0.570  -4.958  1.00  0.00     0.397 S 
ATOM     52  O   UNL     1      -3.456   0.141  -5.284  1.00  0.00    -0.169 OA
ATOM     53  O   UNL     1      -5.283   0.571  -3.594  1.00  0.00    -0.169 OA
BRANCH  51  54
ATOM     54  O   UNL     1      -4.930   2.066  -5.532  1.00  0.00    -0.264 OA
ATOM     55  H   UNL     1      -4.111   2.549  -5.300  1.00  0.00     0.236 HD
ENDBRANCH  51  54
ENDBRANCH  50  51
ENDBRANCH   8  50
TORSDOF 19
ENDMDL
MODEL 42
REMARK VINA RESULT:    -5.554      3.895      8.030
REMARK INTER + INTRA:         -15.526
REMARK INTER:                 -11.750
REMARK INTRA:                  -3.777
REMARK UNBOUND:                -4.291
REMARK SMILES CC[C@@H](C)[C@@H](NC(=O)[C@@H](O)Cc1ccc(O)c(Cl)c1)C(=O)N1[C@H](C(=O)NCCCCN=C(N)N)C[C@H]2CC[C@H](OS(=O)(=O)O)C[C@@H]21
REMARK SMILES IDX 22 1 36 2 46 3 35 4 23 5 45 6 37 7 39 8 38 9 20 10 21 11
REMARK SMILES IDX 5 12 6 13 7 14 8 15 9 17 11 18 12 19 17 20 19 21 15 22 14 23
REMARK SMILES IDX 13 24 18 25 16 26 10 28 3 30 4 31 2 32 1 33 24 34 25 35
REMARK SMILES IDX 26 36 27 38 28 39 29 40 30 41 31 42 32 43 33 44 34 45 40 50
REMARK SMILES IDX 41 51 42 52 43 53 44 54
REMARK H PARENT 6 16 16 27 10 29 26 37 33 46 33 47 34 48 34 49 44 55
ROOT
ATOM      1  N   UNL     1      -1.727   0.238  -9.987  1.00  0.00    -0.326 N 
ATOM      2  C   UNL     1      -0.847  -0.325 -12.097  1.00  0.00     0.014 C 
ATOM      3  C   UNL     1      -1.655   0.747 -11.360  1.00  0.00     0.091 C 
ATOM      4  C   UNL     1      -1.289  -1.609 -11.411  1.00  0.00     0.041 C 
ATOM      5  C   UNL     1      -1.238  -1.162  -9.938  1.00  0.00     0.175 C 
ATOM      6  C   UNL     1      -0.989   2.101 -11.596  1.00  0.00     0.059 C 
ATOM      7  C   UNL     1      -1.009  -0.190 -13.598  1.00  0.00     0.008 C 
ATOM      8  C   UNL     1      -0.293   2.221 -12.969  1.00  0.00     0.143 C 
ATOM      9  C   UNL     1      -0.928   1.291 -14.023  1.00  0.00     0.034 C 
ENDROOT
BRANCH   1  10
ATOM     10  C   UNL     1      -2.351   0.774  -8.874  1.00  0.00     0.246 C 
ATOM     11  O   UNL     1      -1.794   1.686  -8.253  1.00  0.00    -0.272 OA
BRANCH  10  12
ATOM     12  C   UNL     1      -3.755   0.249  -8.453  1.00  0.00     0.174 C 
BRANCH  12  13
ATOM     13  N   UNL     1      -3.677  -1.175  -8.127  1.00  0.00    -0.342 N 
ATOM     14  C   UNL     1      -3.274  -1.686  -6.914  1.00  0.00     0.249 C 
ATOM     15  O   UNL     1      -2.958  -0.995  -5.953  1.00  0.00    -0.272 OA
ATOM     16  H   UNL     1      -3.757  -1.867  -8.868  1.00  0.00     0.164 HD
BRANCH  14  17
ATOM     17  C   UNL     1      -3.282  -3.230  -6.886  1.00  0.00     0.207 C 
BRANCH  17  18
ATOM     18  C   UNL     1      -1.851  -3.774  -6.919  1.00  0.00     0.077 C 
BRANCH  18  19
ATOM     19  C   UNL     1      -1.503  -4.519  -5.650  1.00  0.00    -0.043 A 
ATOM     20  C   UNL     1      -2.042  -5.161  -3.374  1.00  0.00     0.083 A 
ATOM     21  C   UNL     1      -2.388  -4.513  -4.561  1.00  0.00     0.028 A 
ATOM     22  C   UNL     1      -0.814  -5.814  -3.267  1.00  0.00     0.134 A 
ATOM     23  C   UNL     1       0.072  -5.828  -4.339  1.00  0.00     0.048 A 
ATOM     24  C   UNL     1      -0.271  -5.179  -5.527  1.00  0.00     0.008 A 
ATOM     25  Cl  UNL     1      -3.142  -5.142  -2.046  1.00  0.00    -0.080 Cl
BRANCH  22  26
ATOM     26  O   UNL     1      -0.426  -6.453  -2.121  1.00  0.00    -0.506 OA
ATOM     27  H   UNL     1      -1.115  -6.274  -1.454  1.00  0.00     0.293 HD
ENDBRANCH  22  26
ENDBRANCH  18  19
ENDBRANCH  17  18
BRANCH  17  28
ATOM     28  O   UNL     1      -4.021  -3.763  -7.997  1.00  0.00    -0.383 OA
ATOM     29  H   UNL     1      -4.619  -3.042  -8.297  1.00  0.00     0.211 HD
ENDBRANCH  17  28
ENDBRANCH  14  17
ENDBRANCH  12  13
BRANCH  12  30
ATOM     30  C   UNL     1      -4.851   0.555  -9.509  1.00  0.00     0.018 C 
ATOM     31  C   UNL     1      -6.029   1.307  -8.871  1.00  0.00     0.010 C 
BRANCH  30  32
ATOM     32  C   UNL     1      -5.363  -0.700 -10.256  1.00  0.00     0.002 C 
ATOM     33  C   UNL     1      -4.896  -0.835 -11.700  1.00  0.00     0.004 C 
ENDBRANCH  30  32
ENDBRANCH  12  30
ENDBRANCH  10  12
ENDBRANCH   1  10
BRANCH   5  34
ATOM     34  C   UNL     1       0.206  -1.221  -9.373  1.00  0.00     0.242 C 
ATOM     35  O   UNL     1       1.108  -1.841  -9.935  1.00  0.00    -0.273 OA
ATOM     36  N   UNL     1       0.391  -0.575  -8.170  1.00  0.00    -0.354 N 
ATOM     37  H   UNL     1      -0.422  -0.182  -7.694  1.00  0.00     0.163 HD
BRANCH  36  38
ATOM     38  C   UNL     1       1.707  -0.346  -7.610  1.00  0.00     0.116 C 
BRANCH  38  39
ATOM     39  C   UNL     1       2.241   1.005  -8.079  1.00  0.00     0.023 C 
BRANCH  39  40
ATOM     40  C   UNL     1       2.548   1.946  -6.919  1.00  0.00     0.026 C 
BRANCH  40  41
ATOM     41  C   UNL     1       1.900   1.443  -5.628  1.00  0.00     0.146 C 
BRANCH  41  42
ATOM     42  N   UNL     1       0.999   2.460  -5.102  1.00  0.00    -0.254 NA
ATOM     43  C   UNL     1      -0.259   2.226  -5.049  1.00  0.00     0.185 C 
ATOM     44  N   UNL     1      -0.951   1.133  -5.417  1.00  0.00    -0.370 N 
ATOM     45  N   UNL     1      -1.073   3.178  -4.565  1.00  0.00    -0.370 N 
ATOM     46  H   UNL     1      -1.947   1.177  -5.549  1.00  0.00     0.159 HD
ATOM     47  H   UNL     1      -0.489   0.310  -5.793  1.00  0.00     0.159 HD
ATOM     48  H   UNL     1      -0.630   4.032  -4.256  1.00  0.00     0.159 HD
ATOM     49  H   UNL     1      -2.016   2.990  -4.273  1.00  0.00     0.159 HD
ENDBRANCH  41  42
ENDBRANCH  40  41
ENDBRANCH  39  40
ENDBRANCH  38  39
ENDBRANCH  36  38
ENDBRANCH   5  34
BRANCH   8  50
ATOM     50  O   UNL     1       1.091   1.891 -12.849  1.00  0.00    -0.245 OA
BRANCH  50  51
ATOM     51  S   UNL     1       2.160   3.047 -12.442  1.00  0.00     0.397 S 
ATOM     52  O   UNL     1       2.376   2.973 -11.015  1.00  0.00    -0.169 OA
ATOM     53  O   UNL     1       1.801   4.290 -13.093  1.00  0.00    -0.169 OA
BRANCH  51  54
ATOM     54  O   UNL     1       3.514   2.505 -13.119  1.00  0.00    -0.264 OA
ATOM     55  H   UNL     1       3.857   3.210 -13.705  1.00  0.00     0.236 HD
ENDBRANCH  51  54
ENDBRANCH  50  51
ENDBRANCH   8  50
TORSDOF 19
ENDMDL
MODEL 43
REMARK VINA RESULT:    -5.545      3.286      7.226
REMARK INTER + INTRA:         -15.510
REMARK INTER:                 -12.512
REMARK INTRA:                  -2.998
REMARK UNBOUND:                -4.291
REMARK SMILES CC[C@@H](C)[C@@H](NC(=O)[C@@H](O)Cc1ccc(O)c(Cl)c1)C(=O)N1[C@H](C(=O)NCCCCN=C(N)N)C[C@H]2CC[C@H](OS(=O)(=O)O)C[C@@H]21
REMARK SMILES IDX 22 1 36 2 46 3 35 4 23 5 45 6 37 7 39 8 38 9 20 10 21 11
REMARK SMILES IDX 5 12 6 13 7 14 8 15 9 17 11 18 12 19 17 20 19 21 15 22 14 23
REMARK SMILES IDX 13 24 18 25 16 26 10 28 3 30 4 31 2 32 1 33 24 34 25 35
REMARK SMILES IDX 26 36 27 38 28 39 29 40 30 41 31 42 32 43 33 44 34 45 40 50
REMARK SMILES IDX 41 51 42 52 43 53 44 54
REMARK H PARENT 6 16 16 27 10 29 26 37 33 46 33 47 34 48 34 49 44 55
ROOT
ATOM      1  N   UNL     1      -2.747  -0.261  -8.164  1.00  0.00    -0.326 N 
ATOM      2  C   UNL     1      -0.801  -1.575  -8.003  1.00  0.00     0.014 C 
ATOM      3  C   UNL     1      -1.369  -0.313  -8.659  1.00  0.00     0.091 C 
ATOM      4  C   UNL     1      -2.004  -2.505  -7.969  1.00  0.00     0.041 C 
ATOM      5  C   UNL     1      -3.088  -1.530  -7.474  1.00  0.00     0.175 C 
ATOM      6  C   UNL     1      -0.439   0.856  -8.340  1.00  0.00     0.059 C 
ATOM      7  C   UNL     1       0.467  -2.026  -8.702  1.00  0.00     0.008 C 
ATOM      8  C   UNL     1       1.044   0.451  -8.200  1.00  0.00     0.143 C 
ATOM      9  C   UNL     1       1.377  -0.818  -9.010  1.00  0.00     0.034 C 
ENDROOT
BRANCH   1  10
ATOM     10  C   UNL     1      -3.753   0.652  -8.433  1.00  0.00     0.246 C 
ATOM     11  O   UNL     1      -3.859   1.656  -7.721  1.00  0.00    -0.272 OA
BRANCH  10  12
ATOM     12  C   UNL     1      -4.698   0.417  -9.647  1.00  0.00     0.174 C 
BRANCH  12  13
ATOM     13  N   UNL     1      -5.248  -0.938  -9.595  1.00  0.00    -0.342 N 
ATOM     14  C   UNL     1      -6.415  -1.293  -8.957  1.00  0.00     0.249 C 
ATOM     15  O   UNL     1      -7.144  -0.498  -8.378  1.00  0.00    -0.272 OA
ATOM     16  H   UNL     1      -4.677  -1.725  -9.895  1.00  0.00     0.164 HD
BRANCH  14  17
ATOM     17  C   UNL     1      -6.718  -2.802  -9.067  1.00  0.00     0.207 C 
BRANCH  17  18
ATOM     18  C   UNL     1      -6.065  -3.390 -10.322  1.00  0.00     0.077 C 
BRANCH  18  19
ATOM     19  C   UNL     1      -4.917  -4.312  -9.979  1.00  0.00    -0.043 A 
ATOM     20  C   UNL     1      -2.594  -4.964 -10.233  1.00  0.00     0.083 A 
ATOM     21  C   UNL     1      -3.639  -4.083 -10.513  1.00  0.00     0.028 A 
ATOM     22  C   UNL     1      -2.818  -6.078  -9.423  1.00  0.00     0.134 A 
ATOM     23  C   UNL     1      -4.078  -6.317  -8.888  1.00  0.00     0.048 A 
ATOM     24  C   UNL     1      -5.127  -5.438  -9.167  1.00  0.00     0.008 A 
ATOM     25  Cl  UNL     1      -1.032  -4.666 -10.899  1.00  0.00    -0.080 Cl
BRANCH  22  26
ATOM     26  O   UNL     1      -1.827  -6.976  -9.130  1.00  0.00    -0.506 OA
ATOM     27  H   UNL     1      -2.269  -7.802  -8.861  1.00  0.00     0.293 HD
ENDBRANCH  22  26
ENDBRANCH  18  19
ENDBRANCH  17  18
BRANCH  17  28
ATOM     28  O   UNL     1      -8.134  -3.044  -9.110  1.00  0.00    -0.383 OA
ATOM     29  H   UNL     1      -8.418  -2.832 -10.028  1.00  0.00     0.211 HD
ENDBRANCH  17  28
ENDBRANCH  14  17
ENDBRANCH  12  13
BRANCH  12  30
ATOM     30  C   UNL     1      -4.016   0.728 -11.006  1.00  0.00     0.018 C 
ATOM     31  C   UNL     1      -3.332  -0.525 -11.574  1.00  0.00     0.010 C 
BRANCH  30  32
ATOM     32  C   UNL     1      -3.008   1.901 -10.942  1.00  0.00     0.002 C 
ATOM     33  C   UNL     1      -3.623   3.293 -11.021  1.00  0.00     0.004 C 
ENDBRANCH  30  32
ENDBRANCH  12  30
ENDBRANCH  10  12
ENDBRANCH   1  10
BRANCH   5  34
ATOM     34  C   UNL     1      -3.036  -1.350  -5.934  1.00  0.00     0.242 C 
ATOM     35  O   UNL     1      -2.720  -0.284  -5.406  1.00  0.00    -0.273 OA
ATOM     36  N   UNL     1      -3.315  -2.483  -5.202  1.00  0.00    -0.354 N 
ATOM     37  H   UNL     1      -3.451  -3.366  -5.696  1.00  0.00     0.163 HD
BRANCH  36  38
ATOM     38  C   UNL     1      -3.522  -2.446  -3.769  1.00  0.00     0.116 C 
BRANCH  38  39
ATOM     39  C   UNL     1      -3.305  -3.837  -3.178  1.00  0.00     0.023 C 
BRANCH  39  40
ATOM     40  C   UNL     1      -2.301  -3.833  -2.031  1.00  0.00     0.026 C 
BRANCH  40  41
ATOM     41  C   UNL     1      -3.018  -3.735  -0.684  1.00  0.00     0.146 C 
BRANCH  41  42
ATOM     42  N   UNL     1      -3.032  -2.350  -0.232  1.00  0.00    -0.254 NA
ATOM     43  C   UNL     1      -2.137  -1.943   0.588  1.00  0.00     0.185 C 
ATOM     44  N   UNL     1      -1.112  -2.608   1.151  1.00  0.00    -0.370 N 
ATOM     45  N   UNL     1      -2.170  -0.664   0.996  1.00  0.00    -0.370 N 
ATOM     46  H   UNL     1      -0.640  -2.236   1.957  1.00  0.00     0.159 HD
ATOM     47  H   UNL     1      -0.931  -3.585   0.941  1.00  0.00     0.159 HD
ATOM     48  H   UNL     1      -2.908  -0.089   0.612  1.00  0.00     0.159 HD
ATOM     49  H   UNL     1      -1.388  -0.213   1.437  1.00  0.00     0.159 HD
ENDBRANCH  41  42
ENDBRANCH  40  41
ENDBRANCH  39  40
ENDBRANCH  38  39
ENDBRANCH  36  38
ENDBRANCH   5  34
BRANCH   8  50
ATOM     50  O   UNL     1       1.359   0.210  -6.828  1.00  0.00    -0.245 OA
BRANCH  50  51
ATOM     51  S   UNL     1       1.797   1.451  -5.874  1.00  0.00     0.397 S 
ATOM     52  O   UNL     1       2.627   0.928  -4.813  1.00  0.00    -0.169 OA
ATOM     53  O   UNL     1       0.644   2.282  -5.596  1.00  0.00    -0.169 OA
BRANCH  51  54
ATOM     54  O   UNL     1       2.785   2.280  -6.835  1.00  0.00    -0.264 OA
ATOM     55  H   UNL     1       2.633   3.233  -6.669  1.00  0.00     0.236 HD
ENDBRANCH  51  54
ENDBRANCH  50  51
ENDBRANCH   8  50
TORSDOF 19
ENDMDL
MODEL 44
REMARK VINA RESULT:    -5.524      3.706      8.042
REMARK INTER + INTRA:         -15.467
REMARK INTER:                 -11.234
REMARK INTRA:                  -4.233
REMARK UNBOUND:                -4.291
REMARK SMILES CC[C@@H](C)[C@@H](NC(=O)[C@@H](O)Cc1ccc(O)c(Cl)c1)C(=O)N1[C@H](C(=O)NCCCCN=C(N)N)C[C@H]2CC[C@H](OS(=O)(=O)O)C[C@@H]21
REMARK SMILES IDX 22 1 36 2 46 3 35 4 23 5 45 6 37 7 39 8 38 9 20 10 21 11
REMARK SMILES IDX 5 12 6 13 7 14 8 15 9 17 11 18 12 19 17 20 19 21 15 22 14 23
REMARK SMILES IDX 13 24 18 25 16 26 10 28 3 30 4 31 2 32 1 33 24 34 25 35
REMARK SMILES IDX 26 36 27 38 28 39 29 40 30 41 31 42 32 43 33 44 34 45 40 50
REMARK SMILES IDX 41 51 42 52 43 53 44 54
REMARK H PARENT 6 16 16 27 10 29 26 37 33 46 33 47 34 48 34 49 44 55
ROOT
ATOM      1  N   UNL     1      -2.599   0.220  -8.458  1.00  0.00    -0.326 N 
ATOM      2  C   UNL     1      -0.848  -1.338  -8.680  1.00  0.00     0.014 C 
ATOM      3  C   UNL     1      -1.991  -0.670  -9.451  1.00  0.00     0.091 C 
ATOM      4  C   UNL     1      -1.421  -1.467  -7.277  1.00  0.00     0.041 C 
ATOM      5  C   UNL     1      -2.050  -0.071  -7.111  1.00  0.00     0.175 C 
ATOM      6  C   UNL     1      -1.417  -0.051 -10.724  1.00  0.00     0.059 C 
ATOM      7  C   UNL     1      -0.361  -2.580  -9.401  1.00  0.00     0.008 C 
ATOM      8  C   UNL     1      -0.213  -0.825 -11.304  1.00  0.00     0.143 C 
ATOM      9  C   UNL     1      -0.244  -2.318 -10.917  1.00  0.00     0.034 C 
ENDROOT
BRANCH   1  10
ATOM     10  C   UNL     1      -3.688   1.067  -8.575  1.00  0.00     0.246 C 
ATOM     11  O   UNL     1      -3.556   2.260  -8.281  1.00  0.00    -0.272 OA
BRANCH  10  12
ATOM     12  C   UNL     1      -5.038   0.511  -9.112  1.00  0.00     0.174 C 
BRANCH  12  13
ATOM     13  N   UNL     1      -5.089  -0.939  -8.928  1.00  0.00    -0.342 N 
ATOM     14  C   UNL     1      -6.182  -1.640  -8.470  1.00  0.00     0.249 C 
ATOM     15  O   UNL     1      -7.255  -1.122  -8.188  1.00  0.00    -0.272 OA
ATOM     16  H   UNL     1      -4.230  -1.482  -8.971  1.00  0.00     0.164 HD
BRANCH  14  17
ATOM     17  C   UNL     1      -5.916  -3.157  -8.368  1.00  0.00     0.207 C 
BRANCH  17  18
ATOM     18  C   UNL     1      -5.023  -3.623  -9.523  1.00  0.00     0.077 C 
BRANCH  18  19
ATOM     19  C   UNL     1      -3.829  -4.408  -9.028  1.00  0.00    -0.043 A 
ATOM     20  C   UNL     1      -2.270  -4.970  -7.257  1.00  0.00     0.083 A 
ATOM     21  C   UNL     1      -3.402  -4.283  -7.697  1.00  0.00     0.028 A 
ATOM     22  C   UNL     1      -1.558  -5.781  -8.141  1.00  0.00     0.134 A 
ATOM     23  C   UNL     1      -1.970  -5.914  -9.462  1.00  0.00     0.048 A 
ATOM     24  C   UNL     1      -3.101  -5.226  -9.906  1.00  0.00     0.008 A 
ATOM     25  Cl  UNL     1      -1.760  -4.804  -5.617  1.00  0.00    -0.080 Cl
BRANCH  22  26
ATOM     26  O   UNL     1      -0.436  -6.466  -7.758  1.00  0.00    -0.506 OA
ATOM     27  H   UNL     1      -0.691  -7.018  -6.996  1.00  0.00     0.293 HD
ENDBRANCH  22  26
ENDBRANCH  18  19
ENDBRANCH  17  18
BRANCH  17  28
ATOM     28  O   UNL     1      -7.146  -3.900  -8.387  1.00  0.00    -0.383 OA
ATOM     29  H   UNL     1      -7.836  -3.291  -8.039  1.00  0.00     0.211 HD
ENDBRANCH  17  28
ENDBRANCH  14  17
ENDBRANCH  12  13
BRANCH  12  30
ATOM     30  C   UNL     1      -5.319   0.932 -10.580  1.00  0.00     0.018 C 
ATOM     31  C   UNL     1      -6.414   2.009 -10.639  1.00  0.00     0.010 C 
BRANCH  30  32
ATOM     32  C   UNL     1      -5.687  -0.252 -11.506  1.00  0.00     0.002 C 
ATOM     33  C   UNL     1      -4.510  -0.931 -12.194  1.00  0.00     0.004 C 
ENDBRANCH  30  32
ENDBRANCH  12  30
ENDBRANCH  10  12
ENDBRANCH   1  10
BRANCH   5  34
ATOM     34  C   UNL     1      -0.991   0.989  -6.707  1.00  0.00     0.242 C 
ATOM     35  O   UNL     1      -0.676   1.190  -5.534  1.00  0.00    -0.273 OA
ATOM     36  N   UNL     1      -0.472   1.724  -7.749  1.00  0.00    -0.354 N 
ATOM     37  H   UNL     1      -0.860   1.594  -8.684  1.00  0.00     0.163 HD
BRANCH  36  38
ATOM     38  C   UNL     1       0.672   2.597  -7.584  1.00  0.00     0.116 C 
BRANCH  38  39
ATOM     39  C   UNL     1       1.950   1.856  -7.969  1.00  0.00     0.023 C 
BRANCH  39  40
ATOM     40  C   UNL     1       3.157   2.784  -8.061  1.00  0.00     0.026 C 
BRANCH  40  41
ATOM     41  C   UNL     1       3.286   3.366  -9.469  1.00  0.00     0.146 C 
BRANCH  41  42
ATOM     42  N   UNL     1       4.688   3.384  -9.867  1.00  0.00    -0.254 NA
ATOM     43  C   UNL     1       4.993   3.371 -11.110  1.00  0.00     0.185 C 
ATOM     44  N   UNL     1       4.198   3.343 -12.196  1.00  0.00    -0.370 N 
ATOM     45  N   UNL     1       6.290   3.384 -11.457  1.00  0.00    -0.370 N 
ATOM     46  H   UNL     1       4.569   3.090 -13.096  1.00  0.00     0.159 HD
ATOM     47  H   UNL     1       3.186   3.344 -12.116  1.00  0.00     0.159 HD
ATOM     48  H   UNL     1       6.957   3.414 -10.697  1.00  0.00     0.159 HD
ATOM     49  H   UNL     1       6.604   3.612 -12.384  1.00  0.00     0.159 HD
ENDBRANCH  41  42
ENDBRANCH  40  41
ENDBRANCH  39  40
ENDBRANCH  38  39
ENDBRANCH  36  38
ENDBRANCH   5  34
BRANCH   8  50
ATOM     50  O   UNL     1       1.008  -0.259 -10.828  1.00  0.00    -0.245 OA
BRANCH  50  51
ATOM     51  S   UNL     1       1.972   0.551 -11.858  1.00  0.00     0.397 S 
ATOM     52  O   UNL     1       3.343   0.323 -11.460  1.00  0.00    -0.169 OA
ATOM     53  O   UNL     1       1.452   1.888 -12.061  1.00  0.00    -0.169 OA
BRANCH  51  54
ATOM     54  O   UNL     1       1.770  -0.272 -13.225  1.00  0.00    -0.264 OA
ATOM     55  H   UNL     1       0.979  -0.839 -13.117  1.00  0.00     0.236 HD
ENDBRANCH  51  54
ENDBRANCH  50  51
ENDBRANCH   8  50
TORSDOF 19
ENDMDL
MODEL 45
REMARK VINA RESULT:    -5.504      4.321      8.435
REMARK INTER + INTRA:         -15.427
REMARK INTER:                 -12.245
REMARK INTRA:                  -3.181
REMARK UNBOUND:                -4.291
REMARK SMILES CC[C@@H](C)[C@@H](NC(=O)[C@@H](O)Cc1ccc(O)c(Cl)c1)C(=O)N1[C@H](C(=O)NCCCCN=C(N)N)C[C@H]2CC[C@H](OS(=O)(=O)O)C[C@@H]21
REMARK SMILES IDX 22 1 36 2 46 3 35 4 23 5 45 6 37 7 39 8 38 9 20 10 21 11
REMARK SMILES IDX 5 12 6 13 7 14 8 15 9 17 11 18 12 19 17 20 19 21 15 22 14 23
REMARK SMILES IDX 13 24 18 25 16 26 10 28 3 30 4 31 2 32 1 33 24 34 25 35
REMARK SMILES IDX 26 36 27 38 28 39 29 40 30 41 31 42 32 43 33 44 34 45 40 50
REMARK SMILES IDX 41 51 42 52 43 53 44 54
REMARK H PARENT 6 16 16 27 10 29 26 37 33 46 33 47 34 48 34 49 44 55
ROOT
ATOM      1  N   UNL     1      -2.525  -0.953 -11.507  1.00  0.00    -0.326 N 
ATOM      2  C   UNL     1      -0.208  -1.116 -11.890  1.00  0.00     0.014 C 
ATOM      3  C   UNL     1      -1.485  -0.449 -12.409  1.00  0.00     0.091 C 
ATOM      4  C   UNL     1      -0.706  -2.474 -11.420  1.00  0.00     0.041 C 
ATOM      5  C   UNL     1      -1.982  -2.050 -10.669  1.00  0.00     0.175 C 
ATOM      6  C   UNL     1      -1.250   1.059 -12.473  1.00  0.00     0.059 C 
ATOM      7  C   UNL     1       0.898  -1.048 -12.925  1.00  0.00     0.008 C 
ATOM      8  C   UNL     1       0.211   1.448 -12.784  1.00  0.00     0.143 C 
ATOM      9  C   UNL     1       0.946   0.350 -13.579  1.00  0.00     0.034 C 
ENDROOT
BRANCH   1  10
ATOM     10  C   UNL     1      -3.887  -0.709 -11.500  1.00  0.00     0.246 C 
ATOM     11  O   UNL     1      -4.509  -0.737 -12.567  1.00  0.00    -0.272 OA
BRANCH  10  12
ATOM     12  C   UNL     1      -4.612  -0.448 -10.147  1.00  0.00     0.174 C 
BRANCH  12  13
ATOM     13  N   UNL     1      -5.789  -1.310 -10.038  1.00  0.00    -0.342 N 
ATOM     14  C   UNL     1      -5.827  -2.514  -9.371  1.00  0.00     0.249 C 
ATOM     15  O   UNL     1      -4.874  -2.988  -8.765  1.00  0.00    -0.272 OA
ATOM     16  H   UNL     1      -6.604  -1.125 -10.617  1.00  0.00     0.164 HD
BRANCH  14  17
ATOM     17  C   UNL     1      -7.210  -3.195  -9.451  1.00  0.00     0.207 C 
BRANCH  17  18
ATOM     18  C   UNL     1      -8.306  -2.241  -8.964  1.00  0.00     0.077 C 
BRANCH  18  19
ATOM     19  C   UNL     1      -8.055  -1.774  -7.548  1.00  0.00    -0.043 A 
ATOM     20  C   UNL     1      -8.076  -2.197  -5.159  1.00  0.00     0.083 A 
ATOM     21  C   UNL     1      -8.260  -2.646  -6.467  1.00  0.00     0.028 A 
ATOM     22  C   UNL     1      -7.689  -0.878  -4.922  1.00  0.00     0.134 A 
ATOM     23  C   UNL     1      -7.483  -0.003  -5.983  1.00  0.00     0.048 A 
ATOM     24  C   UNL     1      -7.668  -0.449  -7.293  1.00  0.00     0.008 A 
ATOM     25  Cl  UNL     1      -8.333  -3.284  -3.845  1.00  0.00    -0.080 Cl
BRANCH  22  26
ATOM     26  O   UNL     1      -7.506  -0.389  -3.657  1.00  0.00    -0.506 OA
ATOM     27  H   UNL     1      -7.122  -1.113  -3.129  1.00  0.00     0.293 HD
ENDBRANCH  22  26
ENDBRANCH  18  19
ENDBRANCH  17  18
BRANCH  17  28
ATOM     28  O   UNL     1      -7.240  -4.397  -8.665  1.00  0.00    -0.383 OA
ATOM     29  H   UNL     1      -7.352  -4.108  -7.730  1.00  0.00     0.211 HD
ENDBRANCH  17  28
ENDBRANCH  14  17
ENDBRANCH  12  13
BRANCH  12  30
ATOM     30  C   UNL     1      -4.954   1.051  -9.930  1.00  0.00     0.018 C 
ATOM     31  C   UNL     1      -6.323   1.394 -10.537  1.00  0.00     0.010 C 
BRANCH  30  32
ATOM     32  C   UNL     1      -3.874   2.019 -10.471  1.00  0.00     0.002 C 
ATOM     33  C   UNL     1      -4.391   3.370 -10.949  1.00  0.00     0.004 C 
ENDBRANCH  30  32
ENDBRANCH  12  30
ENDBRANCH  10  12
ENDBRANCH   1  10
BRANCH   5  34
ATOM     34  C   UNL     1      -1.661  -1.543  -9.238  1.00  0.00     0.242 C 
ATOM     35  O   UNL     1      -1.187  -0.426  -9.026  1.00  0.00    -0.273 OA
ATOM     36  N   UNL     1      -1.894  -2.450  -8.228  1.00  0.00    -0.354 N 
ATOM     37  H   UNL     1      -2.173  -3.400  -8.476  1.00  0.00     0.163 HD
BRANCH  36  38
ATOM     38  C   UNL     1      -1.856  -2.077  -6.829  1.00  0.00     0.116 C 
BRANCH  38  39
ATOM     39  C   UNL     1      -2.290  -3.259  -5.966  1.00  0.00     0.023 C 
BRANCH  39  40
ATOM     40  C   UNL     1      -1.359  -4.458  -6.110  1.00  0.00     0.026 C 
BRANCH  40  41
ATOM     41  C   UNL     1      -2.108  -5.660  -6.687  1.00  0.00     0.146 C 
BRANCH  41  42
ATOM     42  N   UNL     1      -2.555  -5.358  -8.041  1.00  0.00    -0.254 NA
ATOM     43  C   UNL     1      -2.105  -6.045  -9.023  1.00  0.00     0.185 C 
ATOM     44  N   UNL     1      -1.233  -7.070  -9.035  1.00  0.00    -0.370 N 
ATOM     45  N   UNL     1      -2.525  -5.749 -10.264  1.00  0.00    -0.370 N 
ATOM     46  H   UNL     1      -0.786  -7.353  -9.890  1.00  0.00     0.159 HD
ATOM     47  H   UNL     1      -0.826  -7.434  -8.179  1.00  0.00     0.159 HD
ATOM     48  H   UNL     1      -3.192  -4.993 -10.343  1.00  0.00     0.159 HD
ATOM     49  H   UNL     1      -2.411  -6.375 -11.041  1.00  0.00     0.159 HD
ENDBRANCH  41  42
ENDBRANCH  40  41
ENDBRANCH  39  40
ENDBRANCH  38  39
ENDBRANCH  36  38
ENDBRANCH   5  34
BRANCH   8  50
ATOM     50  O   UNL     1       0.925   1.685 -11.570  1.00  0.00    -0.245 OA
BRANCH  50  51
ATOM     51  S   UNL     1       2.295   2.561 -11.602  1.00  0.00     0.397 S 
ATOM     52  O   UNL     1       2.190   3.514 -12.684  1.00  0.00    -0.169 OA
ATOM     53  O   UNL     1       3.438   1.682 -11.473  1.00  0.00    -0.169 OA
BRANCH  51  54
ATOM     54  O   UNL     1       2.174   3.420 -10.248  1.00  0.00    -0.264 OA
ATOM     55  H   UNL     1       1.276   3.281  -9.885  1.00  0.00     0.236 HD
ENDBRANCH  51  54
ENDBRANCH  50  51
ENDBRANCH   8  50
TORSDOF 19
ENDMDL
MODEL 46
REMARK VINA RESULT:    -5.492     10.279     14.623
REMARK INTER + INTRA:         -15.401
REMARK INTER:                 -12.549
REMARK INTRA:                  -2.852
REMARK UNBOUND:                -4.291
REMARK SMILES CC[C@@H](C)[C@@H](NC(=O)[C@@H](O)Cc1ccc(O)c(Cl)c1)C(=O)N1[C@H](C(=O)NCCCCN=C(N)N)C[C@H]2CC[C@H](OS(=O)(=O)O)C[C@@H]21
REMARK SMILES IDX 22 1 36 2 46 3 35 4 23 5 45 6 37 7 39 8 38 9 20 10 21 11
REMARK SMILES IDX 5 12 6 13 7 14 8 15 9 17 11 18 12 19 17 20 19 21 15 22 14 23
REMARK SMILES IDX 13 24 18 25 16 26 10 28 3 30 4 31 2 32 1 33 24 34 25 35
REMARK SMILES IDX 26 36 27 38 28 39 29 40 30 41 31 42 32 43 33 44 34 45 40 50
REMARK SMILES IDX 41 51 42 52 43 53 44 54
REMARK H PARENT 6 16 16 27 10 29 26 37 33 46 33 47 34 48 34 49 44 55
ROOT
ATOM      1  N   UNL     1      -6.483  -5.520   4.350  1.00  0.00    -0.326 N 
ATOM      2  C   UNL     1      -5.303  -3.622   5.092  1.00  0.00     0.014 C 
ATOM      3  C   UNL     1      -6.604  -4.060   4.414  1.00  0.00     0.091 C 
ATOM      4  C   UNL     1      -4.294  -4.630   4.564  1.00  0.00     0.041 C 
ATOM      5  C   UNL     1      -5.105  -5.931   4.713  1.00  0.00     0.175 C 
ATOM      6  C   UNL     1      -7.778  -3.464   5.189  1.00  0.00     0.059 C 
ATOM      7  C   UNL     1      -5.054  -2.142   4.883  1.00  0.00     0.008 C 
ATOM      8  C   UNL     1      -7.465  -2.098   5.837  1.00  0.00     0.143 C 
ATOM      9  C   UNL     1      -6.357  -1.338   5.080  1.00  0.00     0.034 C 
ENDROOT
BRANCH   1  10
ATOM     10  C   UNL     1      -7.351  -6.460   3.822  1.00  0.00     0.246 C 
ATOM     11  O   UNL     1      -7.960  -7.214   4.588  1.00  0.00    -0.272 OA
BRANCH  10  12
ATOM     12  C   UNL     1      -7.573  -6.519   2.283  1.00  0.00     0.174 C 
BRANCH  12  13
ATOM     13  N   UNL     1      -6.587  -5.680   1.604  1.00  0.00    -0.342 N 
ATOM     14  C   UNL     1      -5.637  -6.136   0.717  1.00  0.00     0.249 C 
ATOM     15  O   UNL     1      -5.532  -7.307   0.374  1.00  0.00    -0.272 OA
ATOM     16  H   UNL     1      -6.451  -4.718   1.905  1.00  0.00     0.164 HD
BRANCH  14  17
ATOM     17  C   UNL     1      -4.730  -5.007   0.183  1.00  0.00     0.207 C 
BRANCH  17  18
ATOM     18  C   UNL     1      -3.558  -5.593  -0.611  1.00  0.00     0.077 C 
BRANCH  18  19
ATOM     19  C   UNL     1      -3.318  -4.837  -1.899  1.00  0.00    -0.043 A 
ATOM     20  C   UNL     1      -2.476  -4.773  -4.173  1.00  0.00     0.083 A 
ATOM     21  C   UNL     1      -2.742  -5.485  -3.003  1.00  0.00     0.028 A 
ATOM     22  C   UNL     1      -2.782  -3.413  -4.247  1.00  0.00     0.134 A 
ATOM     23  C   UNL     1      -3.353  -2.760  -3.162  1.00  0.00     0.048 A 
ATOM     24  C   UNL     1      -3.618  -3.469  -1.988  1.00  0.00     0.008 A 
ATOM     25  Cl  UNL     1      -1.767  -5.586  -5.519  1.00  0.00    -0.080 Cl
BRANCH  22  26
ATOM     26  O   UNL     1      -2.530  -2.671  -5.369  1.00  0.00    -0.506 OA
ATOM     27  H   UNL     1      -1.638  -2.293  -5.261  1.00  0.00     0.293 HD
ENDBRANCH  22  26
ENDBRANCH  18  19
ENDBRANCH  17  18
BRANCH  17  28
ATOM     28  O   UNL     1      -4.223  -4.199   1.257  1.00  0.00    -0.383 OA
ATOM     29  H   UNL     1      -4.074  -4.813   2.012  1.00  0.00     0.211 HD
ENDBRANCH  17  28
ENDBRANCH  14  17
ENDBRANCH  12  13
BRANCH  12  30
ATOM     30  C   UNL     1      -9.030  -6.171   1.873  1.00  0.00     0.018 C 
ATOM     31  C   UNL     1      -9.252  -6.428   0.374  1.00  0.00     0.010 C 
BRANCH  30  32
ATOM     32  C   UNL     1      -9.447  -4.724   2.233  1.00  0.00     0.002 C 
ATOM     33  C   UNL     1      -9.303  -3.706   1.108  1.00  0.00     0.004 C 
ENDBRANCH  30  32
ENDBRANCH  12  30
ENDBRANCH  10  12
ENDBRANCH   1  10
BRANCH   5  34
ATOM     34  C   UNL     1      -5.057  -6.471   6.168  1.00  0.00     0.242 C 
ATOM     35  O   UNL     1      -4.170  -7.230   6.559  1.00  0.00    -0.273 OA
ATOM     36  N   UNL     1      -6.105  -6.083   6.971  1.00  0.00    -0.354 N 
ATOM     37  H   UNL     1      -6.872  -5.551   6.557  1.00  0.00     0.163 HD
BRANCH  36  38
ATOM     38  C   UNL     1      -6.110  -6.312   8.401  1.00  0.00     0.116 C 
BRANCH  38  39
ATOM     39  C   UNL     1      -7.468  -5.928   8.984  1.00  0.00     0.023 C 
BRANCH  39  40
ATOM     40  C   UNL     1      -8.475  -7.072   8.918  1.00  0.00     0.026 C 
BRANCH  40  41
ATOM     41  C   UNL     1      -7.760  -8.423   8.916  1.00  0.00     0.146 C 
BRANCH  41  42
ATOM     42  N   UNL     1      -8.228  -9.226   7.793  1.00  0.00    -0.254 NA
ATOM     43  C   UNL     1      -7.378  -9.774   7.010  1.00  0.00     0.185 C 
ATOM     44  N   UNL     1      -6.033  -9.745   7.035  1.00  0.00    -0.370 N 
ATOM     45  N   UNL     1      -7.830 -10.506   5.978  1.00  0.00    -0.370 N 
ATOM     46  H   UNL     1      -5.499 -10.012   6.225  1.00  0.00     0.159 HD
ATOM     47  H   UNL     1      -5.524  -9.246   7.758  1.00  0.00     0.159 HD
ATOM     48  H   UNL     1      -8.834 -10.587   5.891  1.00  0.00     0.159 HD
ATOM     49  H   UNL     1      -7.248 -11.150   5.472  1.00  0.00     0.159 HD
ENDBRANCH  41  42
ENDBRANCH  40  41
ENDBRANCH  39  40
ENDBRANCH  38  39
ENDBRANCH  36  38
ENDBRANCH   5  34
BRANCH   8  50
ATOM     50  O   UNL     1      -7.045  -2.282   7.190  1.00  0.00    -0.245 OA
BRANCH  50  51
ATOM     51  S   UNL     1      -7.992  -1.756   8.403  1.00  0.00     0.397 S 
ATOM     52  O   UNL     1      -7.274  -1.944   9.643  1.00  0.00    -0.169 OA
ATOM     53  O   UNL     1      -9.338  -2.258   8.221  1.00  0.00    -0.169 OA
BRANCH  51  54
ATOM     54  O   UNL     1      -8.016  -0.169   8.146  1.00  0.00    -0.264 OA
ATOM     55  H   UNL     1      -7.173   0.200   8.480  1.00  0.00     0.236 HD
ENDBRANCH  51  54
ENDBRANCH  50  51
ENDBRANCH   8  50
TORSDOF 19
ENDMDL
MODEL 47
REMARK VINA RESULT:    -5.486      4.319      8.347
REMARK INTER + INTRA:         -15.391
REMARK INTER:                 -11.444
REMARK INTRA:                  -3.947
REMARK UNBOUND:                -4.291
REMARK SMILES CC[C@@H](C)[C@@H](NC(=O)[C@@H](O)Cc1ccc(O)c(Cl)c1)C(=O)N1[C@H](C(=O)NCCCCN=C(N)N)C[C@H]2CC[C@H](OS(=O)(=O)O)C[C@@H]21
REMARK SMILES IDX 22 1 36 2 46 3 35 4 23 5 45 6 37 7 39 8 38 9 20 10 21 11
REMARK SMILES IDX 5 12 6 13 7 14 8 15 9 17 11 18 12 19 17 20 19 21 15 22 14 23
REMARK SMILES IDX 13 24 18 25 16 26 10 28 3 30 4 31 2 32 1 33 24 34 25 35
REMARK SMILES IDX 26 36 27 38 28 39 29 40 30 41 31 42 32 43 33 44 34 45 40 50
REMARK SMILES IDX 41 51 42 52 43 53 44 54
REMARK H PARENT 6 16 16 27 10 29 26 37 33 46 33 47 34 48 34 49 44 55
ROOT
ATOM      1  N   UNL     1      -4.779   0.170 -10.280  1.00  0.00    -0.326 N 
ATOM      2  C   UNL     1      -4.818   2.516 -10.477  1.00  0.00     0.014 C 
ATOM      3  C   UNL     1      -5.724   1.282 -10.420  1.00  0.00     0.091 C 
ATOM      4  C   UNL     1      -3.595   2.000 -11.218  1.00  0.00     0.041 C 
ATOM      5  C   UNL     1      -3.393   0.651 -10.503  1.00  0.00     0.175 C 
ATOM      6  C   UNL     1      -6.761   1.495  -9.319  1.00  0.00     0.059 C 
ATOM      7  C   UNL     1      -5.569   3.714 -11.026  1.00  0.00     0.008 C 
ATOM      8  C   UNL     1      -7.165   2.972  -9.123  1.00  0.00     0.143 C 
ATOM      9  C   UNL     1      -6.982   3.799 -10.412  1.00  0.00     0.034 C 
ENDROOT
BRANCH   1  10
ATOM     10  C   UNL     1      -5.016  -1.191 -10.197  1.00  0.00     0.246 C 
ATOM     11  O   UNL     1      -4.876  -1.888 -11.208  1.00  0.00    -0.272 OA
BRANCH  10  12
ATOM     12  C   UNL     1      -5.410  -1.819  -8.829  1.00  0.00     0.174 C 
BRANCH  12  13
ATOM     13  N   UNL     1      -4.445  -2.853  -8.459  1.00  0.00    -0.342 N 
ATOM     14  C   UNL     1      -3.816  -2.946  -7.237  1.00  0.00     0.249 C 
ATOM     15  O   UNL     1      -4.019  -2.178  -6.306  1.00  0.00    -0.272 OA
ATOM     16  H   UNL     1      -4.060  -3.464  -9.175  1.00  0.00     0.164 HD
BRANCH  14  17
ATOM     17  C   UNL     1      -2.838  -4.138  -7.160  1.00  0.00     0.207 C 
BRANCH  17  18
ATOM     18  C   UNL     1      -1.582  -3.750  -6.373  1.00  0.00     0.077 C 
BRANCH  18  19
ATOM     19  C   UNL     1      -1.406  -4.605  -5.138  1.00  0.00    -0.043 A 
ATOM     20  C   UNL     1      -2.193  -5.354  -2.970  1.00  0.00     0.083 A 
ATOM     21  C   UNL     1      -2.382  -4.602  -4.130  1.00  0.00     0.028 A 
ATOM     22  C   UNL     1      -1.032  -6.110  -2.809  1.00  0.00     0.134 A 
ATOM     23  C   UNL     1      -0.057  -6.122  -3.799  1.00  0.00     0.048 A 
ATOM     24  C   UNL     1      -0.242  -5.369  -4.961  1.00  0.00     0.008 A 
ATOM     25  Cl  UNL     1      -3.404  -5.338  -1.742  1.00  0.00    -0.080 Cl
BRANCH  22  26
ATOM     26  O   UNL     1      -0.797  -6.854  -1.684  1.00  0.00    -0.506 OA
ATOM     27  H   UNL     1       0.170  -6.890  -1.569  1.00  0.00     0.293 HD
ENDBRANCH  22  26
ENDBRANCH  18  19
ENDBRANCH  17  18
BRANCH  17  28
ATOM     28  O   UNL     1      -2.460  -4.583  -8.472  1.00  0.00    -0.383 OA
ATOM     29  H   UNL     1      -2.117  -3.788  -8.941  1.00  0.00     0.211 HD
ENDBRANCH  17  28
ENDBRANCH  14  17
ENDBRANCH  12  13
BRANCH  12  30
ATOM     30  C   UNL     1      -6.873  -2.339  -8.807  1.00  0.00     0.018 C 
ATOM     31  C   UNL     1      -7.588  -2.014 -10.128  1.00  0.00     0.010 C 
BRANCH  30  32
ATOM     32  C   UNL     1      -7.701  -1.813  -7.610  1.00  0.00     0.002 C 
ATOM     33  C   UNL     1      -7.716  -2.714  -6.382  1.00  0.00     0.004 C 
ENDBRANCH  30  32
ENDBRANCH  12  30
ENDBRANCH  10  12
ENDBRANCH   1  10
BRANCH   5  34
ATOM     34  C   UNL     1      -2.647   0.825  -9.154  1.00  0.00     0.242 C 
ATOM     35  O   UNL     1      -3.159   0.527  -8.075  1.00  0.00    -0.273 OA
ATOM     36  N   UNL     1      -1.392   1.386  -9.246  1.00  0.00    -0.354 N 
ATOM     37  H   UNL     1      -1.070   1.722 -10.154  1.00  0.00     0.163 HD
BRANCH  36  38
ATOM     38  C   UNL     1      -0.477   1.422  -8.124  1.00  0.00     0.116 C 
BRANCH  38  39
ATOM     39  C   UNL     1       0.895   0.913  -8.558  1.00  0.00     0.023 C 
BRANCH  39  40
ATOM     40  C   UNL     1       1.072   0.933 -10.072  1.00  0.00     0.026 C 
BRANCH  40  41
ATOM     41  C   UNL     1       1.221  -0.486 -10.620  1.00  0.00     0.146 C 
BRANCH  41  42
ATOM     42  N   UNL     1      -0.090  -1.020 -10.966  1.00  0.00    -0.254 NA
ATOM     43  C   UNL     1      -0.543  -2.040 -10.340  1.00  0.00     0.185 C 
ATOM     44  N   UNL     1       0.008  -2.762  -9.347  1.00  0.00    -0.370 N 
ATOM     45  N   UNL     1      -1.752  -2.520 -10.677  1.00  0.00    -0.370 N 
ATOM     46  H   UNL     1      -0.346  -3.675  -9.119  1.00  0.00     0.159 HD
ATOM     47  H   UNL     1       0.917  -2.528  -8.960  1.00  0.00     0.159 HD
ATOM     48  H   UNL     1      -2.241  -2.028 -11.412  1.00  0.00     0.159 HD
ATOM     49  H   UNL     1      -2.270  -3.150 -10.090  1.00  0.00     0.159 HD
ENDBRANCH  41  42
ENDBRANCH  40  41
ENDBRANCH  39  40
ENDBRANCH  38  39
ENDBRANCH  36  38
ENDBRANCH   5  34
BRANCH   8  50
ATOM     50  O   UNL     1      -6.377   3.563  -8.089  1.00  0.00    -0.245 OA
BRANCH  50  51
ATOM     51  S   UNL     1      -7.112   4.327  -6.856  1.00  0.00     0.397 S 
ATOM     52  O   UNL     1      -8.411   3.722  -6.667  1.00  0.00    -0.169 OA
ATOM     53  O   UNL     1      -6.956   5.758  -7.009  1.00  0.00    -0.169 OA
BRANCH  51  54
ATOM     54  O   UNL     1      -6.226   3.863  -5.597  1.00  0.00    -0.264 OA
ATOM     55  H   UNL     1      -6.744   3.202  -5.094  1.00  0.00     0.236 HD
ENDBRANCH  51  54
ENDBRANCH  50  51
ENDBRANCH   8  50
TORSDOF 19
ENDMDL
MODEL 48
REMARK VINA RESULT:    -5.475     17.350     20.745
REMARK INTER + INTRA:         -15.367
REMARK INTER:                 -12.610
REMARK INTRA:                  -2.757
REMARK UNBOUND:                -4.291
REMARK SMILES CC[C@@H](C)[C@@H](NC(=O)[C@@H](O)Cc1ccc(O)c(Cl)c1)C(=O)N1[C@H](C(=O)NCCCCN=C(N)N)C[C@H]2CC[C@H](OS(=O)(=O)O)C[C@@H]21
REMARK SMILES IDX 22 1 36 2 46 3 35 4 23 5 45 6 37 7 39 8 38 9 20 10 21 11
REMARK SMILES IDX 5 12 6 13 7 14 8 15 9 17 11 18 12 19 17 20 19 21 15 22 14 23
REMARK SMILES IDX 13 24 18 25 16 26 10 28 3 30 4 31 2 32 1 33 24 34 25 35
REMARK SMILES IDX 26 36 27 38 28 39 29 40 30 41 31 42 32 43 33 44 34 45 40 50
REMARK SMILES IDX 41 51 42 52 43 53 44 54
REMARK H PARENT 6 16 16 27 10 29 26 37 33 46 33 47 34 48 34 49 44 55
ROOT
ATOM      1  N   UNL     1      10.180   9.279   1.963  1.00  0.00    -0.326 N 
ATOM      2  C   UNL     1       9.472  10.474   0.063  1.00  0.00     0.014 C 
ATOM      3  C   UNL     1      10.140   9.168   0.502  1.00  0.00     0.091 C 
ATOM      4  C   UNL     1       9.986  11.474   1.087  1.00  0.00     0.041 C 
ATOM      5  C   UNL     1       9.813  10.655   2.379  1.00  0.00     0.175 C 
ATOM      6  C   UNL     1       9.371   8.001  -0.115  1.00  0.00     0.059 C 
ATOM      7  C   UNL     1       9.706  10.733  -1.412  1.00  0.00     0.008 C 
ATOM      8  C   UNL     1       8.747   8.326  -1.490  1.00  0.00     0.143 C 
ATOM      9  C   UNL     1       9.519   9.437  -2.229  1.00  0.00     0.034 C 
ENDROOT
BRANCH   1  10
ATOM     10  C   UNL     1      10.690   8.403   2.906  1.00  0.00     0.246 C 
ATOM     11  O   UNL     1       9.909   7.778   3.632  1.00  0.00    -0.272 OA
BRANCH  10  12
ATOM     12  C   UNL     1      12.229   8.191   3.002  1.00  0.00     0.174 C 
BRANCH  12  13
ATOM     13  N   UNL     1      12.889   9.461   3.301  1.00  0.00    -0.342 N 
ATOM     14  C   UNL     1      13.117   9.955   4.566  1.00  0.00     0.249 C 
ATOM     15  O   UNL     1      12.812   9.363   5.594  1.00  0.00    -0.272 OA
ATOM     16  H   UNL     1      13.056  10.130   2.554  1.00  0.00     0.164 HD
BRANCH  14  17
ATOM     17  C   UNL     1      13.819  11.329   4.552  1.00  0.00     0.207 C 
BRANCH  17  18
ATOM     18  C   UNL     1      13.024  12.346   5.377  1.00  0.00     0.077 C 
BRANCH  18  19
ATOM     19  C   UNL     1      13.892  13.492   5.845  1.00  0.00    -0.043 A 
ATOM     20  C   UNL     1      15.129  15.524   5.367  1.00  0.00     0.083 A 
ATOM     21  C   UNL     1      14.287  14.494   4.944  1.00  0.00     0.028 A 
ATOM     22  C   UNL     1      15.581  15.559   6.687  1.00  0.00     0.134 A 
ATOM     23  C   UNL     1      15.197  14.573   7.589  1.00  0.00     0.048 A 
ATOM     24  C   UNL     1      14.357  13.540   7.168  1.00  0.00     0.008 A 
ATOM     25  Cl  UNL     1      15.604  16.746   4.246  1.00  0.00    -0.080 Cl
BRANCH  22  26
ATOM     26  O   UNL     1      16.416  16.542   7.144  1.00  0.00    -0.506 OA
ATOM     27  H   UNL     1      16.881  16.177   7.920  1.00  0.00     0.293 HD
ENDBRANCH  22  26
ENDBRANCH  18  19
ENDBRANCH  17  18
BRANCH  17  28
ATOM     28  O   UNL     1      13.971  11.819   3.210  1.00  0.00    -0.383 OA
ATOM     29  H   UNL     1      13.104  12.217   2.966  1.00  0.00     0.211 HD
ENDBRANCH  17  28
ENDBRANCH  14  17
ENDBRANCH  12  13
BRANCH  12  30
ATOM     30  C   UNL     1      12.819   7.498   1.744  1.00  0.00     0.018 C 
ATOM     31  C   UNL     1      13.749   6.342   2.143  1.00  0.00     0.010 C 
BRANCH  30  32
ATOM     32  C   UNL     1      13.556   8.468   0.789  1.00  0.00     0.002 C 
ATOM     33  C   UNL     1      14.575   7.819  -0.139  1.00  0.00     0.004 C 
ENDBRANCH  30  32
ENDBRANCH  12  30
ENDBRANCH  10  12
ENDBRANCH   1  10
BRANCH   5  34
ATOM     34  C   UNL     1       8.350  10.703   2.895  1.00  0.00     0.242 C 
ATOM     35  O   UNL     1       7.546   9.796   2.678  1.00  0.00    -0.273 OA
ATOM     36  N   UNL     1       8.003  11.855   3.564  1.00  0.00    -0.354 N 
ATOM     37  H   UNL     1       8.676  12.621   3.607  1.00  0.00     0.163 HD
BRANCH  36  38
ATOM     38  C   UNL     1       6.758  11.980   4.294  1.00  0.00     0.116 C 
BRANCH  38  39
ATOM     39  C   UNL     1       5.672  12.536   3.376  1.00  0.00     0.023 C 
BRANCH  39  40
ATOM     40  C   UNL     1       4.287  12.482   4.013  1.00  0.00     0.026 C 
BRANCH  40  41
ATOM     41  C   UNL     1       3.561  11.195   3.622  1.00  0.00     0.146 C 
BRANCH  41  42
ATOM     42  N   UNL     1       3.745  10.190   4.660  1.00  0.00    -0.254 NA
ATOM     43  C   UNL     1       4.279   9.065   4.365  1.00  0.00     0.185 C 
ATOM     44  N   UNL     1       4.736   8.607   3.185  1.00  0.00    -0.370 N 
ATOM     45  N   UNL     1       4.436   8.150   5.336  1.00  0.00    -0.370 N 
ATOM     46  H   UNL     1       4.903   7.625   3.046  1.00  0.00     0.159 HD
ATOM     47  H   UNL     1       4.706   9.176   2.345  1.00  0.00     0.159 HD
ATOM     48  H   UNL     1       4.126   8.419   6.260  1.00  0.00     0.159 HD
ATOM     49  H   UNL     1       5.047   7.358   5.244  1.00  0.00     0.159 HD
ENDBRANCH  41  42
ENDBRANCH  40  41
ENDBRANCH  39  40
ENDBRANCH  38  39
ENDBRANCH  36  38
ENDBRANCH   5  34
BRANCH   8  50
ATOM     50  O   UNL     1       7.393   8.748  -1.325  1.00  0.00    -0.245 OA
BRANCH  50  51
ATOM     51  S   UNL     1       6.254   7.657  -0.926  1.00  0.00     0.397 S 
ATOM     52  O   UNL     1       6.872   6.350  -0.918  1.00  0.00    -0.169 OA
ATOM     53  O   UNL     1       5.044   7.921  -1.676  1.00  0.00    -0.169 OA
BRANCH  51  54
ATOM     54  O   UNL     1       5.971   8.017   0.616  1.00  0.00    -0.264 OA
ATOM     55  H   UNL     1       6.834   8.180   1.048  1.00  0.00     0.236 HD
ENDBRANCH  51  54
ENDBRANCH  50  51
ENDBRANCH   8  50
TORSDOF 19
ENDMDL
MODEL 49
REMARK VINA RESULT:    -5.433     16.369     19.810
REMARK INTER + INTRA:         -15.282
REMARK INTER:                 -11.264
REMARK INTRA:                  -4.018
REMARK UNBOUND:                -4.291
REMARK SMILES CC[C@@H](C)[C@@H](NC(=O)[C@@H](O)Cc1ccc(O)c(Cl)c1)C(=O)N1[C@H](C(=O)NCCCCN=C(N)N)C[C@H]2CC[C@H](OS(=O)(=O)O)C[C@@H]21
REMARK SMILES IDX 22 1 36 2 46 3 35 4 23 5 45 6 37 7 39 8 38 9 20 10 21 11
REMARK SMILES IDX 5 12 6 13 7 14 8 15 9 17 11 18 12 19 17 20 19 21 15 22 14 23
REMARK SMILES IDX 13 24 18 25 16 26 10 28 3 30 4 31 2 32 1 33 24 34 25 35
REMARK SMILES IDX 26 36 27 38 28 39 29 40 30 41 31 42 32 43 33 44 34 45 40 50
REMARK SMILES IDX 41 51 42 52 43 53 44 54
REMARK H PARENT 6 16 16 27 10 29 26 37 33 46 33 47 34 48 34 49 44 55
ROOT
ATOM      1  N   UNL     1      10.049   8.967   1.879  1.00  0.00    -0.326 N 
ATOM      2  C   UNL     1       9.159   9.903  -0.090  1.00  0.00     0.014 C 
ATOM      3  C   UNL     1       9.834   8.645   0.465  1.00  0.00     0.091 C 
ATOM      4  C   UNL     1       9.822  11.017   0.707  1.00  0.00     0.041 C 
ATOM      5  C   UNL     1       9.777  10.405   2.119  1.00  0.00     0.175 C 
ATOM      6  C   UNL     1       8.962   7.438   0.121  1.00  0.00     0.059 C 
ATOM      7  C   UNL     1       9.226   9.931  -1.604  1.00  0.00     0.008 C 
ATOM      8  C   UNL     1       8.190   7.588  -1.208  1.00  0.00     0.143 C 
ATOM      9  C   UNL     1       8.904   8.540  -2.189  1.00  0.00     0.034 C 
ENDROOT
BRANCH   1  10
ATOM     10  C   UNL     1      10.640   8.215   2.880  1.00  0.00     0.246 C 
ATOM     11  O   UNL     1       9.921   7.633   3.699  1.00  0.00    -0.272 OA
BRANCH  10  12
ATOM     12  C   UNL     1      12.190   8.083   2.927  1.00  0.00     0.174 C 
BRANCH  12  13
ATOM     13  N   UNL     1      12.795   9.392   3.176  1.00  0.00    -0.342 N 
ATOM     14  C   UNL     1      13.038   9.925   4.422  1.00  0.00     0.249 C 
ATOM     15  O   UNL     1      12.797   9.343   5.472  1.00  0.00    -0.272 OA
ATOM     16  H   UNL     1      12.903  10.051   2.409  1.00  0.00     0.164 HD
BRANCH  14  17
ATOM     17  C   UNL     1      13.668  11.333   4.354  1.00  0.00     0.207 C 
BRANCH  17  18
ATOM     18  C   UNL     1      13.486  11.935   2.957  1.00  0.00     0.077 C 
BRANCH  18  19
ATOM     19  C   UNL     1      12.335  12.915   2.914  1.00  0.00    -0.043 A 
ATOM     20  C   UNL     1      11.053  14.601   1.732  1.00  0.00     0.083 A 
ATOM     21  C   UNL     1      12.085  13.662   1.752  1.00  0.00     0.028 A 
ATOM     22  C   UNL     1      10.269  14.801   2.868  1.00  0.00     0.134 A 
ATOM     23  C   UNL     1      10.506  14.068   4.025  1.00  0.00     0.048 A 
ATOM     24  C   UNL     1      11.539  13.129   4.049  1.00  0.00     0.008 A 
ATOM     25  Cl  UNL     1      10.761  15.509   0.295  1.00  0.00    -0.080 Cl
BRANCH  22  26
ATOM     26  O   UNL     1       9.253  15.718   2.899  1.00  0.00    -0.506 OA
ATOM     27  H   UNL     1       9.148  16.051   1.989  1.00  0.00     0.293 HD
ENDBRANCH  22  26
ENDBRANCH  18  19
ENDBRANCH  17  18
BRANCH  17  28
ATOM     28  O   UNL     1      15.068  11.288   4.675  1.00  0.00    -0.383 OA
ATOM     29  H   UNL     1      15.153  11.675   5.576  1.00  0.00     0.211 HD
ENDBRANCH  17  28
ENDBRANCH  14  17
ENDBRANCH  12  13
BRANCH  12  30
ATOM     30  C   UNL     1      12.772   7.393   1.664  1.00  0.00     0.018 C 
ATOM     31  C   UNL     1      13.716   6.245   2.055  1.00  0.00     0.010 C 
BRANCH  30  32
ATOM     32  C   UNL     1      13.491   8.367   0.699  1.00  0.00     0.002 C 
ATOM     33  C   UNL     1      14.620   7.757  -0.121  1.00  0.00     0.004 C 
ENDBRANCH  30  32
ENDBRANCH  12  30
ENDBRANCH  10  12
ENDBRANCH   1  10
BRANCH   5  34
ATOM     34  C   UNL     1       8.388  10.599   2.783  1.00  0.00     0.242 C 
ATOM     35  O   UNL     1       7.741   9.658   3.243  1.00  0.00    -0.273 OA
ATOM     36  N   UNL     1       7.908  11.889   2.771  1.00  0.00    -0.354 N 
ATOM     37  H   UNL     1       8.435  12.605   2.269  1.00  0.00     0.163 HD
BRANCH  36  38
ATOM     38  C   UNL     1       6.740  12.287   3.529  1.00  0.00     0.116 C 
BRANCH  38  39
ATOM     39  C   UNL     1       7.157  12.734   4.928  1.00  0.00     0.023 C 
BRANCH  39  40
ATOM     40  C   UNL     1       6.662  11.786   6.015  1.00  0.00     0.026 C 
BRANCH  40  41
ATOM     41  C   UNL     1       5.189  11.436   5.800  1.00  0.00     0.146 C 
BRANCH  41  42
ATOM     42  N   UNL     1       4.933  10.078   6.260  1.00  0.00    -0.254 NA
ATOM     43  C   UNL     1       4.832   9.129   5.407  1.00  0.00     0.185 C 
ATOM     44  N   UNL     1       4.926   9.158   4.065  1.00  0.00    -0.370 N 
ATOM     45  N   UNL     1       4.591   7.885   5.852  1.00  0.00    -0.370 N 
ATOM     46  H   UNL     1       4.584   8.391   3.511  1.00  0.00     0.159 HD
ATOM     47  H   UNL     1       5.119  10.019   3.563  1.00  0.00     0.159 HD
ATOM     48  H   UNL     1       4.515   7.773   6.854  1.00  0.00     0.159 HD
ATOM     49  H   UNL     1       4.732   7.068   5.284  1.00  0.00     0.159 HD
ENDBRANCH  41  42
ENDBRANCH  40  41
ENDBRANCH  39  40
ENDBRANCH  38  39
ENDBRANCH  36  38
ENDBRANCH   5  34
BRANCH   8  50
ATOM     50  O   UNL     1       6.879   8.094  -0.958  1.00  0.00    -0.245 OA
BRANCH  50  51
ATOM     51  S   UNL     1       5.582   7.216  -1.397  1.00  0.00     0.397 S 
ATOM     52  O   UNL     1       6.017   5.855  -1.612  1.00  0.00    -0.169 OA
ATOM     53  O   UNL     1       4.822   7.938  -2.396  1.00  0.00    -0.169 OA
BRANCH  51  54
ATOM     54  O   UNL     1       4.719   7.191  -0.040  1.00  0.00    -0.264 OA
ATOM     55  H   UNL     1       4.406   6.274   0.097  1.00  0.00     0.236 HD
ENDBRANCH  51  54
ENDBRANCH  50  51
ENDBRANCH   8  50
TORSDOF 19
ENDMDL
MODEL 50
REMARK VINA RESULT:    -5.368      3.974      8.090
REMARK INTER + INTRA:         -15.151
REMARK INTER:                 -12.115
REMARK INTRA:                  -3.036
REMARK UNBOUND:                -4.291
REMARK SMILES CC[C@@H](C)[C@@H](NC(=O)[C@@H](O)Cc1ccc(O)c(Cl)c1)C(=O)N1[C@H](C(=O)NCCCCN=C(N)N)C[C@H]2CC[C@H](OS(=O)(=O)O)C[C@@H]21
REMARK SMILES IDX 22 1 36 2 46 3 35 4 23 5 45 6 37 7 39 8 38 9 20 10 21 11
REMARK SMILES IDX 5 12 6 13 7 14 8 15 9 17 11 18 12 19 17 20 19 21 15 22 14 23
REMARK SMILES IDX 13 24 18 25 16 26 10 28 3 30 4 31 2 32 1 33 24 34 25 35
REMARK SMILES IDX 26 36 27 38 28 39 29 40 30 41 31 42 32 43 33 44 34 45 40 50
REMARK SMILES IDX 41 51 42 52 43 53 44 54
REMARK H PARENT 6 16 16 27 10 29 26 37 33 46 33 47 34 48 34 49 44 55
ROOT
ATOM      1  N   UNL     1      -0.776   0.882 -10.244  1.00  0.00    -0.326 N 
ATOM      2  C   UNL     1       0.156  -0.165 -12.135  1.00  0.00     0.014 C 
ATOM      3  C   UNL     1      -0.078   1.204 -11.492  1.00  0.00     0.091 C 
ATOM      4  C   UNL     1      -1.086  -0.943 -11.728  1.00  0.00     0.041 C 
ATOM      5  C   UNL     1      -1.181  -0.546 -10.243  1.00  0.00     0.175 C 
ATOM      6  C   UNL     1       1.263   1.932 -11.404  1.00  0.00     0.059 C 
ATOM      7  C   UNL     1       0.494  -0.022 -13.606  1.00  0.00     0.008 C 
ATOM      8  C   UNL     1       2.236   1.581 -12.551  1.00  0.00     0.143 C 
ATOM      9  C   UNL     1       1.492   1.134 -13.825  1.00  0.00     0.034 C 
ENDROOT
BRANCH   1  10
ATOM     10  C   UNL     1      -1.261   1.721  -9.255  1.00  0.00     0.246 C 
ATOM     11  O   UNL     1      -0.794   1.638  -8.114  1.00  0.00    -0.272 OA
BRANCH  10  12
ATOM     12  C   UNL     1      -2.348   2.777  -9.610  1.00  0.00     0.174 C 
BRANCH  12  13
ATOM     13  N   UNL     1      -3.542   2.109 -10.125  1.00  0.00    -0.342 N 
ATOM     14  C   UNL     1      -4.795   2.182  -9.559  1.00  0.00     0.249 C 
ATOM     15  O   UNL     1      -5.056   2.846  -8.564  1.00  0.00    -0.272 OA
ATOM     16  H   UNL     1      -3.450   1.401 -10.850  1.00  0.00     0.164 HD
BRANCH  14  17
ATOM     17  C   UNL     1      -5.845   1.351 -10.327  1.00  0.00     0.207 C 
BRANCH  17  18
ATOM     18  C   UNL     1      -5.158   0.313 -11.221  1.00  0.00     0.077 C 
BRANCH  18  19
ATOM     19  C   UNL     1      -5.416  -1.098 -10.743  1.00  0.00    -0.043 A 
ATOM     20  C   UNL     1      -6.496  -2.634  -9.207  1.00  0.00     0.083 A 
ATOM     21  C   UNL     1      -6.298  -1.335  -9.677  1.00  0.00     0.028 A 
ATOM     22  C   UNL     1      -5.816  -3.701  -9.796  1.00  0.00     0.134 A 
ATOM     23  C   UNL     1      -4.940  -3.480 -10.852  1.00  0.00     0.048 A 
ATOM     24  C   UNL     1      -4.738  -2.181 -11.324  1.00  0.00     0.008 A 
ATOM     25  Cl  UNL     1      -7.583  -2.905  -7.896  1.00  0.00    -0.080 Cl
BRANCH  22  26
ATOM     26  O   UNL     1      -5.970  -4.990  -9.362  1.00  0.00    -0.506 OA
ATOM     27  H   UNL     1      -5.084  -5.306  -9.105  1.00  0.00     0.293 HD
ENDBRANCH  22  26
ENDBRANCH  18  19
ENDBRANCH  17  18
BRANCH  17  28
ATOM     28  O   UNL     1      -6.683   2.195 -11.134  1.00  0.00    -0.383 OA
ATOM     29  H   UNL     1      -6.099   2.911 -11.475  1.00  0.00     0.211 HD
ENDBRANCH  17  28
ENDBRANCH  14  17
ENDBRANCH  12  13
BRANCH  12  30
ATOM     30  C   UNL     1      -1.824   3.878 -10.570  1.00  0.00     0.018 C 
ATOM     31  C   UNL     1      -1.617   5.204  -9.821  1.00  0.00     0.010 C 
BRANCH  30  32
ATOM     32  C   UNL     1      -2.725   4.103 -11.809  1.00  0.00     0.002 C 
ATOM     33  C   UNL     1      -3.673   5.291 -11.718  1.00  0.00     0.004 C 
ENDBRANCH  30  32
ENDBRANCH  12  30
ENDBRANCH  10  12
ENDBRANCH   1  10
BRANCH   5  34
ATOM     34  C   UNL     1      -0.222  -1.389  -9.362  1.00  0.00     0.242 C 
ATOM     35  O   UNL     1       1.001  -1.352  -9.499  1.00  0.00    -0.273 OA
ATOM     36  N   UNL     1      -0.839  -2.222  -8.456  1.00  0.00    -0.354 N 
ATOM     37  H   UNL     1      -1.857  -2.298  -8.472  1.00  0.00     0.163 HD
BRANCH  36  38
ATOM     38  C   UNL     1      -0.105  -2.913  -7.416  1.00  0.00     0.116 C 
BRANCH  38  39
ATOM     39  C   UNL     1      -0.590  -4.357  -7.311  1.00  0.00     0.023 C 
BRANCH  39  40
ATOM     40  C   UNL     1      -1.968  -4.463  -6.667  1.00  0.00     0.026 C 
BRANCH  40  41
ATOM     41  C   UNL     1      -3.041  -4.733  -7.722  1.00  0.00     0.146 C 
BRANCH  41  42
ATOM     42  N   UNL     1      -3.052  -6.150  -8.061  1.00  0.00    -0.254 NA
ATOM     43  C   UNL     1      -2.711  -6.522  -9.238  1.00  0.00     0.185 C 
ATOM     44  N   UNL     1      -2.314  -5.791 -10.295  1.00  0.00    -0.370 N 
ATOM     45  N   UNL     1      -2.733  -7.832  -9.532  1.00  0.00    -0.370 N 
ATOM     46  H   UNL     1      -2.314  -6.186 -11.220  1.00  0.00     0.159 HD
ATOM     47  H   UNL     1      -2.228  -4.781 -10.243  1.00  0.00     0.159 HD
ATOM     48  H   UNL     1      -3.014  -8.455  -8.786  1.00  0.00     0.159 HD
ATOM     49  H   UNL     1      -2.264  -8.218 -10.332  1.00  0.00     0.159 HD
ENDBRANCH  41  42
ENDBRANCH  40  41
ENDBRANCH  39  40
ENDBRANCH  38  39
ENDBRANCH  36  38
ENDBRANCH   5  34
BRANCH   8  50
ATOM     50  O   UNL     1       3.113   0.530 -12.145  1.00  0.00    -0.245 OA
BRANCH  50  51
ATOM     51  S   UNL     1       4.714   0.806 -12.065  1.00  0.00     0.397 S 
ATOM     52  O   UNL     1       5.333   0.174 -13.209  1.00  0.00    -0.169 OA
ATOM     53  O   UNL     1       5.182   0.562 -10.717  1.00  0.00    -0.169 OA
BRANCH  51  54
ATOM     54  O   UNL     1       4.796   2.388 -12.340  1.00  0.00    -0.264 OA
ATOM     55  H   UNL     1       4.654   2.532 -13.298  1.00  0.00     0.236 HD
ENDBRANCH  51  54
ENDBRANCH  50  51
ENDBRANCH   8  50
TORSDOF 19
ENDMDL
