MODEL 1
REMARK VINA RESULT:    -7.742      0.000      0.000
REMARK INTER + INTRA:         -20.173
REMARK INTER:                 -15.662
REMARK INTRA:                  -4.511
REMARK UNBOUND:                -4.511
REMARK SMILES CC[C@@H](C)[C@@H](NC(=O)[C@@H](O)Cc1ccc(O)c(Cl)c1)C(=O)N1[C@H](C(=O)NCCCCN=C(N)N)C[C@H]2CC[C@H](OS(=O)(=O)O)C[C@@H]21
REMARK SMILES IDX 22 1 36 2 46 3 35 4 23 5 45 6 37 7 39 8 38 9 20 10 21 11
REMARK SMILES IDX 5 12 6 13 7 14 8 15 9 17 11 18 12 19 17 20 19 21 15 22 14 23
REMARK SMILES IDX 13 24 18 25 16 26 10 28 3 30 4 31 2 32 1 33 24 34 25 35
REMARK SMILES IDX 26 36 27 38 28 39 29 40 30 41 31 42 32 43 33 44 34 45 40 50
REMARK SMILES IDX 41 51 42 52 43 53 44 54
REMARK H PARENT 6 16 16 27 10 29 26 37 33 46 33 47 34 48 34 49 44 55
ROOT
ATOM      1  N   UNL     1      -0.317   0.528   4.157  1.00  0.00    -0.326 N 
ATOM      2  C   UNL     1      -2.027  -0.219   2.722  1.00  0.00     0.014 C 
ATOM      3  C   UNL     1      -1.515   1.016   3.468  1.00  0.00     0.091 C 
ATOM      4  C   UNL     1      -1.679  -1.354   3.674  1.00  0.00     0.041 C 
ATOM      5  C   UNL     1      -0.244  -0.951   4.064  1.00  0.00     0.175 C 
ATOM      6  C   UNL     1      -1.358   2.156   2.464  1.00  0.00     0.059 C 
ATOM      7  C   UNL     1      -3.466  -0.031   2.285  1.00  0.00     0.008 C 
ATOM      8  C   UNL     1      -2.378   2.108   1.306  1.00  0.00     0.143 C 
ATOM      9  C   UNL     1      -3.679   1.385   1.709  1.00  0.00     0.034 C 
ENDROOT
BRANCH   1  10
ATOM     10  C   UNL     1       0.555   1.194   5.001  1.00  0.00     0.246 C 
ATOM     11  O   UNL     1       1.650   1.565   4.564  1.00  0.00    -0.272 OA
BRANCH  10  12
ATOM     12  C   UNL     1       0.124   1.497   6.465  1.00  0.00     0.174 C 
BRANCH  12  13
ATOM     13  N   UNL     1      -1.287   1.881   6.500  1.00  0.00    -0.342 N 
ATOM     14  C   UNL     1      -2.262   1.242   7.233  1.00  0.00     0.249 C 
ATOM     15  O   UNL     1      -2.047   0.287   7.968  1.00  0.00    -0.272 OA
ATOM     16  H   UNL     1      -1.643   2.553   5.824  1.00  0.00     0.164 HD
BRANCH  14  17
ATOM     17  C   UNL     1      -3.658   1.874   7.046  1.00  0.00     0.207 C 
BRANCH  17  18
ATOM     18  C   UNL     1      -3.535   3.380   6.790  1.00  0.00     0.077 C 
BRANCH  18  19
ATOM     19  C   UNL     1      -4.324   3.810   5.574  1.00  0.00    -0.043 A 
ATOM     20  C   UNL     1      -4.391   4.656   3.302  1.00  0.00     0.083 A 
ATOM     21  C   UNL     1      -3.661   4.212   4.405  1.00  0.00     0.028 A 
ATOM     22  C   UNL     1      -5.784   4.701   3.359  1.00  0.00     0.134 A 
ATOM     23  C   UNL     1      -6.454   4.305   4.511  1.00  0.00     0.048 A 
ATOM     24  C   UNL     1      -5.726   3.863   5.617  1.00  0.00     0.008 A 
ATOM     25  Cl  UNL     1      -3.558   5.147   1.874  1.00  0.00    -0.080 Cl
BRANCH  22  26
ATOM     26  O   UNL     1      -6.543   5.138   2.307  1.00  0.00    -0.506 OA
ATOM     27  H   UNL     1      -7.469   5.141   2.612  1.00  0.00     0.293 HD
ENDBRANCH  22  26
ENDBRANCH  18  19
ENDBRANCH  17  18
BRANCH  17  28
ATOM     28  O   UNL     1      -4.485   1.653   8.199  1.00  0.00    -0.383 OA
ATOM     29  H   UNL     1      -4.008   0.995   8.754  1.00  0.00     0.211 HD
ENDBRANCH  17  28
ENDBRANCH  14  17
ENDBRANCH  12  13
BRANCH  12  30
ATOM     30  C   UNL     1       1.039   2.544   7.156  1.00  0.00     0.018 C 
ATOM     31  C   UNL     1       2.116   1.851   8.006  1.00  0.00     0.010 C 
BRANCH  30  32
ATOM     32  C   UNL     1       0.267   3.575   8.014  1.00  0.00     0.002 C 
ATOM     33  C   UNL     1       0.709   5.023   7.847  1.00  0.00     0.004 C 
ENDBRANCH  30  32
ENDBRANCH  12  30
ENDBRANCH  10  12
ENDBRANCH   1  10
BRANCH   5  34
ATOM     34  C   UNL     1       0.784  -1.385   2.985  1.00  0.00     0.242 C 
ATOM     35  O   UNL     1       0.471  -1.552   1.807  1.00  0.00    -0.273 OA
ATOM     36  N   UNL     1       2.058  -1.622   3.452  1.00  0.00    -0.354 N 
ATOM     37  H   UNL     1       2.227  -1.583   4.458  1.00  0.00     0.163 HD
BRANCH  36  38
ATOM     38  C   UNL     1       3.183  -1.822   2.563  1.00  0.00     0.116 C 
BRANCH  38  39
ATOM     39  C   UNL     1       4.355  -0.948   3.005  1.00  0.00     0.023 C 
BRANCH  39  40
ATOM     40  C   UNL     1       5.173  -0.432   1.826  1.00  0.00     0.026 C 
BRANCH  40  41
ATOM     41  C   UNL     1       4.267   0.217   0.780  1.00  0.00     0.146 C 
BRANCH  41  42
ATOM     42  N   UNL     1       3.529   1.319   1.383  1.00  0.00    -0.254 NA
ATOM     43  C   UNL     1       2.302   1.507   1.068  1.00  0.00     0.185 C 
ATOM     44  N   UNL     1       1.511   0.822   0.222  1.00  0.00    -0.370 N 
ATOM     45  N   UNL     1       1.641   2.531   1.632  1.00  0.00    -0.370 N 
ATOM     46  H   UNL     1       0.651   1.221  -0.113  1.00  0.00     0.159 HD
ATOM     47  H   UNL     1       1.848   0.006  -0.280  1.00  0.00     0.159 HD
ATOM     48  H   UNL     1       2.163   3.094   2.290  1.00  0.00     0.159 HD
ATOM     49  H   UNL     1       0.639   2.601   1.624  1.00  0.00     0.159 HD
ENDBRANCH  41  42
ENDBRANCH  40  41
ENDBRANCH  39  40
ENDBRANCH  38  39
ENDBRANCH  36  38
ENDBRANCH   5  34
BRANCH   8  50
ATOM     50  O   UNL     1      -1.813   1.433   0.182  1.00  0.00    -0.245 OA
BRANCH  50  51
ATOM     51  S   UNL     1      -1.367   2.287  -1.128  1.00  0.00     0.397 S 
ATOM     52  O   UNL     1      -2.510   3.053  -1.572  1.00  0.00    -0.169 OA
ATOM     53  O   UNL     1      -0.624   1.436  -2.034  1.00  0.00    -0.169 OA
BRANCH  51  54
ATOM     54  O   UNL     1      -0.342   3.355  -0.499  1.00  0.00    -0.264 OA
ATOM     55  H   UNL     1      -0.849   4.166  -0.288  1.00  0.00     0.236 HD
ENDBRANCH  51  54
ENDBRANCH  50  51
ENDBRANCH   8  50
TORSDOF 19
ENDMDL
MODEL 2
REMARK VINA RESULT:    -7.669      3.305      7.291
REMARK INTER + INTRA:         -20.026
REMARK INTER:                 -15.611
REMARK INTRA:                  -4.415
REMARK UNBOUND:                -4.511
REMARK SMILES CC[C@@H](C)[C@@H](NC(=O)[C@@H](O)Cc1ccc(O)c(Cl)c1)C(=O)N1[C@H](C(=O)NCCCCN=C(N)N)C[C@H]2CC[C@H](OS(=O)(=O)O)C[C@@H]21
REMARK SMILES IDX 22 1 36 2 46 3 35 4 23 5 45 6 37 7 39 8 38 9 20 10 21 11
REMARK SMILES IDX 5 12 6 13 7 14 8 15 9 17 11 18 12 19 17 20 19 21 15 22 14 23
REMARK SMILES IDX 13 24 18 25 16 26 10 28 3 30 4 31 2 32 1 33 24 34 25 35
REMARK SMILES IDX 26 36 27 38 28 39 29 40 30 41 31 42 32 43 33 44 34 45 40 50
REMARK SMILES IDX 41 51 42 52 43 53 44 54
REMARK H PARENT 6 16 16 27 10 29 26 37 33 46 33 47 34 48 34 49 44 55
ROOT
ATOM      1  N   UNL     1      -1.083  -0.134   5.518  1.00  0.00    -0.326 N 
ATOM      2  C   UNL     1      -0.409   0.173   7.753  1.00  0.00     0.014 C 
ATOM      3  C   UNL     1       0.006   0.451   6.305  1.00  0.00     0.091 C 
ATOM      4  C   UNL     1      -1.102  -1.177   7.649  1.00  0.00     0.041 C 
ATOM      5  C   UNL     1      -1.964  -0.944   6.395  1.00  0.00     0.175 C 
ATOM      6  C   UNL     1       0.281   1.947   6.161  1.00  0.00     0.059 C 
ATOM      7  C   UNL     1       0.769   0.334   8.694  1.00  0.00     0.008 C 
ATOM      8  C   UNL     1       0.834   2.604   7.444  1.00  0.00     0.143 C 
ATOM      9  C   UNL     1       1.585   1.593   8.335  1.00  0.00     0.034 C 
ENDROOT
BRANCH   1  10
ATOM     10  C   UNL     1      -1.248  -0.204   4.146  1.00  0.00     0.246 C 
ATOM     11  O   UNL     1      -1.998  -1.066   3.674  1.00  0.00    -0.272 OA
BRANCH  10  12
ATOM     12  C   UNL     1      -0.523   0.826   3.232  1.00  0.00     0.174 C 
BRANCH  12  13
ATOM     13  N   UNL     1      -1.506   1.604   2.480  1.00  0.00    -0.342 N 
ATOM     14  C   UNL     1      -2.422   2.469   3.036  1.00  0.00     0.249 C 
ATOM     15  O   UNL     1      -2.497   2.704   4.235  1.00  0.00    -0.272 OA
ATOM     16  H   UNL     1      -1.667   1.397   1.497  1.00  0.00     0.164 HD
BRANCH  14  17
ATOM     17  C   UNL     1      -3.335   3.129   1.980  1.00  0.00     0.207 C 
BRANCH  17  18
ATOM     18  C   UNL     1      -2.746   4.468   1.525  1.00  0.00     0.077 C 
BRANCH  18  19
ATOM     19  C   UNL     1      -2.306   4.425   0.079  1.00  0.00    -0.043 A 
ATOM     20  C   UNL     1      -0.537   4.424  -1.581  1.00  0.00     0.083 A 
ATOM     21  C   UNL     1      -0.940   4.414  -0.246  1.00  0.00     0.028 A 
ATOM     22  C   UNL     1      -1.492   4.448  -2.599  1.00  0.00     0.134 A 
ATOM     23  C   UNL     1      -2.848   4.459  -2.292  1.00  0.00     0.048 A 
ATOM     24  C   UNL     1      -3.254   4.450  -0.955  1.00  0.00     0.008 A 
ATOM     25  Cl  UNL     1       1.145   4.411  -1.960  1.00  0.00    -0.080 Cl
BRANCH  22  26
ATOM     26  O   UNL     1      -1.145   4.470  -3.922  1.00  0.00    -0.506 OA
ATOM     27  H   UNL     1      -1.887   4.885  -4.400  1.00  0.00     0.293 HD
ENDBRANCH  22  26
ENDBRANCH  18  19
ENDBRANCH  17  18
BRANCH  17  28
ATOM     28  O   UNL     1      -4.657   3.342   2.501  1.00  0.00    -0.383 OA
ATOM     29  H   UNL     1      -5.167   2.527   2.289  1.00  0.00     0.211 HD
ENDBRANCH  17  28
ENDBRANCH  14  17
ENDBRANCH  12  13
BRANCH  12  30
ATOM     30  C   UNL     1       0.541   0.167   2.312  1.00  0.00     0.018 C 
ATOM     31  C   UNL     1       1.526  -0.678   3.135  1.00  0.00     0.010 C 
BRANCH  30  32
ATOM     32  C   UNL     1       1.313   1.179   1.432  1.00  0.00     0.002 C 
ATOM     33  C   UNL     1       0.801   1.325   0.005  1.00  0.00     0.004 C 
ENDBRANCH  30  32
ENDBRANCH  12  30
ENDBRANCH  10  12
ENDBRANCH   1  10
BRANCH   5  34
ATOM     34  C   UNL     1      -3.267  -0.171   6.732  1.00  0.00     0.242 C 
ATOM     35  O   UNL     1      -3.321   0.666   7.633  1.00  0.00    -0.273 OA
ATOM     36  N   UNL     1      -4.369  -0.528   5.988  1.00  0.00    -0.354 N 
ATOM     37  H   UNL     1      -4.291  -1.312   5.339  1.00  0.00     0.163 HD
BRANCH  36  38
ATOM     38  C   UNL     1      -5.602   0.232   6.018  1.00  0.00     0.116 C 
BRANCH  38  39
ATOM     39  C   UNL     1      -5.891   0.806   4.633  1.00  0.00     0.023 C 
BRANCH  39  40
ATOM     40  C   UNL     1      -7.019   1.832   4.651  1.00  0.00     0.026 C 
BRANCH  40  41
ATOM     41  C   UNL     1      -6.758   2.906   5.706  1.00  0.00     0.146 C 
BRANCH  41  42
ATOM     42  N   UNL     1      -5.898   3.943   5.151  1.00  0.00    -0.254 NA
ATOM     43  C   UNL     1      -4.754   4.167   5.679  1.00  0.00     0.185 C 
ATOM     44  N   UNL     1      -4.155   3.577   6.730  1.00  0.00    -0.370 N 
ATOM     45  N   UNL     1      -3.978   5.130   5.155  1.00  0.00    -0.370 N 
ATOM     46  H   UNL     1      -3.371   4.012   7.185  1.00  0.00     0.159 HD
ATOM     47  H   UNL     1      -4.598   2.816   7.237  1.00  0.00     0.159 HD
ATOM     48  H   UNL     1      -4.352   5.620   4.353  1.00  0.00     0.159 HD
ATOM     49  H   UNL     1      -2.996   5.205   5.352  1.00  0.00     0.159 HD
ENDBRANCH  41  42
ENDBRANCH  40  41
ENDBRANCH  39  40
ENDBRANCH  38  39
ENDBRANCH  36  38
ENDBRANCH   5  34
BRANCH   8  50
ATOM     50  O   UNL     1      -0.233   3.172   8.203  1.00  0.00    -0.245 OA
BRANCH  50  51
ATOM     51  S   UNL     1      -0.510   4.773   8.125  1.00  0.00     0.397 S 
ATOM     52  O   UNL     1      -1.670   4.985   7.290  1.00  0.00    -0.169 OA
ATOM     53  O   UNL     1       0.736   5.471   7.887  1.00  0.00    -0.169 OA
BRANCH  51  54
ATOM     54  O   UNL     1      -0.984   5.105   9.626  1.00  0.00    -0.264 OA
ATOM     55  H   UNL     1      -1.923   4.840   9.707  1.00  0.00     0.236 HD
ENDBRANCH  51  54
ENDBRANCH  50  51
ENDBRANCH   8  50
TORSDOF 19
ENDMDL
MODEL 3
REMARK VINA RESULT:    -7.538      2.953      7.322
REMARK INTER + INTRA:         -19.762
REMARK INTER:                 -15.292
REMARK INTRA:                  -4.469
REMARK UNBOUND:                -4.511
REMARK SMILES CC[C@@H](C)[C@@H](NC(=O)[C@@H](O)Cc1ccc(O)c(Cl)c1)C(=O)N1[C@H](C(=O)NCCCCN=C(N)N)C[C@H]2CC[C@H](OS(=O)(=O)O)C[C@@H]21
REMARK SMILES IDX 22 1 36 2 46 3 35 4 23 5 45 6 37 7 39 8 38 9 20 10 21 11
REMARK SMILES IDX 5 12 6 13 7 14 8 15 9 17 11 18 12 19 17 20 19 21 15 22 14 23
REMARK SMILES IDX 13 24 18 25 16 26 10 28 3 30 4 31 2 32 1 33 24 34 25 35
REMARK SMILES IDX 26 36 27 38 28 39 29 40 30 41 31 42 32 43 33 44 34 45 40 50
REMARK SMILES IDX 41 51 42 52 43 53 44 54
REMARK H PARENT 6 16 16 27 10 29 26 37 33 46 33 47 34 48 34 49 44 55
ROOT
ATOM      1  N   UNL     1      -0.985  -0.526   3.317  1.00  0.00    -0.326 N 
ATOM      2  C   UNL     1      -2.348  -0.642   5.233  1.00  0.00     0.014 C 
ATOM      3  C   UNL     1      -0.953  -0.990   4.707  1.00  0.00     0.091 C 
ATOM      4  C   UNL     1      -3.229  -0.855   4.011  1.00  0.00     0.041 C 
ATOM      5  C   UNL     1      -2.372  -0.166   2.933  1.00  0.00     0.175 C 
ATOM      6  C   UNL     1       0.084  -0.383   5.650  1.00  0.00     0.059 C 
ATOM      7  C   UNL     1      -2.652  -1.400   6.510  1.00  0.00     0.008 C 
ATOM      8  C   UNL     1      -0.380  -0.311   7.121  1.00  0.00     0.143 C 
ATOM      9  C   UNL     1      -1.429  -1.392   7.451  1.00  0.00     0.034 C 
ENDROOT
BRANCH   1  10
ATOM     10  C   UNL     1      -0.009  -0.592   2.337  1.00  0.00     0.246 C 
ATOM     11  O   UNL     1       0.153  -1.650   1.720  1.00  0.00    -0.272 OA
BRANCH  10  12
ATOM     12  C   UNL     1       0.830   0.676   2.004  1.00  0.00     0.174 C 
BRANCH  12  13
ATOM     13  N   UNL     1       0.680   1.017   0.590  1.00  0.00    -0.342 N 
ATOM     14  C   UNL     1       0.345   2.263   0.109  1.00  0.00     0.249 C 
ATOM     15  O   UNL     1       0.162   3.242   0.822  1.00  0.00    -0.272 OA
ATOM     16  H   UNL     1       0.647   0.276  -0.106  1.00  0.00     0.164 HD
BRANCH  14  17
ATOM     17  C   UNL     1       0.246   2.300  -1.430  1.00  0.00     0.207 C 
BRANCH  17  18
ATOM     18  C   UNL     1      -1.100   1.733  -1.894  1.00  0.00     0.077 C 
BRANCH  18  19
ATOM     19  C   UNL     1      -2.183   2.788  -1.899  1.00  0.00    -0.043 A 
ATOM     20  C   UNL     1      -4.509   3.414  -1.617  1.00  0.00     0.083 A 
ATOM     21  C   UNL     1      -3.503   2.449  -1.564  1.00  0.00     0.028 A 
ATOM     22  C   UNL     1      -4.205   4.719  -2.005  1.00  0.00     0.134 A 
ATOM     23  C   UNL     1      -2.902   5.068  -2.339  1.00  0.00     0.048 A 
ATOM     24  C   UNL     1      -1.893   4.104  -2.289  1.00  0.00     0.008 A 
ATOM     25  Cl  UNL     1      -6.126   2.978  -1.202  1.00  0.00    -0.080 Cl
BRANCH  22  26
ATOM     26  O   UNL     1      -5.160   5.697  -2.082  1.00  0.00    -0.506 OA
ATOM     27  H   UNL     1      -4.900   6.285  -2.815  1.00  0.00     0.293 HD
ENDBRANCH  22  26
ENDBRANCH  18  19
ENDBRANCH  17  18
BRANCH  17  28
ATOM     28  O   UNL     1       1.313   1.552  -2.036  1.00  0.00    -0.383 OA
ATOM     29  H   UNL     1       1.693   0.993  -1.321  1.00  0.00     0.211 HD
ENDBRANCH  17  28
ENDBRANCH  14  17
ENDBRANCH  12  13
BRANCH  12  30
ATOM     30  C   UNL     1       2.318   0.537   2.425  1.00  0.00     0.018 C 
ATOM     31  C   UNL     1       2.773   1.759   3.237  1.00  0.00     0.010 C 
BRANCH  30  32
ATOM     32  C   UNL     1       3.281   0.301   1.235  1.00  0.00     0.002 C 
ATOM     33  C   UNL     1       4.743   0.633   1.505  1.00  0.00     0.004 C 
ENDBRANCH  30  32
ENDBRANCH  12  30
ENDBRANCH  10  12
ENDBRANCH   1  10
BRANCH   5  34
ATOM     34  C   UNL     1      -2.564   1.374   2.947  1.00  0.00     0.242 C 
ATOM     35  O   UNL     1      -1.785   2.129   3.529  1.00  0.00    -0.273 OA
ATOM     36  N   UNL     1      -3.697   1.828   2.310  1.00  0.00    -0.354 N 
ATOM     37  H   UNL     1      -4.366   1.146   1.950  1.00  0.00     0.163 HD
BRANCH  36  38
ATOM     38  C   UNL     1      -3.921   3.234   2.040  1.00  0.00     0.116 C 
BRANCH  38  39
ATOM     39  C   UNL     1      -4.824   3.830   3.118  1.00  0.00     0.023 C 
BRANCH  39  40
ATOM     40  C   UNL     1      -4.269   5.130   3.689  1.00  0.00     0.026 C 
BRANCH  40  41
ATOM     41  C   UNL     1      -4.213   5.071   5.216  1.00  0.00     0.146 C 
BRANCH  41  42
ATOM     42  N   UNL     1      -4.154   3.683   5.653  1.00  0.00    -0.254 NA
ATOM     43  C   UNL     1      -3.594   3.394   6.767  1.00  0.00     0.185 C 
ATOM     44  N   UNL     1      -3.009   4.195   7.676  1.00  0.00    -0.370 N 
ATOM     45  N   UNL     1      -3.546   2.107   7.151  1.00  0.00    -0.370 N 
ATOM     46  H   UNL     1      -2.400   3.814   8.379  1.00  0.00     0.159 HD
ATOM     47  H   UNL     1      -2.969   5.202   7.551  1.00  0.00     0.159 HD
ATOM     48  H   UNL     1      -3.974   1.437   6.526  1.00  0.00     0.159 HD
ATOM     49  H   UNL     1      -3.346   1.828   8.095  1.00  0.00     0.159 HD
ENDBRANCH  41  42
ENDBRANCH  40  41
ENDBRANCH  39  40
ENDBRANCH  38  39
ENDBRANCH  36  38
ENDBRANCH   5  34
BRANCH   8  50
ATOM     50  O   UNL     1      -0.948   0.970   7.394  1.00  0.00    -0.245 OA
BRANCH  50  51
ATOM     51  S   UNL     1      -0.098   2.060   8.251  1.00  0.00     0.397 S 
ATOM     52  O   UNL     1       0.048   3.249   7.442  1.00  0.00    -0.169 OA
ATOM     53  O   UNL     1       1.044   1.413   8.863  1.00  0.00    -0.169 OA
BRANCH  51  54
ATOM     54  O   UNL     1      -1.132   2.449   9.419  1.00  0.00    -0.264 OA
ATOM     55  H   UNL     1      -1.961   2.751   8.995  1.00  0.00     0.236 HD
ENDBRANCH  51  54
ENDBRANCH  50  51
ENDBRANCH   8  50
TORSDOF 19
ENDMDL
MODEL 4
REMARK VINA RESULT:    -7.481      3.053      6.981
REMARK INTER + INTRA:         -19.645
REMARK INTER:                 -16.005
REMARK INTRA:                  -3.639
REMARK UNBOUND:                -4.511
REMARK SMILES CC[C@@H](C)[C@@H](NC(=O)[C@@H](O)Cc1ccc(O)c(Cl)c1)C(=O)N1[C@H](C(=O)NCCCCN=C(N)N)C[C@H]2CC[C@H](OS(=O)(=O)O)C[C@@H]21
REMARK SMILES IDX 22 1 36 2 46 3 35 4 23 5 45 6 37 7 39 8 38 9 20 10 21 11
REMARK SMILES IDX 5 12 6 13 7 14 8 15 9 17 11 18 12 19 17 20 19 21 15 22 14 23
REMARK SMILES IDX 13 24 18 25 16 26 10 28 3 30 4 31 2 32 1 33 24 34 25 35
REMARK SMILES IDX 26 36 27 38 28 39 29 40 30 41 31 42 32 43 33 44 34 45 40 50
REMARK SMILES IDX 41 51 42 52 43 53 44 54
REMARK H PARENT 6 16 16 27 10 29 26 37 33 46 33 47 34 48 34 49 44 55
ROOT
ATOM      1  N   UNL     1      -0.409  -0.399   3.959  1.00  0.00    -0.326 N 
ATOM      2  C   UNL     1      -1.074  -0.341   6.217  1.00  0.00     0.014 C 
ATOM      3  C   UNL     1       0.068   0.045   5.272  1.00  0.00     0.091 C 
ATOM      4  C   UNL     1      -1.594  -1.632   5.604  1.00  0.00     0.041 C 
ATOM      5  C   UNL     1      -1.626  -1.233   4.117  1.00  0.00     0.175 C 
ATOM      6  C   UNL     1       0.376   1.528   5.468  1.00  0.00     0.059 C 
ATOM      7  C   UNL     1      -0.608  -0.339   7.660  1.00  0.00     0.008 C 
ATOM      8  C   UNL     1       0.132   2.029   6.908  1.00  0.00     0.143 C 
ATOM      9  C   UNL     1       0.271   0.898   7.946  1.00  0.00     0.034 C 
ENDROOT
BRANCH   1  10
ATOM     10  C   UNL     1       0.207  -0.332   2.722  1.00  0.00     0.246 C 
ATOM     11  O   UNL     1      -0.112  -1.143   1.846  1.00  0.00    -0.272 OA
BRANCH  10  12
ATOM     12  C   UNL     1       1.254   0.787   2.446  1.00  0.00     0.174 C 
BRANCH  12  13
ATOM     13  N   UNL     1       0.602   1.936   1.819  1.00  0.00    -0.342 N 
ATOM     14  C   UNL     1       0.262   2.022   0.487  1.00  0.00     0.249 C 
ATOM     15  O   UNL     1       0.445   1.122  -0.323  1.00  0.00    -0.272 OA
ATOM     16  H   UNL     1       0.530   2.813   2.327  1.00  0.00     0.164 HD
BRANCH  14  17
ATOM     17  C   UNL     1      -0.398   3.370   0.127  1.00  0.00     0.207 C 
BRANCH  17  18
ATOM     18  C   UNL     1      -0.490   3.532  -1.393  1.00  0.00     0.077 C 
BRANCH  18  19
ATOM     19  C   UNL     1      -1.919   3.447  -1.882  1.00  0.00    -0.043 A 
ATOM     20  C   UNL     1      -4.165   4.357  -1.980  1.00  0.00     0.083 A 
ATOM     21  C   UNL     1      -2.836   4.463  -1.570  1.00  0.00     0.028 A 
ATOM     22  C   UNL     1      -4.587   3.240  -2.700  1.00  0.00     0.134 A 
ATOM     23  C   UNL     1      -3.690   2.226  -3.016  1.00  0.00     0.048 A 
ATOM     24  C   UNL     1      -2.358   2.328  -2.606  1.00  0.00     0.008 A 
ATOM     25  Cl  UNL     1      -5.277   5.616  -1.586  1.00  0.00    -0.080 Cl
BRANCH  22  26
ATOM     26  O   UNL     1      -5.882   3.087  -3.114  1.00  0.00    -0.506 OA
ATOM     27  H   UNL     1      -5.871   2.426  -3.832  1.00  0.00     0.293 HD
ENDBRANCH  22  26
ENDBRANCH  18  19
ENDBRANCH  17  18
BRANCH  17  28
ATOM     28  O   UNL     1       0.342   4.471   0.680  1.00  0.00    -0.383 OA
ATOM     29  H   UNL     1      -0.225   5.267   0.559  1.00  0.00     0.211 HD
ENDBRANCH  17  28
ENDBRANCH  14  17
ENDBRANCH  12  13
BRANCH  12  30
ATOM     30  C   UNL     1       2.473   0.279   1.630  1.00  0.00     0.018 C 
ATOM     31  C   UNL     1       2.953  -1.083   2.154  1.00  0.00     0.010 C 
BRANCH  30  32
ATOM     32  C   UNL     1       3.654   1.279   1.590  1.00  0.00     0.002 C 
ATOM     33  C   UNL     1       4.984   0.699   1.126  1.00  0.00     0.004 C 
ENDBRANCH  30  32
ENDBRANCH  12  30
ENDBRANCH  10  12
ENDBRANCH   1  10
BRANCH   5  34
ATOM     34  C   UNL     1      -2.901  -0.418   3.770  1.00  0.00     0.242 C 
ATOM     35  O   UNL     1      -3.521   0.224   4.618  1.00  0.00    -0.273 OA
ATOM     36  N   UNL     1      -3.316  -0.508   2.461  1.00  0.00    -0.354 N 
ATOM     37  H   UNL     1      -2.830  -1.151   1.834  1.00  0.00     0.163 HD
BRANCH  36  38
ATOM     38  C   UNL     1      -4.349   0.348   1.916  1.00  0.00     0.116 C 
BRANCH  38  39
ATOM     39  C   UNL     1      -3.722   1.399   1.002  1.00  0.00     0.023 C 
BRANCH  39  40
ATOM     40  C   UNL     1      -3.859   2.812   1.560  1.00  0.00     0.026 C 
BRANCH  40  41
ATOM     41  C   UNL     1      -4.984   2.881   2.593  1.00  0.00     0.146 C 
BRANCH  41  42
ATOM     42  N   UNL     1      -4.832   4.080   3.407  1.00  0.00    -0.254 NA
ATOM     43  C   UNL     1      -3.915   4.127   4.299  1.00  0.00     0.185 C 
ATOM     44  N   UNL     1      -2.999   3.206   4.648  1.00  0.00    -0.370 N 
ATOM     45  N   UNL     1      -3.795   5.240   5.042  1.00  0.00    -0.370 N 
ATOM     46  H   UNL     1      -2.505   3.279   5.521  1.00  0.00     0.159 HD
ATOM     47  H   UNL     1      -2.939   2.308   4.177  1.00  0.00     0.159 HD
ATOM     48  H   UNL     1      -4.443   5.988   4.837  1.00  0.00     0.159 HD
ATOM     49  H   UNL     1      -2.974   5.446   5.583  1.00  0.00     0.159 HD
ENDBRANCH  41  42
ENDBRANCH  40  41
ENDBRANCH  39  40
ENDBRANCH  38  39
ENDBRANCH  36  38
ENDBRANCH   5  34
BRANCH   8  50
ATOM     50  O   UNL     1      -1.177   2.588   7.017  1.00  0.00    -0.245 OA
BRANCH  50  51
ATOM     51  S   UNL     1      -1.440   3.824   8.042  1.00  0.00     0.397 S 
ATOM     52  O   UNL     1      -1.960   3.278   9.275  1.00  0.00    -0.169 OA
ATOM     53  O   UNL     1      -2.113   4.899   7.343  1.00  0.00    -0.169 OA
BRANCH  51  54
ATOM     54  O   UNL     1       0.057   4.308   8.374  1.00  0.00    -0.264 OA
ATOM     55  H   UNL     1       0.373   4.842   7.616  1.00  0.00     0.236 HD
ENDBRANCH  51  54
ENDBRANCH  50  51
ENDBRANCH   8  50
TORSDOF 19
ENDMDL
MODEL 5
REMARK VINA RESULT:    -7.317      2.983      6.313
REMARK INTER + INTRA:         -19.313
REMARK INTER:                 -14.953
REMARK INTRA:                  -4.360
REMARK UNBOUND:                -4.511
REMARK SMILES CC[C@@H](C)[C@@H](NC(=O)[C@@H](O)Cc1ccc(O)c(Cl)c1)C(=O)N1[C@H](C(=O)NCCCCN=C(N)N)C[C@H]2CC[C@H](OS(=O)(=O)O)C[C@@H]21
REMARK SMILES IDX 22 1 36 2 46 3 35 4 23 5 45 6 37 7 39 8 38 9 20 10 21 11
REMARK SMILES IDX 5 12 6 13 7 14 8 15 9 17 11 18 12 19 17 20 19 21 15 22 14 23
REMARK SMILES IDX 13 24 18 25 16 26 10 28 3 30 4 31 2 32 1 33 24 34 25 35
REMARK SMILES IDX 26 36 27 38 28 39 29 40 30 41 31 42 32 43 33 44 34 45 40 50
REMARK SMILES IDX 41 51 42 52 43 53 44 54
REMARK H PARENT 6 16 16 27 10 29 26 37 33 46 33 47 34 48 34 49 44 55
ROOT
ATOM      1  N   UNL     1      -3.547   0.081   5.970  1.00  0.00    -0.326 N 
ATOM      2  C   UNL     1      -1.260  -0.465   5.839  1.00  0.00     0.014 C 
ATOM      3  C   UNL     1      -2.628  -0.790   5.231  1.00  0.00     0.091 C 
ATOM      4  C   UNL     1      -1.599  -0.189   7.296  1.00  0.00     0.041 C 
ATOM      5  C   UNL     1      -2.846   0.697   7.124  1.00  0.00     0.175 C 
ATOM      6  C   UNL     1      -2.534  -0.625   3.716  1.00  0.00     0.059 C 
ATOM      7  C   UNL     1      -0.247  -1.541   5.502  1.00  0.00     0.008 C 
ATOM      8  C   UNL     1      -1.141  -0.959   3.139  1.00  0.00     0.143 C 
ATOM      9  C   UNL     1      -0.373  -1.963   4.023  1.00  0.00     0.034 C 
ENDROOT
BRANCH   1  10
ATOM     10  C   UNL     1      -4.921   0.211   5.867  1.00  0.00     0.246 C 
ATOM     11  O   UNL     1      -5.646  -0.645   6.386  1.00  0.00    -0.272 OA
BRANCH  10  12
ATOM     12  C   UNL     1      -5.522   1.449   5.141  1.00  0.00     0.174 C 
BRANCH  12  13
ATOM     13  N   UNL     1      -4.515   2.056   4.272  1.00  0.00    -0.342 N 
ATOM     14  C   UNL     1      -4.736   2.480   2.981  1.00  0.00     0.249 C 
ATOM     15  O   UNL     1      -5.823   2.421   2.421  1.00  0.00    -0.272 OA
ATOM     16  H   UNL     1      -3.534   2.027   4.542  1.00  0.00     0.164 HD
BRANCH  14  17
ATOM     17  C   UNL     1      -3.468   3.061   2.320  1.00  0.00     0.207 C 
BRANCH  17  18
ATOM     18  C   UNL     1      -3.534   2.894   0.798  1.00  0.00     0.077 C 
BRANCH  18  19
ATOM     19  C   UNL     1      -2.231   3.277   0.134  1.00  0.00    -0.043 A 
ATOM     20  C   UNL     1      -0.229   2.653  -1.087  1.00  0.00     0.083 A 
ATOM     21  C   UNL     1      -1.455   2.306  -0.518  1.00  0.00     0.028 A 
ATOM     22  C   UNL     1       0.229   3.969  -1.007  1.00  0.00     0.134 A 
ATOM     23  C   UNL     1      -0.529   4.941  -0.365  1.00  0.00     0.048 A 
ATOM     24  C   UNL     1      -1.755   4.596   0.207  1.00  0.00     0.008 A 
ATOM     25  Cl  UNL     1       0.709   1.445  -1.883  1.00  0.00    -0.080 Cl
BRANCH  22  26
ATOM     26  O   UNL     1       1.429   4.355  -1.541  1.00  0.00    -0.506 OA
ATOM     27  H   UNL     1       2.015   4.564  -0.790  1.00  0.00     0.293 HD
ENDBRANCH  22  26
ENDBRANCH  18  19
ENDBRANCH  17  18
BRANCH  17  28
ATOM     28  O   UNL     1      -2.284   2.419   2.819  1.00  0.00    -0.383 OA
ATOM     29  H   UNL     1      -2.538   1.487   3.005  1.00  0.00     0.211 HD
ENDBRANCH  17  28
ENDBRANCH  14  17
ENDBRANCH  12  13
BRANCH  12  30
ATOM     30  C   UNL     1      -6.152   2.473   6.123  1.00  0.00     0.018 C 
ATOM     31  C   UNL     1      -7.687   2.425   6.053  1.00  0.00     0.010 C 
BRANCH  30  32
ATOM     32  C   UNL     1      -5.655   3.924   5.911  1.00  0.00     0.002 C 
ATOM     33  C   UNL     1      -6.691   4.892   5.354  1.00  0.00     0.004 C 
ENDBRANCH  30  32
ENDBRANCH  12  30
ENDBRANCH  10  12
ENDBRANCH   1  10
BRANCH   5  34
ATOM     34  C   UNL     1      -2.464   2.169   6.813  1.00  0.00     0.242 C 
ATOM     35  O   UNL     1      -2.115   2.535   5.691  1.00  0.00    -0.273 OA
ATOM     36  N   UNL     1      -2.491   3.021   7.894  1.00  0.00    -0.354 N 
ATOM     37  H   UNL     1      -2.671   2.634   8.821  1.00  0.00     0.163 HD
BRANCH  36  38
ATOM     38  C   UNL     1      -2.374   4.457   7.749  1.00  0.00     0.116 C 
BRANCH  38  39
ATOM     39  C   UNL     1      -1.281   4.985   8.676  1.00  0.00     0.023 C 
BRANCH  39  40
ATOM     40  C   UNL     1       0.057   5.150   7.963  1.00  0.00     0.026 C 
BRANCH  40  41
ATOM     41  C   UNL     1       0.795   3.814   7.880  1.00  0.00     0.146 C 
BRANCH  41  42
ATOM     42  N   UNL     1       1.313   3.621   6.531  1.00  0.00    -0.254 NA
ATOM     43  C   UNL     1       1.697   2.457   6.161  1.00  0.00     0.185 C 
ATOM     44  N   UNL     1       1.710   1.294   6.838  1.00  0.00    -0.370 N 
ATOM     45  N   UNL     1       2.175   2.301   4.916  1.00  0.00    -0.370 N 
ATOM     46  H   UNL     1       2.260   0.518   6.513  1.00  0.00     0.159 HD
ATOM     47  H   UNL     1       1.369   1.229   7.792  1.00  0.00     0.159 HD
ATOM     48  H   UNL     1       2.192   3.128   4.335  1.00  0.00     0.159 HD
ATOM     49  H   UNL     1       2.270   1.402   4.478  1.00  0.00     0.159 HD
ENDBRANCH  41  42
ENDBRANCH  40  41
ENDBRANCH  39  40
ENDBRANCH  38  39
ENDBRANCH  36  38
ENDBRANCH   5  34
BRANCH   8  50
ATOM     50  O   UNL     1      -0.360   0.232   3.023  1.00  0.00    -0.245 OA
BRANCH  50  51
ATOM     51  S   UNL     1       1.048   0.192   2.209  1.00  0.00     0.397 S 
ATOM     52  O   UNL     1       0.814  -0.465   0.943  1.00  0.00    -0.169 OA
ATOM     53  O   UNL     1       2.111  -0.228   3.098  1.00  0.00    -0.169 OA
BRANCH  51  54
ATOM     54  O   UNL     1       1.278   1.745   1.861  1.00  0.00    -0.264 OA
ATOM     55  H   UNL     1       1.426   2.221   2.704  1.00  0.00     0.236 HD
ENDBRANCH  51  54
ENDBRANCH  50  51
ENDBRANCH   8  50
TORSDOF 19
ENDMDL
MODEL 6
REMARK VINA RESULT:    -7.247      3.294      7.249
REMARK INTER + INTRA:         -19.172
REMARK INTER:                 -14.797
REMARK INTRA:                  -4.374
REMARK UNBOUND:                -4.511
REMARK SMILES CC[C@@H](C)[C@@H](NC(=O)[C@@H](O)Cc1ccc(O)c(Cl)c1)C(=O)N1[C@H](C(=O)NCCCCN=C(N)N)C[C@H]2CC[C@H](OS(=O)(=O)O)C[C@@H]21
REMARK SMILES IDX 22 1 36 2 46 3 35 4 23 5 45 6 37 7 39 8 38 9 20 10 21 11
REMARK SMILES IDX 5 12 6 13 7 14 8 15 9 17 11 18 12 19 17 20 19 21 15 22 14 23
REMARK SMILES IDX 13 24 18 25 16 26 10 28 3 30 4 31 2 32 1 33 24 34 25 35
REMARK SMILES IDX 26 36 27 38 28 39 29 40 30 41 31 42 32 43 33 44 34 45 40 50
REMARK SMILES IDX 41 51 42 52 43 53 44 54
REMARK H PARENT 6 16 16 27 10 29 26 37 33 46 33 47 34 48 34 49 44 55
ROOT
ATOM      1  N   UNL     1      -4.463   2.632   5.708  1.00  0.00    -0.326 N 
ATOM      2  C   UNL     1      -2.887   4.129   6.614  1.00  0.00     0.014 C 
ATOM      3  C   UNL     1      -3.668   2.848   6.921  1.00  0.00     0.091 C 
ATOM      4  C   UNL     1      -3.872   4.929   5.776  1.00  0.00     0.041 C 
ATOM      5  C   UNL     1      -4.384   3.827   4.831  1.00  0.00     0.175 C 
ATOM      6  C   UNL     1      -2.675   1.764   7.338  1.00  0.00     0.059 C 
ATOM      7  C   UNL     1      -2.324   4.737   7.883  1.00  0.00     0.008 C 
ATOM      8  C   UNL     1      -1.432   2.311   8.073  1.00  0.00     0.143 C 
ATOM      9  C   UNL     1      -1.723   3.644   8.791  1.00  0.00     0.034 C 
ENDROOT
BRANCH   1  10
ATOM     10  C   UNL     1      -5.377   1.636   5.411  1.00  0.00     0.246 C 
ATOM     11  O   UNL     1      -6.458   1.615   6.008  1.00  0.00    -0.272 OA
BRANCH  10  12
ATOM     12  C   UNL     1      -5.042   0.593   4.306  1.00  0.00     0.174 C 
BRANCH  12  13
ATOM     13  N   UNL     1      -3.637   0.198   4.401  1.00  0.00    -0.342 N 
ATOM     14  C   UNL     1      -3.157  -0.834   5.176  1.00  0.00     0.249 C 
ATOM     15  O   UNL     1      -3.867  -1.562   5.858  1.00  0.00    -0.272 OA
ATOM     16  H   UNL     1      -2.916   0.805   4.017  1.00  0.00     0.164 HD
BRANCH  14  17
ATOM     17  C   UNL     1      -1.624  -0.989   5.077  1.00  0.00     0.207 C 
BRANCH  17  18
ATOM     18  C   UNL     1      -1.232  -1.578   3.718  1.00  0.00     0.077 C 
BRANCH  18  19
ATOM     19  C   UNL     1      -0.276  -0.676   2.970  1.00  0.00    -0.043 A 
ATOM     20  C   UNL     1       1.989  -0.050   2.368  1.00  0.00     0.083 A 
ATOM     21  C   UNL     1       1.106  -0.913   3.018  1.00  0.00     0.028 A 
ATOM     22  C   UNL     1       1.498   1.053   1.668  1.00  0.00     0.134 A 
ATOM     23  C   UNL     1       0.132   1.300   1.611  1.00  0.00     0.048 A 
ATOM     24  C   UNL     1      -0.754   0.439   2.263  1.00  0.00     0.008 A 
ATOM     25  Cl  UNL     1       3.684  -0.359   2.439  1.00  0.00    -0.080 Cl
BRANCH  22  26
ATOM     26  O   UNL     1       2.325   1.932   1.023  1.00  0.00    -0.506 OA
ATOM     27  H   UNL     1       2.255   1.736   0.071  1.00  0.00     0.293 HD
ENDBRANCH  22  26
ENDBRANCH  18  19
ENDBRANCH  17  18
BRANCH  17  28
ATOM     28  O   UNL     1      -1.121  -1.834   6.125  1.00  0.00    -0.383 OA
ATOM     29  H   UNL     1      -1.119  -1.283   6.940  1.00  0.00     0.211 HD
ENDBRANCH  17  28
ENDBRANCH  14  17
ENDBRANCH  12  13
BRANCH  12  30
ATOM     30  C   UNL     1      -5.424   1.083   2.883  1.00  0.00     0.018 C 
ATOM     31  C   UNL     1      -6.865   0.678   2.534  1.00  0.00     0.010 C 
BRANCH  30  32
ATOM     32  C   UNL     1      -4.454   0.600   1.778  1.00  0.00     0.002 C 
ATOM     33  C   UNL     1      -4.932   0.822   0.349  1.00  0.00     0.004 C 
ENDBRANCH  30  32
ENDBRANCH  12  30
ENDBRANCH  10  12
ENDBRANCH   1  10
BRANCH   5  34
ATOM     34  C   UNL     1      -3.403   3.581   3.654  1.00  0.00     0.242 C 
ATOM     35  O   UNL     1      -2.433   2.831   3.752  1.00  0.00    -0.273 OA
ATOM     36  N   UNL     1      -3.666   4.305   2.512  1.00  0.00    -0.354 N 
ATOM     37  H   UNL     1      -4.413   5.000   2.532  1.00  0.00     0.163 HD
BRANCH  36  38
ATOM     38  C   UNL     1      -2.990   4.043   1.258  1.00  0.00     0.116 C 
BRANCH  38  39
ATOM     39  C   UNL     1      -3.903   4.410   0.091  1.00  0.00     0.023 C 
BRANCH  39  40
ATOM     40  C   UNL     1      -3.344   3.954  -1.253  1.00  0.00     0.026 C 
BRANCH  40  41
ATOM     41  C   UNL     1      -1.866   4.327  -1.380  1.00  0.00     0.146 C 
BRANCH  41  42
ATOM     42  N   UNL     1      -1.086   3.141  -1.707  1.00  0.00    -0.254 NA
ATOM     43  C   UNL     1       0.174   3.131  -1.480  1.00  0.00     0.185 C 
ATOM     44  N   UNL     1       0.967   4.083  -0.956  1.00  0.00    -0.370 N 
ATOM     45  N   UNL     1       0.877   2.029  -1.793  1.00  0.00    -0.370 N 
ATOM     46  H   UNL     1       1.966   4.033  -1.061  1.00  0.00     0.159 HD
ATOM     47  H   UNL     1       0.596   4.977  -0.651  1.00  0.00     0.159 HD
ATOM     48  H   UNL     1       0.353   1.260  -2.186  1.00  0.00     0.159 HD
ATOM     49  H   UNL     1       1.799   1.853  -1.436  1.00  0.00     0.159 HD
ENDBRANCH  41  42
ENDBRANCH  40  41
ENDBRANCH  39  40
ENDBRANCH  38  39
ENDBRANCH  36  38
ENDBRANCH   5  34
BRANCH   8  50
ATOM     50  O   UNL     1      -0.366   2.519   7.145  1.00  0.00    -0.245 OA
BRANCH  50  51
ATOM     51  S   UNL     1       1.017   1.678   7.309  1.00  0.00     0.397 S 
ATOM     52  O   UNL     1       1.992   2.242   6.403  1.00  0.00    -0.169 OA
ATOM     53  O   UNL     1       0.724   0.260   7.325  1.00  0.00    -0.169 OA
BRANCH  51  54
ATOM     54  O   UNL     1       1.494   2.103   8.785  1.00  0.00    -0.264 OA
ATOM     55  H   UNL     1       1.239   3.037   8.924  1.00  0.00     0.236 HD
ENDBRANCH  51  54
ENDBRANCH  50  51
ENDBRANCH   8  50
TORSDOF 19
ENDMDL
MODEL 7
REMARK VINA RESULT:    -7.236      3.246      4.427
REMARK INTER + INTRA:         -19.150
REMARK INTER:                 -15.603
REMARK INTRA:                  -3.546
REMARK UNBOUND:                -4.511
REMARK SMILES CC[C@@H](C)[C@@H](NC(=O)[C@@H](O)Cc1ccc(O)c(Cl)c1)C(=O)N1[C@H](C(=O)NCCCCN=C(N)N)C[C@H]2CC[C@H](OS(=O)(=O)O)C[C@@H]21
REMARK SMILES IDX 22 1 36 2 46 3 35 4 23 5 45 6 37 7 39 8 38 9 20 10 21 11
REMARK SMILES IDX 5 12 6 13 7 14 8 15 9 17 11 18 12 19 17 20 19 21 15 22 14 23
REMARK SMILES IDX 13 24 18 25 16 26 10 28 3 30 4 31 2 32 1 33 24 34 25 35
REMARK SMILES IDX 26 36 27 38 28 39 29 40 30 41 31 42 32 43 33 44 34 45 40 50
REMARK SMILES IDX 41 51 42 52 43 53 44 54
REMARK H PARENT 6 16 16 27 10 29 26 37 33 46 33 47 34 48 34 49 44 55
ROOT
ATOM      1  N   UNL     1      -0.588   0.763   5.321  1.00  0.00    -0.326 N 
ATOM      2  C   UNL     1      -1.596  -0.086   3.370  1.00  0.00     0.014 C 
ATOM      3  C   UNL     1      -1.860   0.797   4.593  1.00  0.00     0.091 C 
ATOM      4  C   UNL     1      -0.661  -1.151   3.921  1.00  0.00     0.041 C 
ATOM      5  C   UNL     1       0.302  -0.271   4.739  1.00  0.00     0.175 C 
ATOM      6  C   UNL     1      -2.382   2.149   4.110  1.00  0.00     0.059 C 
ATOM      7  C   UNL     1      -2.897  -0.505   2.713  1.00  0.00     0.008 C 
ATOM      8  C   UNL     1      -3.210   2.066   2.809  1.00  0.00     0.143 C 
ATOM      9  C   UNL     1      -3.874   0.686   2.632  1.00  0.00     0.034 C 
ENDROOT
BRANCH   1  10
ATOM     10  C   UNL     1      -0.234   1.363   6.517  1.00  0.00     0.246 C 
ATOM     11  O   UNL     1       0.640   2.237   6.516  1.00  0.00    -0.272 OA
BRANCH  10  12
ATOM     12  C   UNL     1      -0.970   0.957   7.827  1.00  0.00     0.174 C 
BRANCH  12  13
ATOM     13  N   UNL     1      -1.205   2.140   8.654  1.00  0.00    -0.342 N 
ATOM     14  C   UNL     1      -2.199   3.069   8.441  1.00  0.00     0.249 C 
ATOM     15  O   UNL     1      -3.024   2.990   7.540  1.00  0.00    -0.272 OA
ATOM     16  H   UNL     1      -0.509   2.421   9.340  1.00  0.00     0.164 HD
BRANCH  14  17
ATOM     17  C   UNL     1      -2.176   4.213   9.476  1.00  0.00     0.207 C 
BRANCH  17  18
ATOM     18  C   UNL     1      -1.200   5.310   9.040  1.00  0.00     0.077 C 
BRANCH  18  19
ATOM     19  C   UNL     1      -1.540   6.646   9.663  1.00  0.00    -0.043 A 
ATOM     20  C   UNL     1      -0.922   8.923  10.224  1.00  0.00     0.083 A 
ATOM     21  C   UNL     1      -0.625   7.708   9.606  1.00  0.00     0.028 A 
ATOM     22  C   UNL     1      -2.130   9.084  10.903  1.00  0.00     0.134 A 
ATOM     23  C   UNL     1      -3.046   8.041  10.967  1.00  0.00     0.048 A 
ATOM     24  C   UNL     1      -2.751   6.823  10.351  1.00  0.00     0.008 A 
ATOM     25  Cl  UNL     1       0.216  10.217  10.143  1.00  0.00    -0.080 Cl
BRANCH  22  26
ATOM     26  O   UNL     1      -2.461  10.253  11.533  1.00  0.00    -0.506 OA
ATOM     27  H   UNL     1      -1.760  10.896  11.316  1.00  0.00     0.293 HD
ENDBRANCH  22  26
ENDBRANCH  18  19
ENDBRANCH  17  18
BRANCH  17  28
ATOM     28  O   UNL     1      -1.799   3.729  10.775  1.00  0.00    -0.383 OA
ATOM     29  H   UNL     1      -2.598   3.823  11.343  1.00  0.00     0.211 HD
ENDBRANCH  17  28
ENDBRANCH  14  17
ENDBRANCH  12  13
BRANCH  12  30
ATOM     30  C   UNL     1      -0.238  -0.172   8.601  1.00  0.00     0.018 C 
ATOM     31  C   UNL     1       1.260   0.142   8.738  1.00  0.00     0.010 C 
BRANCH  30  32
ATOM     32  C   UNL     1      -0.432  -1.577   7.982  1.00  0.00     0.002 C 
ATOM     33  C   UNL     1      -1.814  -1.847   7.400  1.00  0.00     0.004 C 
ENDBRANCH  30  32
ENDBRANCH  12  30
ENDBRANCH  10  12
ENDBRANCH   1  10
BRANCH   5  34
ATOM     34  C   UNL     1       1.386   0.380   3.838  1.00  0.00     0.242 C 
ATOM     35  O   UNL     1       1.409   1.588   3.605  1.00  0.00    -0.273 OA
ATOM     36  N   UNL     1       2.286  -0.499   3.276  1.00  0.00    -0.354 N 
ATOM     37  H   UNL     1       2.143  -1.501   3.410  1.00  0.00     0.163 HD
BRANCH  36  38
ATOM     38  C   UNL     1       3.480  -0.050   2.592  1.00  0.00     0.116 C 
BRANCH  38  39
ATOM     39  C   UNL     1       3.704  -0.888   1.335  1.00  0.00     0.023 C 
BRANCH  39  40
ATOM     40  C   UNL     1       3.240  -0.176   0.069  1.00  0.00     0.026 C 
BRANCH  40  41
ATOM     41  C   UNL     1       1.729  -0.324  -0.113  1.00  0.00     0.146 C 
BRANCH  41  42
ATOM     42  N   UNL     1       1.228   0.754  -0.957  1.00  0.00    -0.254 NA
ATOM     43  C   UNL     1       0.777   1.823  -0.416  1.00  0.00     0.185 C 
ATOM     44  N   UNL     1       0.674   2.159   0.883  1.00  0.00    -0.370 N 
ATOM     45  N   UNL     1       0.315   2.802  -1.211  1.00  0.00    -0.370 N 
ATOM     46  H   UNL     1       0.081   2.919   1.170  1.00  0.00     0.159 HD
ATOM     47  H   UNL     1       0.990   1.538   1.621  1.00  0.00     0.159 HD
ATOM     48  H   UNL     1       0.364   2.633  -2.206  1.00  0.00     0.159 HD
ATOM     49  H   UNL     1       0.171   3.742  -0.888  1.00  0.00     0.159 HD
ENDBRANCH  41  42
ENDBRANCH  40  41
ENDBRANCH  39  40
ENDBRANCH  38  39
ENDBRANCH  36  38
ENDBRANCH   5  34
BRANCH   8  50
ATOM     50  O   UNL     1      -2.373   2.315   1.679  1.00  0.00    -0.245 OA
BRANCH  50  51
ATOM     51  S   UNL     1      -2.579   3.676   0.811  1.00  0.00     0.397 S 
ATOM     52  O   UNL     1      -1.346   4.428   0.861  1.00  0.00    -0.169 OA
ATOM     53  O   UNL     1      -3.851   4.280   1.149  1.00  0.00    -0.169 OA
BRANCH  51  54
ATOM     54  O   UNL     1      -2.684   3.105  -0.688  1.00  0.00    -0.264 OA
ATOM     55  H   UNL     1      -2.072   3.623  -1.248  1.00  0.00     0.236 HD
ENDBRANCH  51  54
ENDBRANCH  50  51
ENDBRANCH   8  50
TORSDOF 19
ENDMDL
MODEL 8
REMARK VINA RESULT:    -7.160      3.752      7.578
REMARK INTER + INTRA:         -18.995
REMARK INTER:                 -14.868
REMARK INTRA:                  -4.127
REMARK UNBOUND:                -4.511
REMARK SMILES CC[C@@H](C)[C@@H](NC(=O)[C@@H](O)Cc1ccc(O)c(Cl)c1)C(=O)N1[C@H](C(=O)NCCCCN=C(N)N)C[C@H]2CC[C@H](OS(=O)(=O)O)C[C@@H]21
REMARK SMILES IDX 22 1 36 2 46 3 35 4 23 5 45 6 37 7 39 8 38 9 20 10 21 11
REMARK SMILES IDX 5 12 6 13 7 14 8 15 9 17 11 18 12 19 17 20 19 21 15 22 14 23
REMARK SMILES IDX 13 24 18 25 16 26 10 28 3 30 4 31 2 32 1 33 24 34 25 35
REMARK SMILES IDX 26 36 27 38 28 39 29 40 30 41 31 42 32 43 33 44 34 45 40 50
REMARK SMILES IDX 41 51 42 52 43 53 44 54
REMARK H PARENT 6 16 16 27 10 29 26 37 33 46 33 47 34 48 34 49 44 55
ROOT
ATOM      1  N   UNL     1      -4.071   4.027   0.747  1.00  0.00    -0.326 N 
ATOM      2  C   UNL     1      -5.917   4.176  -0.706  1.00  0.00     0.014 C 
ATOM      3  C   UNL     1      -4.424   3.839  -0.663  1.00  0.00     0.091 C 
ATOM      4  C   UNL     1      -6.041   5.282   0.331  1.00  0.00     0.041 C 
ATOM      5  C   UNL     1      -5.189   4.687   1.467  1.00  0.00     0.175 C 
ATOM      6  C   UNL     1      -4.223   2.457  -1.282  1.00  0.00     0.059 C 
ATOM      7  C   UNL     1      -6.374   4.436  -2.128  1.00  0.00     0.008 C 
ATOM      8  C   UNL     1      -5.234   2.124  -2.400  1.00  0.00     0.143 C 
ATOM      9  C   UNL     1      -5.772   3.393  -3.093  1.00  0.00     0.034 C 
ENDROOT
BRANCH   1  10
ATOM     10  C   UNL     1      -2.849   3.886   1.382  1.00  0.00     0.246 C 
ATOM     11  O   UNL     1      -2.671   4.439   2.473  1.00  0.00    -0.272 OA
BRANCH  10  12
ATOM     12  C   UNL     1      -1.745   3.001   0.734  1.00  0.00     0.174 C 
BRANCH  12  13
ATOM     13  N   UNL     1      -1.286   1.995   1.690  1.00  0.00    -0.342 N 
ATOM     14  C   UNL     1      -1.983   0.859   2.037  1.00  0.00     0.249 C 
ATOM     15  O   UNL     1      -3.065   0.549   1.555  1.00  0.00    -0.272 OA
ATOM     16  H   UNL     1      -0.485   2.193   2.284  1.00  0.00     0.164 HD
BRANCH  14  17
ATOM     17  C   UNL     1      -1.242   0.003   3.086  1.00  0.00     0.207 C 
BRANCH  17  18
ATOM     18  C   UNL     1      -0.073   0.788   3.689  1.00  0.00     0.077 C 
BRANCH  18  19
ATOM     19  C   UNL     1      -0.307   1.114   5.147  1.00  0.00    -0.043 A 
ATOM     20  C   UNL     1       0.460   1.127   7.448  1.00  0.00     0.083 A 
ATOM     21  C   UNL     1       0.697   0.872   6.097  1.00  0.00     0.028 A 
ATOM     22  C   UNL     1      -0.778   1.623   7.858  1.00  0.00     0.134 A 
ATOM     23  C   UNL     1      -1.782   1.868   6.928  1.00  0.00     0.048 A 
ATOM     24  C   UNL     1      -1.548   1.612   5.575  1.00  0.00     0.008 A 
ATOM     25  Cl  UNL     1       1.706   0.822   8.601  1.00  0.00    -0.080 Cl
BRANCH  22  26
ATOM     26  O   UNL     1      -1.061   1.879   9.173  1.00  0.00    -0.506 OA
ATOM     27  H   UNL     1      -1.990   2.172   9.208  1.00  0.00     0.293 HD
ENDBRANCH  22  26
ENDBRANCH  18  19
ENDBRANCH  17  18
BRANCH  17  28
ATOM     28  O   UNL     1      -0.749  -1.215   2.506  1.00  0.00    -0.383 OA
ATOM     29  H   UNL     1       0.176  -1.028   2.226  1.00  0.00     0.211 HD
ENDBRANCH  17  28
ENDBRANCH  14  17
ENDBRANCH  12  13
BRANCH  12  30
ATOM     30  C   UNL     1      -0.576   3.837   0.146  1.00  0.00     0.018 C 
ATOM     31  C   UNL     1      -1.042   5.259  -0.202  1.00  0.00     0.010 C 
BRANCH  30  32
ATOM     32  C   UNL     1       0.099   3.182  -1.083  1.00  0.00     0.002 C 
ATOM     33  C   UNL     1      -0.698   2.067  -1.747  1.00  0.00     0.004 C 
ENDBRANCH  30  32
ENDBRANCH  12  30
ENDBRANCH  10  12
ENDBRANCH   1  10
BRANCH   5  34
ATOM     34  C   UNL     1      -5.991   3.654   2.302  1.00  0.00     0.242 C 
ATOM     35  O   UNL     1      -7.096   3.909   2.780  1.00  0.00    -0.273 OA
ATOM     36  N   UNL     1      -5.353   2.452   2.516  1.00  0.00    -0.354 N 
ATOM     37  H   UNL     1      -4.389   2.343   2.198  1.00  0.00     0.163 HD
BRANCH  36  38
ATOM     38  C   UNL     1      -6.033   1.306   3.084  1.00  0.00     0.116 C 
BRANCH  38  39
ATOM     39  C   UNL     1      -5.246   0.777   4.280  1.00  0.00     0.023 C 
BRANCH  39  40
ATOM     40  C   UNL     1      -6.026   0.886   5.586  1.00  0.00     0.026 C 
BRANCH  40  41
ATOM     41  C   UNL     1      -6.154   2.345   6.021  1.00  0.00     0.146 C 
BRANCH  41  42
ATOM     42  N   UNL     1      -4.899   3.044   5.774  1.00  0.00    -0.254 NA
ATOM     43  C   UNL     1      -4.909   4.306   5.561  1.00  0.00     0.185 C 
ATOM     44  N   UNL     1      -5.940   5.169   5.521  1.00  0.00    -0.370 N 
ATOM     45  N   UNL     1      -3.742   4.931   5.331  1.00  0.00    -0.370 N 
ATOM     46  H   UNL     1      -5.832   6.078   5.104  1.00  0.00     0.159 HD
ATOM     47  H   UNL     1      -6.895   4.867   5.687  1.00  0.00     0.159 HD
ATOM     48  H   UNL     1      -2.912   4.353   5.352  1.00  0.00     0.159 HD
ATOM     49  H   UNL     1      -3.637   5.928   5.392  1.00  0.00     0.159 HD
ENDBRANCH  41  42
ENDBRANCH  40  41
ENDBRANCH  39  40
ENDBRANCH  38  39
ENDBRANCH  36  38
ENDBRANCH   5  34
BRANCH   8  50
ATOM     50  O   UNL     1      -6.340   1.399  -1.861  1.00  0.00    -0.245 OA
BRANCH  50  51
ATOM     51  S   UNL     1      -6.915   0.102  -2.658  1.00  0.00     0.397 S 
ATOM     52  O   UNL     1      -7.823   0.573  -3.680  1.00  0.00    -0.169 OA
ATOM     53  O   UNL     1      -7.304  -0.919  -1.708  1.00  0.00    -0.169 OA
BRANCH  51  54
ATOM     54  O   UNL     1      -5.610  -0.418  -3.439  1.00  0.00    -0.264 OA
ATOM     55  H   UNL     1      -4.843   0.098  -3.116  1.00  0.00     0.236 HD
ENDBRANCH  51  54
ENDBRANCH  50  51
ENDBRANCH   8  50
TORSDOF 19
ENDMDL
MODEL 9
REMARK VINA RESULT:    -7.097      2.789      6.957
REMARK INTER + INTRA:         -18.869
REMARK INTER:                 -15.322
REMARK INTRA:                  -3.547
REMARK UNBOUND:                -4.511
REMARK SMILES CC[C@@H](C)[C@@H](NC(=O)[C@@H](O)Cc1ccc(O)c(Cl)c1)C(=O)N1[C@H](C(=O)NCCCCN=C(N)N)C[C@H]2CC[C@H](OS(=O)(=O)O)C[C@@H]21
REMARK SMILES IDX 22 1 36 2 46 3 35 4 23 5 45 6 37 7 39 8 38 9 20 10 21 11
REMARK SMILES IDX 5 12 6 13 7 14 8 15 9 17 11 18 12 19 17 20 19 21 15 22 14 23
REMARK SMILES IDX 13 24 18 25 16 26 10 28 3 30 4 31 2 32 1 33 24 34 25 35
REMARK SMILES IDX 26 36 27 38 28 39 29 40 30 41 31 42 32 43 33 44 34 45 40 50
REMARK SMILES IDX 41 51 42 52 43 53 44 54
REMARK H PARENT 6 16 16 27 10 29 26 37 33 46 33 47 34 48 34 49 44 55
ROOT
ATOM      1  N   UNL     1      -0.298  -0.383   3.466  1.00  0.00    -0.326 N 
ATOM      2  C   UNL     1      -1.051  -0.303   5.695  1.00  0.00     0.014 C 
ATOM      3  C   UNL     1       0.200  -0.152   4.825  1.00  0.00     0.091 C 
ATOM      4  C   UNL     1      -1.835  -1.386   4.970  1.00  0.00     0.041 C 
ATOM      5  C   UNL     1      -1.688  -0.900   3.516  1.00  0.00     0.175 C 
ATOM      6  C   UNL     1       0.848   1.195   5.140  1.00  0.00     0.059 C 
ATOM      7  C   UNL     1      -0.678  -0.504   7.151  1.00  0.00     0.008 C 
ATOM      8  C   UNL     1       0.655   1.650   6.603  1.00  0.00     0.143 C 
ATOM      9  C   UNL     1       0.457   0.458   7.560  1.00  0.00     0.034 C 
ENDROOT
BRANCH   1  10
ATOM     10  C   UNL     1       0.383  -0.394   2.261  1.00  0.00     0.246 C 
ATOM     11  O   UNL     1       0.568  -1.471   1.684  1.00  0.00    -0.272 OA
BRANCH  10  12
ATOM     12  C   UNL     1       0.863   0.950   1.639  1.00  0.00     0.174 C 
BRANCH  12  13
ATOM     13  N   UNL     1      -0.021   1.334   0.539  1.00  0.00    -0.342 N 
ATOM     14  C   UNL     1      -0.149   2.609   0.036  1.00  0.00     0.249 C 
ATOM     15  O   UNL     1       0.493   3.570   0.442  1.00  0.00    -0.272 OA
ATOM     16  H   UNL     1      -0.726   0.680   0.208  1.00  0.00     0.164 HD
BRANCH  14  17
ATOM     17  C   UNL     1      -1.176   2.696  -1.113  1.00  0.00     0.207 C 
BRANCH  17  18
ATOM     18  C   UNL     1      -1.797   4.095  -1.172  1.00  0.00     0.077 C 
BRANCH  18  19
ATOM     19  C   UNL     1      -2.910   4.258  -0.161  1.00  0.00    -0.043 A 
ATOM     20  C   UNL     1      -5.271   4.485   0.348  1.00  0.00     0.083 A 
ATOM     21  C   UNL     1      -4.249   4.284  -0.581  1.00  0.00     0.028 A 
ATOM     22  C   UNL     1      -4.963   4.662   1.698  1.00  0.00     0.134 A 
ATOM     23  C   UNL     1      -3.641   4.638   2.127  1.00  0.00     0.048 A 
ATOM     24  C   UNL     1      -2.616   4.439   1.199  1.00  0.00     0.008 A 
ATOM     25  Cl  UNL     1      -6.910   4.513  -0.186  1.00  0.00    -0.080 Cl
BRANCH  22  26
ATOM     26  O   UNL     1      -5.929   4.872   2.644  1.00  0.00    -0.506 OA
ATOM     27  H   UNL     1      -5.882   4.121   3.264  1.00  0.00     0.293 HD
ENDBRANCH  22  26
ENDBRANCH  18  19
ENDBRANCH  17  18
BRANCH  17  28
ATOM     28  O   UNL     1      -2.216   1.718  -0.952  1.00  0.00    -0.383 OA
ATOM     29  H   UNL     1      -1.763   0.849  -0.868  1.00  0.00     0.211 HD
ENDBRANCH  17  28
ENDBRANCH  14  17
ENDBRANCH  12  13
BRANCH  12  30
ATOM     30  C   UNL     1       2.356   0.916   1.216  1.00  0.00     0.018 C 
ATOM     31  C   UNL     1       2.583  -0.110   0.095  1.00  0.00     0.010 C 
BRANCH  30  32
ATOM     32  C   UNL     1       3.329   0.646   2.389  1.00  0.00     0.002 C 
ATOM     33  C   UNL     1       4.102  -0.664   2.305  1.00  0.00     0.004 C 
ENDBRANCH  30  32
ENDBRANCH  12  30
ENDBRANCH  10  12
ENDBRANCH   1  10
BRANCH   5  34
ATOM     34  C   UNL     1      -2.705   0.223   3.182  1.00  0.00     0.242 C 
ATOM     35  O   UNL     1      -2.385   1.238   2.563  1.00  0.00    -0.273 OA
ATOM     36  N   UNL     1      -3.976   0.027   3.674  1.00  0.00    -0.354 N 
ATOM     37  H   UNL     1      -4.150  -0.775   4.281  1.00  0.00     0.163 HD
BRANCH  36  38
ATOM     38  C   UNL     1      -5.095   0.859   3.279  1.00  0.00     0.116 C 
BRANCH  38  39
ATOM     39  C   UNL     1      -6.061   1.017   4.450  1.00  0.00     0.023 C 
BRANCH  39  40
ATOM     40  C   UNL     1      -5.368   0.878   5.801  1.00  0.00     0.026 C 
BRANCH  40  41
ATOM     41  C   UNL     1      -5.448   2.186   6.589  1.00  0.00     0.146 C 
BRANCH  41  42
ATOM     42  N   UNL     1      -4.422   3.107   6.119  1.00  0.00    -0.254 NA
ATOM     43  C   UNL     1      -4.755   4.281   5.731  1.00  0.00     0.185 C 
ATOM     44  N   UNL     1      -5.967   4.863   5.675  1.00  0.00    -0.370 N 
ATOM     45  N   UNL     1      -3.795   5.114   5.297  1.00  0.00    -0.370 N 
ATOM     46  H   UNL     1      -6.113   5.692   5.126  1.00  0.00     0.159 HD
ATOM     47  H   UNL     1      -6.806   4.378   5.979  1.00  0.00     0.159 HD
ATOM     48  H   UNL     1      -2.849   4.756   5.315  1.00  0.00     0.159 HD
ATOM     49  H   UNL     1      -3.935   6.105   5.206  1.00  0.00     0.159 HD
ENDBRANCH  41  42
ENDBRANCH  40  41
ENDBRANCH  39  40
ENDBRANCH  38  39
ENDBRANCH  36  38
ENDBRANCH   5  34
BRANCH   8  50
ATOM     50  O   UNL     1      -0.484   2.506   6.703  1.00  0.00    -0.245 OA
BRANCH  50  51
ATOM     51  S   UNL     1      -0.472   3.738   7.765  1.00  0.00     0.397 S 
ATOM     52  O   UNL     1      -1.563   4.626   7.431  1.00  0.00    -0.169 OA
ATOM     53  O   UNL     1       0.882   4.226   7.928  1.00  0.00    -0.169 OA
BRANCH  51  54
ATOM     54  O   UNL     1      -0.903   3.008   9.131  1.00  0.00    -0.264 OA
ATOM     55  H   UNL     1      -0.990   3.696   9.822  1.00  0.00     0.236 HD
ENDBRANCH  51  54
ENDBRANCH  50  51
ENDBRANCH   8  50
TORSDOF 19
ENDMDL
MODEL 10
REMARK VINA RESULT:    -7.012      4.018      7.790
REMARK INTER + INTRA:         -18.696
REMARK INTER:                 -15.302
REMARK INTRA:                  -3.395
REMARK UNBOUND:                -4.511
REMARK SMILES CC[C@@H](C)[C@@H](NC(=O)[C@@H](O)Cc1ccc(O)c(Cl)c1)C(=O)N1[C@H](C(=O)NCCCCN=C(N)N)C[C@H]2CC[C@H](OS(=O)(=O)O)C[C@@H]21
REMARK SMILES IDX 22 1 36 2 46 3 35 4 23 5 45 6 37 7 39 8 38 9 20 10 21 11
REMARK SMILES IDX 5 12 6 13 7 14 8 15 9 17 11 18 12 19 17 20 19 21 15 22 14 23
REMARK SMILES IDX 13 24 18 25 16 26 10 28 3 30 4 31 2 32 1 33 24 34 25 35
REMARK SMILES IDX 26 36 27 38 28 39 29 40 30 41 31 42 32 43 33 44 34 45 40 50
REMARK SMILES IDX 41 51 42 52 43 53 44 54
REMARK H PARENT 6 16 16 27 10 29 26 37 33 46 33 47 34 48 34 49 44 55
ROOT
ATOM      1  N   UNL     1      -1.033  -0.630   3.393  1.00  0.00    -0.326 N 
ATOM      2  C   UNL     1      -2.428  -0.506   5.284  1.00  0.00     0.014 C 
ATOM      3  C   UNL     1      -1.117  -1.111   4.775  1.00  0.00     0.091 C 
ATOM      4  C   UNL     1      -3.311  -0.528   4.046  1.00  0.00     0.041 C 
ATOM      5  C   UNL     1      -2.317  -0.003   2.994  1.00  0.00     0.175 C 
ATOM      6  C   UNL     1      -0.000  -0.728   5.744  1.00  0.00     0.059 C 
ATOM      7  C   UNL     1      -2.897  -1.208   6.543  1.00  0.00     0.008 C 
ATOM      8  C   UNL     1      -0.469  -0.588   7.209  1.00  0.00     0.143 C 
ATOM      9  C   UNL     1      -1.713  -1.451   7.504  1.00  0.00     0.034 C 
ENDROOT
BRANCH   1  10
ATOM     10  C   UNL     1      -0.070  -0.870   2.427  1.00  0.00     0.246 C 
ATOM     11  O   UNL     1       0.026  -2.002   1.941  1.00  0.00    -0.272 OA
BRANCH  10  12
ATOM     12  C   UNL     1       0.840   0.297   1.945  1.00  0.00     0.174 C 
BRANCH  12  13
ATOM     13  N   UNL     1       0.430   0.729   0.609  1.00  0.00    -0.342 N 
ATOM     14  C   UNL     1       0.251   2.038   0.222  1.00  0.00     0.249 C 
ATOM     15  O   UNL     1       0.445   2.999   0.957  1.00  0.00    -0.272 OA
ATOM     16  H   UNL     1       0.084   0.044  -0.058  1.00  0.00     0.164 HD
BRANCH  14  17
ATOM     17  C   UNL     1      -0.201   2.168  -1.248  1.00  0.00     0.207 C 
BRANCH  17  18
ATOM     18  C   UNL     1      -1.730   2.214  -1.336  1.00  0.00     0.077 C 
BRANCH  18  19
ATOM     19  C   UNL     1      -2.200   2.832  -2.634  1.00  0.00    -0.043 A 
ATOM     20  C   UNL     1      -3.634   2.778  -4.589  1.00  0.00     0.083 A 
ATOM     21  C   UNL     1      -3.236   2.234  -3.368  1.00  0.00     0.028 A 
ATOM     22  C   UNL     1      -3.000   3.918  -5.085  1.00  0.00     0.134 A 
ATOM     23  C   UNL     1      -1.973   4.520  -4.369  1.00  0.00     0.048 A 
ATOM     24  C   UNL     1      -1.571   3.977  -3.147  1.00  0.00     0.008 A 
ATOM     25  Cl  UNL     1      -4.909   2.029  -5.477  1.00  0.00    -0.080 Cl
BRANCH  22  26
ATOM     26  O   UNL     1      -3.348   4.481  -6.283  1.00  0.00    -0.506 OA
ATOM     27  H   UNL     1      -4.323   4.489  -6.317  1.00  0.00     0.293 HD
ENDBRANCH  22  26
ENDBRANCH  18  19
ENDBRANCH  17  18
BRANCH  17  28
ATOM     28  O   UNL     1       0.289   1.074  -2.039  1.00  0.00    -0.383 OA
ATOM     29  H   UNL     1       1.245   1.252  -2.187  1.00  0.00     0.211 HD
ENDBRANCH  17  28
ENDBRANCH  14  17
ENDBRANCH  12  13
BRANCH  12  30
ATOM     30  C   UNL     1       2.351  -0.051   2.017  1.00  0.00     0.018 C 
ATOM     31  C   UNL     1       3.152   1.114   2.620  1.00  0.00     0.010 C 
BRANCH  30  32
ATOM     32  C   UNL     1       2.959  -0.466   0.655  1.00  0.00     0.002 C 
ATOM     33  C   UNL     1       4.439  -0.149   0.479  1.00  0.00     0.004 C 
ENDBRANCH  30  32
ENDBRANCH  12  30
ENDBRANCH  10  12
ENDBRANCH   1  10
BRANCH   5  34
ATOM     34  C   UNL     1      -2.208   1.544   3.031  1.00  0.00     0.242 C 
ATOM     35  O   UNL     1      -1.457   2.133   3.809  1.00  0.00    -0.273 OA
ATOM     36  N   UNL     1      -3.051   2.212   2.170  1.00  0.00    -0.354 N 
ATOM     37  H   UNL     1      -3.735   1.674   1.637  1.00  0.00     0.163 HD
BRANCH  36  38
ATOM     38  C   UNL     1      -2.932   3.633   1.919  1.00  0.00     0.116 C 
BRANCH  38  39
ATOM     39  C   UNL     1      -4.296   4.209   1.548  1.00  0.00     0.023 C 
BRANCH  39  40
ATOM     40  C   UNL     1      -4.480   4.348   0.041  1.00  0.00     0.026 C 
BRANCH  40  41
ATOM     41  C   UNL     1      -5.765   3.657  -0.415  1.00  0.00     0.146 C 
BRANCH  41  42
ATOM     42  N   UNL     1      -5.535   2.224  -0.545  1.00  0.00    -0.254 NA
ATOM     43  C   UNL     1      -6.097   1.576  -1.494  1.00  0.00     0.185 C 
ATOM     44  N   UNL     1      -6.922   2.007  -2.466  1.00  0.00    -0.370 N 
ATOM     45  N   UNL     1      -5.875   0.255  -1.594  1.00  0.00    -0.370 N 
ATOM     46  H   UNL     1      -7.479   1.355  -2.992  1.00  0.00     0.159 HD
ATOM     47  H   UNL     1      -7.185   2.984  -2.548  1.00  0.00     0.159 HD
ATOM     48  H   UNL     1      -5.256  -0.149  -0.904  1.00  0.00     0.159 HD
ATOM     49  H   UNL     1      -6.078  -0.269  -2.427  1.00  0.00     0.159 HD
ENDBRANCH  41  42
ENDBRANCH  40  41
ENDBRANCH  39  40
ENDBRANCH  38  39
ENDBRANCH  36  38
ENDBRANCH   5  34
BRANCH   8  50
ATOM     50  O   UNL     1      -0.784   0.775   7.495  1.00  0.00    -0.245 OA
BRANCH  50  51
ATOM     51  S   UNL     1       0.215   1.651   8.432  1.00  0.00     0.397 S 
ATOM     52  O   UNL     1       0.194   3.015   7.955  1.00  0.00    -0.169 OA
ATOM     53  O   UNL     1       1.458   0.932   8.621  1.00  0.00    -0.169 OA
BRANCH  51  54
ATOM     54  O   UNL     1      -0.568   1.665   9.836  1.00  0.00    -0.264 OA
ATOM     55  H   UNL     1      -1.493   1.395   9.665  1.00  0.00     0.236 HD
ENDBRANCH  51  54
ENDBRANCH  50  51
ENDBRANCH   8  50
TORSDOF 19
ENDMDL
MODEL 11
REMARK VINA RESULT:    -6.965      2.905      6.192
REMARK INTER + INTRA:         -18.603
REMARK INTER:                 -14.212
REMARK INTRA:                  -4.391
REMARK UNBOUND:                -4.511
REMARK SMILES CC[C@@H](C)[C@@H](NC(=O)[C@@H](O)Cc1ccc(O)c(Cl)c1)C(=O)N1[C@H](C(=O)NCCCCN=C(N)N)C[C@H]2CC[C@H](OS(=O)(=O)O)C[C@@H]21
REMARK SMILES IDX 22 1 36 2 46 3 35 4 23 5 45 6 37 7 39 8 38 9 20 10 21 11
REMARK SMILES IDX 5 12 6 13 7 14 8 15 9 17 11 18 12 19 17 20 19 21 15 22 14 23
REMARK SMILES IDX 13 24 18 25 16 26 10 28 3 30 4 31 2 32 1 33 24 34 25 35
REMARK SMILES IDX 26 36 27 38 28 39 29 40 30 41 31 42 32 43 33 44 34 45 40 50
REMARK SMILES IDX 41 51 42 52 43 53 44 54
REMARK H PARENT 6 16 16 27 10 29 26 37 33 46 33 47 34 48 34 49 44 55
ROOT
ATOM      1  N   UNL     1      -3.817   0.209   5.318  1.00  0.00    -0.326 N 
ATOM      2  C   UNL     1      -1.594  -0.565   5.308  1.00  0.00     0.014 C 
ATOM      3  C   UNL     1      -2.904  -0.612   4.517  1.00  0.00     0.091 C 
ATOM      4  C   UNL     1      -2.075  -0.525   6.750  1.00  0.00     0.041 C 
ATOM      5  C   UNL     1      -3.202   0.516   6.633  1.00  0.00     0.175 C 
ATOM      6  C   UNL     1      -2.616  -0.182   3.080  1.00  0.00     0.059 C 
ATOM      7  C   UNL     1      -0.655  -1.671   4.868  1.00  0.00     0.008 C 
ATOM      8  C   UNL     1      -1.203  -0.564   2.588  1.00  0.00     0.143 C 
ATOM      9  C   UNL     1      -0.645  -1.796   3.329  1.00  0.00     0.034 C 
ENDROOT
BRANCH   1  10
ATOM     10  C   UNL     1      -5.151   0.515   5.108  1.00  0.00     0.246 C 
ATOM     11  O   UNL     1      -6.009  -0.018   5.821  1.00  0.00    -0.272 OA
BRANCH  10  12
ATOM     12  C   UNL     1      -5.538   1.552   4.014  1.00  0.00     0.174 C 
BRANCH  12  13
ATOM     13  N   UNL     1      -5.552   0.908   2.701  1.00  0.00    -0.342 N 
ATOM     14  C   UNL     1      -6.685   0.639   1.965  1.00  0.00     0.249 C 
ATOM     15  O   UNL     1      -7.817   0.939   2.323  1.00  0.00    -0.272 OA
ATOM     16  H   UNL     1      -4.708   0.465   2.348  1.00  0.00     0.164 HD
BRANCH  14  17
ATOM     17  C   UNL     1      -6.373  -0.063   0.627  1.00  0.00     0.207 C 
BRANCH  17  18
ATOM     18  C   UNL     1      -6.697   0.860  -0.552  1.00  0.00     0.077 C 
BRANCH  18  19
ATOM     19  C   UNL     1      -5.628   1.911  -0.752  1.00  0.00    -0.043 A 
ATOM     20  C   UNL     1      -4.990   4.176  -1.342  1.00  0.00     0.083 A 
ATOM     21  C   UNL     1      -5.981   3.222  -1.109  1.00  0.00     0.028 A 
ATOM     22  C   UNL     1      -3.644   3.829  -1.222  1.00  0.00     0.134 A 
ATOM     23  C   UNL     1      -3.280   2.534  -0.869  1.00  0.00     0.048 A 
ATOM     24  C   UNL     1      -4.270   1.576  -0.637  1.00  0.00     0.008 A 
ATOM     25  Cl  UNL     1      -5.444   5.781  -1.779  1.00  0.00    -0.080 Cl
BRANCH  22  26
ATOM     26  O   UNL     1      -2.637   4.727  -1.450  1.00  0.00    -0.506 OA
ATOM     27  H   UNL     1      -3.006   5.420  -2.028  1.00  0.00     0.293 HD
ENDBRANCH  22  26
ENDBRANCH  18  19
ENDBRANCH  17  18
BRANCH  17  28
ATOM     28  O   UNL     1      -7.121  -1.283   0.496  1.00  0.00    -0.383 OA
ATOM     29  H   UNL     1      -6.990  -1.584  -0.432  1.00  0.00     0.211 HD
ENDBRANCH  17  28
ENDBRANCH  14  17
ENDBRANCH  12  13
BRANCH  12  30
ATOM     30  C   UNL     1      -4.640   2.818   4.043  1.00  0.00     0.018 C 
ATOM     31  C   UNL     1      -5.335   3.963   4.797  1.00  0.00     0.010 C 
BRANCH  30  32
ATOM     32  C   UNL     1      -4.196   3.297   2.640  1.00  0.00     0.002 C 
ATOM     33  C   UNL     1      -4.599   4.721   2.280  1.00  0.00     0.004 C 
ENDBRANCH  30  32
ENDBRANCH  12  30
ENDBRANCH  10  12
ENDBRANCH   1  10
BRANCH   5  34
ATOM     34  C   UNL     1      -2.647   1.966   6.656  1.00  0.00     0.242 C 
ATOM     35  O   UNL     1      -2.052   2.457   5.697  1.00  0.00    -0.273 OA
ATOM     36  N   UNL     1      -2.821   2.641   7.843  1.00  0.00    -0.354 N 
ATOM     37  H   UNL     1      -3.214   2.140   8.640  1.00  0.00     0.163 HD
BRANCH  36  38
ATOM     38  C   UNL     1      -2.561   4.060   7.971  1.00  0.00     0.116 C 
BRANCH  38  39
ATOM     39  C   UNL     1      -1.285   4.283   8.778  1.00  0.00     0.023 C 
BRANCH  39  40
ATOM     40  C   UNL     1      -0.037   4.304   7.901  1.00  0.00     0.026 C 
BRANCH  40  41
ATOM     41  C   UNL     1       0.689   2.960   7.957  1.00  0.00     0.146 C 
BRANCH  41  42
ATOM     42  N   UNL     1       1.844   2.987   7.070  1.00  0.00    -0.254 NA
ATOM     43  C   UNL     1       1.771   2.431   5.919  1.00  0.00     0.185 C 
ATOM     44  N   UNL     1       0.748   1.781   5.335  1.00  0.00    -0.370 N 
ATOM     45  N   UNL     1       2.848   2.463   5.118  1.00  0.00    -0.370 N 
ATOM     46  H   UNL     1       0.905   1.188   4.538  1.00  0.00     0.159 HD
ATOM     47  H   UNL     1      -0.150   1.676   5.797  1.00  0.00     0.159 HD
ATOM     48  H   UNL     1       3.662   2.943   5.479  1.00  0.00     0.159 HD
ATOM     49  H   UNL     1       2.800   2.268   4.133  1.00  0.00     0.159 HD
ENDBRANCH  41  42
ENDBRANCH  40  41
ENDBRANCH  39  40
ENDBRANCH  38  39
ENDBRANCH  36  38
ENDBRANCH   5  34
BRANCH   8  50
ATOM     50  O   UNL     1      -0.304   0.528   2.784  1.00  0.00    -0.245 OA
BRANCH  50  51
ATOM     51  S   UNL     1       1.142   0.521   2.040  1.00  0.00     0.397 S 
ATOM     52  O   UNL     1       0.997  -0.188   0.789  1.00  0.00    -0.169 OA
ATOM     53  O   UNL     1       2.177   0.177   2.993  1.00  0.00    -0.169 OA
BRANCH  51  54
ATOM     54  O   UNL     1       1.324   2.070   1.647  1.00  0.00    -0.264 OA
ATOM     55  H   UNL     1       2.032   2.125   0.973  1.00  0.00     0.236 HD
ENDBRANCH  51  54
ENDBRANCH  50  51
ENDBRANCH   8  50
TORSDOF 19
ENDMDL
MODEL 12
REMARK VINA RESULT:    -6.951      3.477      7.400
REMARK INTER + INTRA:         -18.572
REMARK INTER:                 -14.448
REMARK INTRA:                  -4.124
REMARK UNBOUND:                -4.511
REMARK SMILES CC[C@@H](C)[C@@H](NC(=O)[C@@H](O)Cc1ccc(O)c(Cl)c1)C(=O)N1[C@H](C(=O)NCCCCN=C(N)N)C[C@H]2CC[C@H](OS(=O)(=O)O)C[C@@H]21
REMARK SMILES IDX 22 1 36 2 46 3 35 4 23 5 45 6 37 7 39 8 38 9 20 10 21 11
REMARK SMILES IDX 5 12 6 13 7 14 8 15 9 17 11 18 12 19 17 20 19 21 15 22 14 23
REMARK SMILES IDX 13 24 18 25 16 26 10 28 3 30 4 31 2 32 1 33 24 34 25 35
REMARK SMILES IDX 26 36 27 38 28 39 29 40 30 41 31 42 32 43 33 44 34 45 40 50
REMARK SMILES IDX 41 51 42 52 43 53 44 54
REMARK H PARENT 6 16 16 27 10 29 26 37 33 46 33 47 34 48 34 49 44 55
ROOT
ATOM      1  N   UNL     1      -1.137  -0.129   3.901  1.00  0.00    -0.326 N 
ATOM      2  C   UNL     1      -1.875  -0.009   6.133  1.00  0.00     0.014 C 
ATOM      3  C   UNL     1      -0.627   0.109   5.254  1.00  0.00     0.091 C 
ATOM      4  C   UNL     1      -2.682  -1.087   5.425  1.00  0.00     0.041 C 
ATOM      5  C   UNL     1      -2.535  -0.622   3.965  1.00  0.00     0.175 C 
ATOM      6  C   UNL     1       0.046   1.449   5.549  1.00  0.00     0.059 C 
ATOM      7  C   UNL     1      -1.497  -0.200   7.589  1.00  0.00     0.008 C 
ATOM      8  C   UNL     1      -0.131   1.925   7.008  1.00  0.00     0.143 C 
ATOM      9  C   UNL     1      -0.343   0.747   7.980  1.00  0.00     0.034 C 
ENDROOT
BRANCH   1  10
ATOM     10  C   UNL     1      -0.463  -0.166   2.692  1.00  0.00     0.246 C 
ATOM     11  O   UNL     1      -0.277  -1.255   2.140  1.00  0.00    -0.272 OA
BRANCH  10  12
ATOM     12  C   UNL     1       0.006   1.165   2.035  1.00  0.00     0.174 C 
BRANCH  12  13
ATOM     13  N   UNL     1      -0.826   1.467   0.872  1.00  0.00    -0.342 N 
ATOM     14  C   UNL     1      -1.061   2.730   0.375  1.00  0.00     0.249 C 
ATOM     15  O   UNL     1      -0.569   3.749   0.843  1.00  0.00    -0.272 OA
ATOM     16  H   UNL     1      -1.422   0.744   0.477  1.00  0.00     0.164 HD
BRANCH  14  17
ATOM     17  C   UNL     1      -1.996   2.722  -0.853  1.00  0.00     0.207 C 
BRANCH  17  18
ATOM     18  C   UNL     1      -3.447   2.493  -0.419  1.00  0.00     0.077 C 
BRANCH  18  19
ATOM     19  C   UNL     1      -4.421   3.265  -1.282  1.00  0.00    -0.043 A 
ATOM     20  C   UNL     1      -5.987   3.340  -3.133  1.00  0.00     0.083 A 
ATOM     21  C   UNL     1      -5.128   2.615  -2.306  1.00  0.00     0.028 A 
ATOM     22  C   UNL     1      -6.145   4.713  -2.944  1.00  0.00     0.134 A 
ATOM     23  C   UNL     1      -5.451   5.369  -1.933  1.00  0.00     0.048 A 
ATOM     24  C   UNL     1      -4.588   4.647  -1.106  1.00  0.00     0.008 A 
ATOM     25  Cl  UNL     1      -6.847   2.524  -4.385  1.00  0.00    -0.080 Cl
BRANCH  22  26
ATOM     26  O   UNL     1      -6.968   5.467  -3.735  1.00  0.00    -0.506 OA
ATOM     27  H   UNL     1      -7.597   5.915  -3.139  1.00  0.00     0.293 HD
ENDBRANCH  22  26
ENDBRANCH  18  19
ENDBRANCH  17  18
BRANCH  17  28
ATOM     28  O   UNL     1      -1.612   1.703  -1.790  1.00  0.00    -0.383 OA
ATOM     29  H   UNL     1      -1.605   0.858  -1.284  1.00  0.00     0.211 HD
ENDBRANCH  17  28
ENDBRANCH  14  17
ENDBRANCH  12  13
BRANCH  12  30
ATOM     30  C   UNL     1       1.521   1.164   1.696  1.00  0.00     0.018 C 
ATOM     31  C   UNL     1       1.782   0.452   0.360  1.00  0.00     0.010 C 
BRANCH  30  32
ATOM     32  C   UNL     1       2.407   0.550   2.808  1.00  0.00     0.002 C 
ATOM     33  C   UNL     1       3.247  -0.647   2.383  1.00  0.00     0.004 C 
ENDBRANCH  30  32
ENDBRANCH  12  30
ENDBRANCH  10  12
ENDBRANCH   1  10
BRANCH   5  34
ATOM     34  C   UNL     1      -3.535   0.515   3.623  1.00  0.00     0.242 C 
ATOM     35  O   UNL     1      -3.166   1.614   3.209  1.00  0.00    -0.273 OA
ATOM     36  N   UNL     1      -4.858   0.224   3.868  1.00  0.00    -0.354 N 
ATOM     37  H   UNL     1      -5.091  -0.659   4.324  1.00  0.00     0.163 HD
BRANCH  36  38
ATOM     38  C   UNL     1      -5.935   1.078   3.411  1.00  0.00     0.116 C 
BRANCH  38  39
ATOM     39  C   UNL     1      -6.883   1.383   4.569  1.00  0.00     0.023 C 
BRANCH  39  40
ATOM     40  C   UNL     1      -6.352   0.875   5.905  1.00  0.00     0.026 C 
BRANCH  40  41
ATOM     41  C   UNL     1      -5.849   2.035   6.765  1.00  0.00     0.146 C 
BRANCH  41  42
ATOM     42  N   UNL     1      -4.585   2.529   6.235  1.00  0.00    -0.254 NA
ATOM     43  C   UNL     1      -4.513   3.723   5.778  1.00  0.00     0.185 C 
ATOM     44  N   UNL     1      -5.461   4.674   5.692  1.00  0.00    -0.370 N 
ATOM     45  N   UNL     1      -3.340   4.158   5.290  1.00  0.00    -0.370 N 
ATOM     46  H   UNL     1      -5.333   5.472   5.093  1.00  0.00     0.159 HD
ATOM     47  H   UNL     1      -6.406   4.518   6.028  1.00  0.00     0.159 HD
ATOM     48  H   UNL     1      -2.570   3.504   5.325  1.00  0.00     0.159 HD
ATOM     49  H   UNL     1      -3.141   5.130   5.138  1.00  0.00     0.159 HD
ENDBRANCH  41  42
ENDBRANCH  40  41
ENDBRANCH  39  40
ENDBRANCH  38  39
ENDBRANCH  36  38
ENDBRANCH   5  34
BRANCH   8  50
ATOM     50  O   UNL     1      -1.254   2.801   7.104  1.00  0.00    -0.245 OA
BRANCH  50  51
ATOM     51  S   UNL     1      -1.256   3.984   8.221  1.00  0.00     0.397 S 
ATOM     52  O   UNL     1      -1.865   3.462   9.423  1.00  0.00    -0.169 OA
ATOM     53  O   UNL     1      -1.706   5.221   7.617  1.00  0.00    -0.169 OA
BRANCH  51  54
ATOM     54  O   UNL     1       0.310   4.135   8.553  1.00  0.00    -0.264 OA
ATOM     55  H   UNL     1       0.793   3.470   8.021  1.00  0.00     0.236 HD
ENDBRANCH  51  54
ENDBRANCH  50  51
ENDBRANCH   8  50
TORSDOF 19
ENDMDL
MODEL 13
REMARK VINA RESULT:    -6.949      2.321      5.371
REMARK INTER + INTRA:         -18.569
REMARK INTER:                 -15.049
REMARK INTRA:                  -3.520
REMARK UNBOUND:                -4.511
REMARK SMILES CC[C@@H](C)[C@@H](NC(=O)[C@@H](O)Cc1ccc(O)c(Cl)c1)C(=O)N1[C@H](C(=O)NCCCCN=C(N)N)C[C@H]2CC[C@H](OS(=O)(=O)O)C[C@@H]21
REMARK SMILES IDX 22 1 36 2 46 3 35 4 23 5 45 6 37 7 39 8 38 9 20 10 21 11
REMARK SMILES IDX 5 12 6 13 7 14 8 15 9 17 11 18 12 19 17 20 19 21 15 22 14 23
REMARK SMILES IDX 13 24 18 25 16 26 10 28 3 30 4 31 2 32 1 33 24 34 25 35
REMARK SMILES IDX 26 36 27 38 28 39 29 40 30 41 31 42 32 43 33 44 34 45 40 50
REMARK SMILES IDX 41 51 42 52 43 53 44 54
REMARK H PARENT 6 16 16 27 10 29 26 37 33 46 33 47 34 48 34 49 44 55
ROOT
ATOM      1  N   UNL     1      -4.045   3.112   2.286  1.00  0.00    -0.326 N 
ATOM      2  C   UNL     1      -3.840   1.859   0.304  1.00  0.00     0.014 C 
ATOM      3  C   UNL     1      -4.050   3.282   0.830  1.00  0.00     0.091 C 
ATOM      4  C   UNL     1      -4.582   1.011   1.325  1.00  0.00     0.041 C 
ATOM      5  C   UNL     1      -4.098   1.670   2.630  1.00  0.00     0.175 C 
ATOM      6  C   UNL     1      -2.994   4.190   0.203  1.00  0.00     0.059 C 
ATOM      7  C   UNL     1      -4.220   1.762  -1.161  1.00  0.00     0.008 C 
ATOM      8  C   UNL     1      -2.573   3.762  -1.220  1.00  0.00     0.143 C 
ATOM      9  C   UNL     1      -3.688   2.980  -1.944  1.00  0.00     0.034 C 
ENDROOT
BRANCH   1  10
ATOM     10  C   UNL     1      -4.210   4.052   3.290  1.00  0.00     0.246 C 
ATOM     11  O   UNL     1      -3.553   5.097   3.249  1.00  0.00    -0.272 OA
BRANCH  10  12
ATOM     12  C   UNL     1      -5.248   3.791   4.420  1.00  0.00     0.174 C 
BRANCH  12  13
ATOM     13  N   UNL     1      -4.630   3.020   5.497  1.00  0.00    -0.342 N 
ATOM     14  C   UNL     1      -3.706   3.513   6.392  1.00  0.00     0.249 C 
ATOM     15  O   UNL     1      -3.317   4.674   6.400  1.00  0.00    -0.272 OA
ATOM     16  H   UNL     1      -4.735   2.009   5.518  1.00  0.00     0.164 HD
BRANCH  14  17
ATOM     17  C   UNL     1      -3.227   2.447   7.401  1.00  0.00     0.207 C 
BRANCH  17  18
ATOM     18  C   UNL     1      -2.361   1.396   6.698  1.00  0.00     0.077 C 
BRANCH  18  19
ATOM     19  C   UNL     1      -0.902   1.530   7.072  1.00  0.00    -0.043 A 
ATOM     20  C   UNL     1       1.385   2.060   6.460  1.00  0.00     0.083 A 
ATOM     21  C   UNL     1       0.032   1.985   6.128  1.00  0.00     0.028 A 
ATOM     22  C   UNL     1       1.813   1.680   7.733  1.00  0.00     0.134 A 
ATOM     23  C   UNL     1       0.900   1.228   8.677  1.00  0.00     0.048 A 
ATOM     24  C   UNL     1      -0.455   1.150   8.347  1.00  0.00     0.008 A 
ATOM     25  Cl  UNL     1       2.517   2.622   5.287  1.00  0.00    -0.080 Cl
BRANCH  22  26
ATOM     26  O   UNL     1       3.131   1.727   8.101  1.00  0.00    -0.506 OA
ATOM     27  H   UNL     1       3.625   2.067   7.332  1.00  0.00     0.293 HD
ENDBRANCH  22  26
ENDBRANCH  18  19
ENDBRANCH  17  18
BRANCH  17  28
ATOM     28  O   UNL     1      -4.340   1.800   8.037  1.00  0.00    -0.383 OA
ATOM     29  H   UNL     1      -4.055   0.873   8.206  1.00  0.00     0.211 HD
ENDBRANCH  17  28
ENDBRANCH  14  17
ENDBRANCH  12  13
BRANCH  12  30
ATOM     30  C   UNL     1      -6.554   3.135   3.896  1.00  0.00     0.018 C 
ATOM     31  C   UNL     1      -7.302   4.086   2.948  1.00  0.00     0.010 C 
BRANCH  30  32
ATOM     32  C   UNL     1      -7.501   2.651   5.021  1.00  0.00     0.002 C 
ATOM     33  C   UNL     1      -8.508   3.683   5.513  1.00  0.00     0.004 C 
ENDBRANCH  30  32
ENDBRANCH  12  30
ENDBRANCH  10  12
ENDBRANCH   1  10
BRANCH   5  34
ATOM     34  C   UNL     1      -2.695   1.151   3.046  1.00  0.00     0.242 C 
ATOM     35  O   UNL     1      -1.717   1.894   3.129  1.00  0.00    -0.273 OA
ATOM     36  N   UNL     1      -2.613  -0.206   3.261  1.00  0.00    -0.354 N 
ATOM     37  H   UNL     1      -3.429  -0.786   3.060  1.00  0.00     0.163 HD
BRANCH  36  38
ATOM     38  C   UNL     1      -1.448  -0.825   3.859  1.00  0.00     0.116 C 
BRANCH  38  39
ATOM     39  C   UNL     1      -0.388  -1.076   2.789  1.00  0.00     0.023 C 
BRANCH  39  40
ATOM     40  C   UNL     1       0.939  -1.537   3.381  1.00  0.00     0.026 C 
BRANCH  40  41
ATOM     41  C   UNL     1       2.109  -0.808   2.720  1.00  0.00     0.146 C 
BRANCH  41  42
ATOM     42  N   UNL     1       1.778   0.600   2.547  1.00  0.00    -0.254 NA
ATOM     43  C   UNL     1       1.912   1.145   1.396  1.00  0.00     0.185 C 
ATOM     44  N   UNL     1       2.333   0.618   0.232  1.00  0.00    -0.370 N 
ATOM     45  N   UNL     1       1.605   2.446   1.258  1.00  0.00    -0.370 N 
ATOM     46  H   UNL     1       2.621   1.212  -0.526  1.00  0.00     0.159 HD
ATOM     47  H   UNL     1       2.594  -0.360   0.154  1.00  0.00     0.159 HD
ATOM     48  H   UNL     1       1.270   2.918   2.087  1.00  0.00     0.159 HD
ATOM     49  H   UNL     1       1.456   2.878   0.364  1.00  0.00     0.159 HD
ENDBRANCH  41  42
ENDBRANCH  40  41
ENDBRANCH  39  40
ENDBRANCH  38  39
ENDBRANCH  36  38
ENDBRANCH   5  34
BRANCH   8  50
ATOM     50  O   UNL     1      -1.407   2.939  -1.160  1.00  0.00    -0.245 OA
BRANCH  50  51
ATOM     51  S   UNL     1      -0.002   3.493  -1.763  1.00  0.00     0.397 S 
ATOM     52  O   UNL     1      -0.302   4.309  -2.918  1.00  0.00    -0.169 OA
ATOM     53  O   UNL     1       0.959   2.411  -1.826  1.00  0.00    -0.169 OA
BRANCH  51  54
ATOM     54  O   UNL     1       0.476   4.515  -0.617  1.00  0.00    -0.264 OA
ATOM     55  H   UNL     1      -0.322   4.957  -0.261  1.00  0.00     0.236 HD
ENDBRANCH  51  54
ENDBRANCH  50  51
ENDBRANCH   8  50
TORSDOF 19
ENDMDL
MODEL 14
REMARK VINA RESULT:    -6.922      3.516      6.547
REMARK INTER + INTRA:         -18.514
REMARK INTER:                 -13.821
REMARK INTRA:                  -4.693
REMARK UNBOUND:                -4.511
REMARK SMILES CC[C@@H](C)[C@@H](NC(=O)[C@@H](O)Cc1ccc(O)c(Cl)c1)C(=O)N1[C@H](C(=O)NCCCCN=C(N)N)C[C@H]2CC[C@H](OS(=O)(=O)O)C[C@@H]21
REMARK SMILES IDX 22 1 36 2 46 3 35 4 23 5 45 6 37 7 39 8 38 9 20 10 21 11
REMARK SMILES IDX 5 12 6 13 7 14 8 15 9 17 11 18 12 19 17 20 19 21 15 22 14 23
REMARK SMILES IDX 13 24 18 25 16 26 10 28 3 30 4 31 2 32 1 33 24 34 25 35
REMARK SMILES IDX 26 36 27 38 28 39 29 40 30 41 31 42 32 43 33 44 34 45 40 50
REMARK SMILES IDX 41 51 42 52 43 53 44 54
REMARK H PARENT 6 16 16 27 10 29 26 37 33 46 33 47 34 48 34 49 44 55
ROOT
ATOM      1  N   UNL     1      -3.823   2.831   3.480  1.00  0.00    -0.326 N 
ATOM      2  C   UNL     1      -4.649   1.498   1.725  1.00  0.00     0.014 C 
ATOM      3  C   UNL     1      -5.007   2.052   3.107  1.00  0.00     0.091 C 
ATOM      4  C   UNL     1      -3.152   1.256   1.838  1.00  0.00     0.041 C 
ATOM      5  C   UNL     1      -2.717   2.561   2.528  1.00  0.00     0.175 C 
ATOM      6  C   UNL     1      -6.348   2.776   3.004  1.00  0.00     0.059 C 
ATOM      7  C   UNL     1      -5.562   0.347   1.349  1.00  0.00     0.008 C 
ATOM      8  C   UNL     1      -7.304   2.169   1.955  1.00  0.00     0.143 C 
ATOM      9  C   UNL     1      -7.026   0.671   1.716  1.00  0.00     0.034 C 
ENDROOT
BRANCH   1  10
ATOM     10  C   UNL     1      -3.560   3.547   4.635  1.00  0.00     0.246 C 
ATOM     11  O   UNL     1      -3.665   4.778   4.616  1.00  0.00    -0.272 OA
BRANCH  10  12
ATOM     12  C   UNL     1      -3.180   2.787   5.939  1.00  0.00     0.174 C 
BRANCH  12  13
ATOM     13  N   UNL     1      -1.793   2.331   5.865  1.00  0.00    -0.342 N 
ATOM     14  C   UNL     1      -0.799   2.675   6.753  1.00  0.00     0.249 C 
ATOM     15  O   UNL     1      -0.977   3.389   7.733  1.00  0.00    -0.272 OA
ATOM     16  H   UNL     1      -1.461   1.863   5.025  1.00  0.00     0.164 HD
BRANCH  14  17
ATOM     17  C   UNL     1       0.564   2.046   6.395  1.00  0.00     0.207 C 
BRANCH  17  18
ATOM     18  C   UNL     1       0.448   0.520   6.324  1.00  0.00     0.077 C 
BRANCH  18  19
ATOM     19  C   UNL     1       0.569   0.013   4.905  1.00  0.00    -0.043 A 
ATOM     20  C   UNL     1       1.213   0.366   2.593  1.00  0.00     0.083 A 
ATOM     21  C   UNL     1       1.148   0.818   3.912  1.00  0.00     0.028 A 
ATOM     22  C   UNL     1       0.701  -0.888   2.259  1.00  0.00     0.134 A 
ATOM     23  C   UNL     1       0.125  -1.696   3.233  1.00  0.00     0.048 A 
ATOM     24  C   UNL     1       0.057  -1.246   4.553  1.00  0.00     0.008 A 
ATOM     25  Cl  UNL     1       1.928   1.370   1.387  1.00  0.00    -0.080 Cl
BRANCH  22  26
ATOM     26  O   UNL     1       0.732  -1.370   0.978  1.00  0.00    -0.506 OA
ATOM     27  H   UNL     1       0.055  -2.070   0.925  1.00  0.00     0.293 HD
ENDBRANCH  22  26
ENDBRANCH  18  19
ENDBRANCH  17  18
BRANCH  17  28
ATOM     28  O   UNL     1       1.568   2.404   7.358  1.00  0.00    -0.383 OA
ATOM     29  H   UNL     1       2.428   2.120   6.973  1.00  0.00     0.211 HD
ENDBRANCH  17  28
ENDBRANCH  14  17
ENDBRANCH  12  13
BRANCH  12  30
ATOM     30  C   UNL     1      -4.166   1.635   6.270  1.00  0.00     0.018 C 
ATOM     31  C   UNL     1      -4.947   1.936   7.559  1.00  0.00     0.010 C 
BRANCH  30  32
ATOM     32  C   UNL     1      -3.488   0.247   6.371  1.00  0.00     0.002 C 
ATOM     33  C   UNL     1      -3.588  -0.620   5.123  1.00  0.00     0.004 C 
ENDBRANCH  30  32
ENDBRANCH  12  30
ENDBRANCH  10  12
ENDBRANCH   1  10
BRANCH   5  34
ATOM     34  C   UNL     1      -2.570   3.725   1.512  1.00  0.00     0.242 C 
ATOM     35  O   UNL     1      -3.505   4.474   1.229  1.00  0.00    -0.273 OA
ATOM     36  N   UNL     1      -1.335   3.824   0.910  1.00  0.00    -0.354 N 
ATOM     37  H   UNL     1      -0.638   3.101   1.095  1.00  0.00     0.163 HD
BRANCH  36  38
ATOM     38  C   UNL     1      -0.957   4.968   0.106  1.00  0.00     0.116 C 
BRANCH  38  39
ATOM     39  C   UNL     1      -0.386   4.497  -1.229  1.00  0.00     0.023 C 
BRANCH  39  40
ATOM     40  C   UNL     1      -1.280   4.864  -2.408  1.00  0.00     0.026 C 
BRANCH  40  41
ATOM     41  C   UNL     1      -2.440   3.877  -2.537  1.00  0.00     0.146 C 
BRANCH  41  42
ATOM     42  N   UNL     1      -3.634   4.576  -2.993  1.00  0.00    -0.254 NA
ATOM     43  C   UNL     1      -4.729   4.448  -2.343  1.00  0.00     0.185 C 
ATOM     44  N   UNL     1      -4.999   3.736  -1.233  1.00  0.00    -0.370 N 
ATOM     45  N   UNL     1      -5.820   5.098  -2.782  1.00  0.00    -0.370 N 
ATOM     46  H   UNL     1      -5.949   3.532  -0.974  1.00  0.00     0.159 HD
ATOM     47  H   UNL     1      -4.283   3.194  -0.760  1.00  0.00     0.159 HD
ATOM     48  H   UNL     1      -5.701   5.666  -3.609  1.00  0.00     0.159 HD
ATOM     49  H   UNL     1      -6.634   5.241  -2.211  1.00  0.00     0.159 HD
ENDBRANCH  41  42
ENDBRANCH  40  41
ENDBRANCH  39  40
ENDBRANCH  38  39
ENDBRANCH  36  38
ENDBRANCH   5  34
BRANCH   8  50
ATOM     50  O   UNL     1      -7.169   2.859   0.712  1.00  0.00    -0.245 OA
BRANCH  50  51
ATOM     51  S   UNL     1      -8.432   3.693   0.116  1.00  0.00     0.397 S 
ATOM     52  O   UNL     1      -8.062   4.189  -1.191  1.00  0.00    -0.169 OA
ATOM     53  O   UNL     1      -8.962   4.569   1.139  1.00  0.00    -0.169 OA
BRANCH  51  54
ATOM     54  O   UNL     1      -9.509   2.529  -0.147  1.00  0.00    -0.264 OA
ATOM     55  H   UNL     1      -9.055   1.670  -0.026  1.00  0.00     0.236 HD
ENDBRANCH  51  54
ENDBRANCH  50  51
ENDBRANCH   8  50
TORSDOF 19
ENDMDL
MODEL 15
REMARK VINA RESULT:    -6.906      4.046      6.163
REMARK INTER + INTRA:         -18.482
REMARK INTER:                 -15.188
REMARK INTRA:                  -3.294
REMARK UNBOUND:                -4.511
REMARK SMILES CC[C@@H](C)[C@@H](NC(=O)[C@@H](O)Cc1ccc(O)c(Cl)c1)C(=O)N1[C@H](C(=O)NCCCCN=C(N)N)C[C@H]2CC[C@H](OS(=O)(=O)O)C[C@@H]21
REMARK SMILES IDX 22 1 36 2 46 3 35 4 23 5 45 6 37 7 39 8 38 9 20 10 21 11
REMARK SMILES IDX 5 12 6 13 7 14 8 15 9 17 11 18 12 19 17 20 19 21 15 22 14 23
REMARK SMILES IDX 13 24 18 25 16 26 10 28 3 30 4 31 2 32 1 33 24 34 25 35
REMARK SMILES IDX 26 36 27 38 28 39 29 40 30 41 31 42 32 43 33 44 34 45 40 50
REMARK SMILES IDX 41 51 42 52 43 53 44 54
REMARK H PARENT 6 16 16 27 10 29 26 37 33 46 33 47 34 48 34 49 44 55
ROOT
ATOM      1  N   UNL     1      -1.278   0.835   6.938  1.00  0.00    -0.326 N 
ATOM      2  C   UNL     1      -1.806  -0.661   5.198  1.00  0.00     0.014 C 
ATOM      3  C   UNL     1      -1.328   0.767   5.474  1.00  0.00     0.091 C 
ATOM      4  C   UNL     1      -2.759  -0.925   6.355  1.00  0.00     0.041 C 
ATOM      5  C   UNL     1      -1.929  -0.363   7.524  1.00  0.00     0.175 C 
ATOM      6  C   UNL     1      -0.037   1.004   4.694  1.00  0.00     0.059 C 
ATOM      7  C   UNL     1      -2.310  -0.799   3.775  1.00  0.00     0.008 C 
ATOM      8  C   UNL     1       0.036   0.224   3.363  1.00  0.00     0.143 C 
ATOM      9  C   UNL     1      -1.363  -0.079   2.791  1.00  0.00     0.034 C 
ENDROOT
BRANCH   1  10
ATOM     10  C   UNL     1      -0.934   1.889   7.766  1.00  0.00     0.246 C 
ATOM     11  O   UNL     1       0.253   2.054   8.067  1.00  0.00    -0.272 OA
BRANCH  10  12
ATOM     12  C   UNL     1      -2.038   2.866   8.265  1.00  0.00     0.174 C 
BRANCH  12  13
ATOM     13  N   UNL     1      -2.942   3.200   7.165  1.00  0.00    -0.342 N 
ATOM     14  C   UNL     1      -4.242   2.760   7.049  1.00  0.00     0.249 C 
ATOM     15  O   UNL     1      -4.800   2.055   7.881  1.00  0.00    -0.272 OA
ATOM     16  H   UNL     1      -2.574   3.645   6.328  1.00  0.00     0.164 HD
BRANCH  14  17
ATOM     17  C   UNL     1      -4.931   3.271   5.766  1.00  0.00     0.207 C 
BRANCH  17  18
ATOM     18  C   UNL     1      -3.914   3.955   4.847  1.00  0.00     0.077 C 
BRANCH  18  19
ATOM     19  C   UNL     1      -3.862   3.304   3.483  1.00  0.00    -0.043 A 
ATOM     20  C   UNL     1      -4.618   1.591   1.941  1.00  0.00     0.083 A 
ATOM     21  C   UNL     1      -4.703   2.220   3.183  1.00  0.00     0.028 A 
ATOM     22  C   UNL     1      -3.695   2.037   0.994  1.00  0.00     0.134 A 
ATOM     23  C   UNL     1      -2.857   3.109   1.277  1.00  0.00     0.048 A 
ATOM     24  C   UNL     1      -2.939   3.740   2.521  1.00  0.00     0.008 A 
ATOM     25  Cl  UNL     1      -5.658   0.261   1.591  1.00  0.00    -0.080 Cl
BRANCH  22  26
ATOM     26  O   UNL     1      -3.568   1.445  -0.234  1.00  0.00    -0.506 OA
ATOM     27  H   UNL     1      -2.650   1.124  -0.296  1.00  0.00     0.293 HD
ENDBRANCH  22  26
ENDBRANCH  18  19
ENDBRANCH  17  18
BRANCH  17  28
ATOM     28  O   UNL     1      -5.987   4.194   6.078  1.00  0.00    -0.383 OA
ATOM     29  H   UNL     1      -6.718   3.993   5.451  1.00  0.00     0.211 HD
ENDBRANCH  17  28
ENDBRANCH  14  17
ENDBRANCH  12  13
BRANCH  12  30
ATOM     30  C   UNL     1      -1.455   4.128   8.956  1.00  0.00     0.018 C 
ATOM     31  C   UNL     1      -2.484   4.752   9.911  1.00  0.00     0.010 C 
BRANCH  30  32
ATOM     32  C   UNL     1      -0.934   5.196   7.964  1.00  0.00     0.002 C 
ATOM     33  C   UNL     1       0.389   5.847   8.343  1.00  0.00     0.004 C 
ENDBRANCH  30  32
ENDBRANCH  12  30
ENDBRANCH  10  12
ENDBRANCH   1  10
BRANCH   5  34
ATOM     34  C   UNL     1      -0.867  -1.382   8.014  1.00  0.00     0.242 C 
ATOM     35  O   UNL     1       0.275  -1.044   8.326  1.00  0.00    -0.273 OA
ATOM     36  N   UNL     1      -1.276  -2.697   8.023  1.00  0.00    -0.354 N 
ATOM     37  H   UNL     1      -2.194  -2.928   7.639  1.00  0.00     0.163 HD
BRANCH  36  38
ATOM     38  C   UNL     1      -0.497  -3.745   8.647  1.00  0.00     0.116 C 
BRANCH  38  39
ATOM     39  C   UNL     1      -1.422  -4.856   9.138  1.00  0.00     0.023 C 
BRANCH  39  40
ATOM     40  C   UNL     1      -0.723  -6.209   9.207  1.00  0.00     0.026 C 
BRANCH  40  41
ATOM     41  C   UNL     1       0.411  -6.182  10.232  1.00  0.00     0.146 C 
BRANCH  41  42
ATOM     42  N   UNL     1       1.390  -7.212   9.911  1.00  0.00    -0.254 NA
ATOM     43  C   UNL     1       2.496  -7.256  10.554  1.00  0.00     0.185 C 
ATOM     44  N   UNL     1       2.953  -6.470  11.546  1.00  0.00    -0.370 N 
ATOM     45  N   UNL     1       3.388  -8.211  10.240  1.00  0.00    -0.370 N 
ATOM     46  H   UNL     1       3.929  -6.465  11.788  1.00  0.00     0.159 HD
ATOM     47  H   UNL     1       2.399  -5.704  11.917  1.00  0.00     0.159 HD
ATOM     48  H   UNL     1       3.118  -8.853   9.507  1.00  0.00     0.159 HD
ATOM     49  H   UNL     1       4.154  -8.458  10.840  1.00  0.00     0.159 HD
ENDBRANCH  41  42
ENDBRANCH  40  41
ENDBRANCH  39  40
ENDBRANCH  38  39
ENDBRANCH  36  38
ENDBRANCH   5  34
BRANCH   8  50
ATOM     50  O   UNL     1       0.725  -1.012   3.556  1.00  0.00    -0.245 OA
BRANCH  50  51
ATOM     51  S   UNL     1       2.041  -1.346   2.661  1.00  0.00     0.397 S 
ATOM     52  O   UNL     1       1.700  -1.141   1.271  1.00  0.00    -0.169 OA
ATOM     53  O   UNL     1       2.641  -2.581   3.121  1.00  0.00    -0.169 OA
BRANCH  51  54
ATOM     54  O   UNL     1       3.029  -0.139   3.053  1.00  0.00    -0.264 OA
ATOM     55  H   UNL     1       2.659   0.304   3.843  1.00  0.00     0.236 HD
ENDBRANCH  51  54
ENDBRANCH  50  51
ENDBRANCH   8  50
TORSDOF 19
ENDMDL
MODEL 16
REMARK VINA RESULT:    -6.896      3.458      7.691
REMARK INTER + INTRA:         -18.462
REMARK INTER:                 -14.775
REMARK INTRA:                  -3.687
REMARK UNBOUND:                -4.511
REMARK SMILES CC[C@@H](C)[C@@H](NC(=O)[C@@H](O)Cc1ccc(O)c(Cl)c1)C(=O)N1[C@H](C(=O)NCCCCN=C(N)N)C[C@H]2CC[C@H](OS(=O)(=O)O)C[C@@H]21
REMARK SMILES IDX 22 1 36 2 46 3 35 4 23 5 45 6 37 7 39 8 38 9 20 10 21 11
REMARK SMILES IDX 5 12 6 13 7 14 8 15 9 17 11 18 12 19 17 20 19 21 15 22 14 23
REMARK SMILES IDX 13 24 18 25 16 26 10 28 3 30 4 31 2 32 1 33 24 34 25 35
REMARK SMILES IDX 26 36 27 38 28 39 29 40 30 41 31 42 32 43 33 44 34 45 40 50
REMARK SMILES IDX 41 51 42 52 43 53 44 54
REMARK H PARENT 6 16 16 27 10 29 26 37 33 46 33 47 34 48 34 49 44 55
ROOT
ATOM      1  N   UNL     1      -0.001  -0.555   3.192  1.00  0.00    -0.326 N 
ATOM      2  C   UNL     1      -0.931  -0.538   5.355  1.00  0.00     0.014 C 
ATOM      3  C   UNL     1       0.380  -0.335   4.590  1.00  0.00     0.091 C 
ATOM      4  C   UNL     1      -1.622  -1.628   4.552  1.00  0.00     0.041 C 
ATOM      5  C   UNL     1      -1.375  -1.112   3.122  1.00  0.00     0.175 C 
ATOM      6  C   UNL     1       0.961   1.024   4.978  1.00  0.00     0.059 C 
ATOM      7  C   UNL     1      -0.669  -0.755   6.832  1.00  0.00     0.008 C 
ATOM      8  C   UNL     1       0.639   1.446   6.427  1.00  0.00     0.143 C 
ATOM      9  C   UNL     1       0.401   0.231   7.346  1.00  0.00     0.034 C 
ENDROOT
BRANCH   1  10
ATOM     10  C   UNL     1       0.773  -0.524   2.045  1.00  0.00     0.246 C 
ATOM     11  O   UNL     1       0.991  -1.578   1.437  1.00  0.00    -0.272 OA
BRANCH  10  12
ATOM     12  C   UNL     1       1.317   0.838   1.523  1.00  0.00     0.174 C 
BRANCH  12  13
ATOM     13  N   UNL     1       0.688   1.169   0.245  1.00  0.00    -0.342 N 
ATOM     14  C   UNL     1      -0.058   2.300   0.001  1.00  0.00     0.249 C 
ATOM     15  O   UNL     1      -0.257   3.178   0.831  1.00  0.00    -0.272 OA
ATOM     16  H   UNL     1       0.635   0.465  -0.487  1.00  0.00     0.164 HD
BRANCH  14  17
ATOM     17  C   UNL     1      -0.602   2.354  -1.443  1.00  0.00     0.207 C 
BRANCH  17  18
ATOM     18  C   UNL     1      -2.122   2.547  -1.435  1.00  0.00     0.077 C 
BRANCH  18  19
ATOM     19  C   UNL     1      -2.664   2.796  -2.825  1.00  0.00    -0.043 A 
ATOM     20  C   UNL     1      -4.174   2.207  -4.630  1.00  0.00     0.083 A 
ATOM     21  C   UNL     1      -3.710   2.007  -3.329  1.00  0.00     0.028 A 
ATOM     22  C   UNL     1      -3.597   3.192  -5.433  1.00  0.00     0.134 A 
ATOM     23  C   UNL     1      -2.562   3.980  -4.946  1.00  0.00     0.048 A 
ATOM     24  C   UNL     1      -2.094   3.781  -3.645  1.00  0.00     0.008 A 
ATOM     25  Cl  UNL     1      -5.459   1.227  -5.232  1.00  0.00    -0.080 Cl
BRANCH  22  26
ATOM     26  O   UNL     1      -4.012   3.417  -6.718  1.00  0.00    -0.506 OA
ATOM     27  H   UNL     1      -4.964   3.210  -6.746  1.00  0.00     0.293 HD
ENDBRANCH  22  26
ENDBRANCH  18  19
ENDBRANCH  17  18
BRANCH  17  28
ATOM     28  O   UNL     1      -0.278   1.154  -2.163  1.00  0.00    -0.383 OA
ATOM     29  H   UNL     1      -0.052   1.439  -3.077  1.00  0.00     0.211 HD
ENDBRANCH  17  28
ENDBRANCH  14  17
ENDBRANCH  12  13
BRANCH  12  30
ATOM     30  C   UNL     1       2.867   0.876   1.449  1.00  0.00     0.018 C 
ATOM     31  C   UNL     1       3.369   0.194   0.167  1.00  0.00     0.010 C 
BRANCH  30  32
ATOM     32  C   UNL     1       3.564   0.262   2.687  1.00  0.00     0.002 C 
ATOM     33  C   UNL     1       4.554  -0.856   2.388  1.00  0.00     0.004 C 
ENDBRANCH  30  32
ENDBRANCH  12  30
ENDBRANCH  10  12
ENDBRANCH   1  10
BRANCH   5  34
ATOM     34  C   UNL     1      -2.395  -0.012   2.726  1.00  0.00     0.242 C 
ATOM     35  O   UNL     1      -2.134   1.188   2.809  1.00  0.00    -0.273 OA
ATOM     36  N   UNL     1      -3.630  -0.474   2.328  1.00  0.00    -0.354 N 
ATOM     37  H   UNL     1      -3.825  -1.474   2.395  1.00  0.00     0.163 HD
BRANCH  36  38
ATOM     38  C   UNL     1      -4.621   0.391   1.724  1.00  0.00     0.116 C 
BRANCH  38  39
ATOM     39  C   UNL     1      -5.708   0.725   2.743  1.00  0.00     0.023 C 
BRANCH  39  40
ATOM     40  C   UNL     1      -5.869   2.227   2.952  1.00  0.00     0.026 C 
BRANCH  40  41
ATOM     41  C   UNL     1      -5.955   2.562   4.441  1.00  0.00     0.146 C 
BRANCH  41  42
ATOM     42  N   UNL     1      -4.984   1.766   5.181  1.00  0.00    -0.254 NA
ATOM     43  C   UNL     1      -4.414   2.263   6.214  1.00  0.00     0.185 C 
ATOM     44  N   UNL     1      -4.557   3.474   6.783  1.00  0.00    -0.370 N 
ATOM     45  N   UNL     1      -3.519   1.515   6.879  1.00  0.00    -0.370 N 
ATOM     46  H   UNL     1      -3.874   3.818   7.436  1.00  0.00     0.159 HD
ATOM     47  H   UNL     1      -5.206   4.163   6.414  1.00  0.00     0.159 HD
ATOM     48  H   UNL     1      -3.357   0.584   6.521  1.00  0.00     0.159 HD
ATOM     49  H   UNL     1      -3.213   1.734   7.811  1.00  0.00     0.159 HD
ENDBRANCH  41  42
ENDBRANCH  40  41
ENDBRANCH  39  40
ENDBRANCH  38  39
ENDBRANCH  36  38
ENDBRANCH   5  34
BRANCH   8  50
ATOM     50  O   UNL     1      -0.530   2.267   6.450  1.00  0.00    -0.245 OA
BRANCH  50  51
ATOM     51  S   UNL     1      -0.694   3.397   7.609  1.00  0.00     0.397 S 
ATOM     52  O   UNL     1      -1.725   4.320   7.189  1.00  0.00    -0.169 OA
ATOM     53  O   UNL     1       0.613   3.857   8.028  1.00  0.00    -0.169 OA
BRANCH  51  54
ATOM     54  O   UNL     1      -1.332   2.549   8.817  1.00  0.00    -0.264 OA
ATOM     55  H   UNL     1      -1.262   1.600   8.585  1.00  0.00     0.236 HD
ENDBRANCH  51  54
ENDBRANCH  50  51
ENDBRANCH   8  50
TORSDOF 19
ENDMDL
MODEL 17
REMARK VINA RESULT:    -6.807      3.149      6.659
REMARK INTER + INTRA:         -18.282
REMARK INTER:                 -14.258
REMARK INTRA:                  -4.024
REMARK UNBOUND:                -4.511
REMARK SMILES CC[C@@H](C)[C@@H](NC(=O)[C@@H](O)Cc1ccc(O)c(Cl)c1)C(=O)N1[C@H](C(=O)NCCCCN=C(N)N)C[C@H]2CC[C@H](OS(=O)(=O)O)C[C@@H]21
REMARK SMILES IDX 22 1 36 2 46 3 35 4 23 5 45 6 37 7 39 8 38 9 20 10 21 11
REMARK SMILES IDX 5 12 6 13 7 14 8 15 9 17 11 18 12 19 17 20 19 21 15 22 14 23
REMARK SMILES IDX 13 24 18 25 16 26 10 28 3 30 4 31 2 32 1 33 24 34 25 35
REMARK SMILES IDX 26 36 27 38 28 39 29 40 30 41 31 42 32 43 33 44 34 45 40 50
REMARK SMILES IDX 41 51 42 52 43 53 44 54
REMARK H PARENT 6 16 16 27 10 29 26 37 33 46 33 47 34 48 34 49 44 55
ROOT
ATOM      1  N   UNL     1      -4.032   0.501   4.848  1.00  0.00    -0.326 N 
ATOM      2  C   UNL     1      -1.981  -0.269   5.710  1.00  0.00     0.014 C 
ATOM      3  C   UNL     1      -3.005  -0.515   4.599  1.00  0.00     0.091 C 
ATOM      4  C   UNL     1      -2.852   0.165   6.879  1.00  0.00     0.041 C 
ATOM      5  C   UNL     1      -3.798   1.147   6.163  1.00  0.00     0.175 C 
ATOM      6  C   UNL     1      -2.276  -0.495   3.256  1.00  0.00     0.059 C 
ATOM      7  C   UNL     1      -1.059  -1.462   5.872  1.00  0.00     0.008 C 
ATOM      8  C   UNL     1      -0.822  -1.009   3.331  1.00  0.00     0.143 C 
ATOM      9  C   UNL     1      -0.617  -1.999   4.495  1.00  0.00     0.034 C 
ENDROOT
BRANCH   1  10
ATOM     10  C   UNL     1      -5.215   0.751   4.174  1.00  0.00     0.246 C 
ATOM     11  O   UNL     1      -6.288   0.614   4.771  1.00  0.00    -0.272 OA
BRANCH  10  12
ATOM     12  C   UNL     1      -5.168   1.239   2.697  1.00  0.00     0.174 C 
BRANCH  12  13
ATOM     13  N   UNL     1      -4.029   2.135   2.504  1.00  0.00    -0.342 N 
ATOM     14  C   UNL     1      -3.169   2.102   1.429  1.00  0.00     0.249 C 
ATOM     15  O   UNL     1      -3.283   1.324   0.489  1.00  0.00    -0.272 OA
ATOM     16  H   UNL     1      -3.717   2.726   3.271  1.00  0.00     0.164 HD
BRANCH  14  17
ATOM     17  C   UNL     1      -2.055   3.166   1.523  1.00  0.00     0.207 C 
BRANCH  17  18
ATOM     18  C   UNL     1      -2.569   4.523   1.033  1.00  0.00     0.077 C 
BRANCH  18  19
ATOM     19  C   UNL     1      -3.283   4.409  -0.295  1.00  0.00    -0.043 A 
ATOM     20  C   UNL     1      -3.210   4.144  -2.705  1.00  0.00     0.083 A 
ATOM     21  C   UNL     1      -2.553   4.200  -1.476  1.00  0.00     0.028 A 
ATOM     22  C   UNL     1      -4.596   4.296  -2.764  1.00  0.00     0.134 A 
ATOM     23  C   UNL     1      -5.331   4.504  -1.603  1.00  0.00     0.048 A 
ATOM     24  C   UNL     1      -4.676   4.562  -0.371  1.00  0.00     0.008 A 
ATOM     25  Cl  UNL     1      -2.296   3.887  -4.145  1.00  0.00    -0.080 Cl
BRANCH  22  26
ATOM     26  O   UNL     1      -5.283   4.259  -3.947  1.00  0.00    -0.506 OA
ATOM     27  H   UNL     1      -5.904   5.011  -3.934  1.00  0.00     0.293 HD
ENDBRANCH  22  26
ENDBRANCH  18  19
ENDBRANCH  17  18
BRANCH  17  28
ATOM     28  O   UNL     1      -0.907   2.783   0.748  1.00  0.00    -0.383 OA
ATOM     29  H   UNL     1      -0.989   1.813   0.603  1.00  0.00     0.211 HD
ENDBRANCH  17  28
ENDBRANCH  14  17
ENDBRANCH  12  13
BRANCH  12  30
ATOM     30  C   UNL     1      -6.506   1.873   2.231  1.00  0.00     0.018 C 
ATOM     31  C   UNL     1      -6.758   1.587   0.743  1.00  0.00     0.010 C 
BRANCH  30  32
ATOM     32  C   UNL     1      -6.601   3.394   2.505  1.00  0.00     0.002 C 
ATOM     33  C   UNL     1      -7.675   4.131   1.715  1.00  0.00     0.004 C 
ENDBRANCH  30  32
ENDBRANCH  12  30
ENDBRANCH  10  12
ENDBRANCH   1  10
BRANCH   5  34
ATOM     34  C   UNL     1      -3.144   2.542   5.982  1.00  0.00     0.242 C 
ATOM     35  O   UNL     1      -2.802   2.970   4.880  1.00  0.00    -0.273 OA
ATOM     36  N   UNL     1      -2.925   3.243   7.147  1.00  0.00    -0.354 N 
ATOM     37  H   UNL     1      -3.120   2.786   8.039  1.00  0.00     0.163 HD
BRANCH  36  38
ATOM     38  C   UNL     1      -2.528   4.635   7.149  1.00  0.00     0.116 C 
BRANCH  38  39
ATOM     39  C   UNL     1      -1.599   4.907   8.330  1.00  0.00     0.023 C 
BRANCH  39  40
ATOM     40  C   UNL     1      -0.184   5.266   7.888  1.00  0.00     0.026 C 
BRANCH  40  41
ATOM     41  C   UNL     1       0.772   4.098   8.126  1.00  0.00     0.146 C 
BRANCH  41  42
ATOM     42  N   UNL     1       0.563   3.076   7.109  1.00  0.00    -0.254 NA
ATOM     43  C   UNL     1       1.482   2.214   6.879  1.00  0.00     0.185 C 
ATOM     44  N   UNL     1       2.693   2.068   7.446  1.00  0.00    -0.370 N 
ATOM     45  N   UNL     1       1.272   1.283   5.934  1.00  0.00    -0.370 N 
ATOM     46  H   UNL     1       3.402   1.509   7.004  1.00  0.00     0.159 HD
ATOM     47  H   UNL     1       3.010   2.682   8.191  1.00  0.00     0.159 HD
ATOM     48  H   UNL     1       0.378   1.317   5.462  1.00  0.00     0.159 HD
ATOM     49  H   UNL     1       1.825   0.448   5.860  1.00  0.00     0.159 HD
ENDBRANCH  41  42
ENDBRANCH  40  41
ENDBRANCH  39  40
ENDBRANCH  38  39
ENDBRANCH  36  38
ENDBRANCH   5  34
BRANCH   8  50
ATOM     50  O   UNL     1       0.077   0.087   3.504  1.00  0.00    -0.245 OA
BRANCH  50  51
ATOM     51  S   UNL     1       1.196   0.395   2.364  1.00  0.00     0.397 S 
ATOM     52  O   UNL     1       2.243  -0.594   2.487  1.00  0.00    -0.169 OA
ATOM     53  O   UNL     1       1.489   1.813   2.342  1.00  0.00    -0.169 OA
BRANCH  51  54
ATOM     54  O   UNL     1       0.406   0.031   1.011  1.00  0.00    -0.264 OA
ATOM     55  H   UNL     1      -0.552   0.107   1.196  1.00  0.00     0.236 HD
ENDBRANCH  51  54
ENDBRANCH  50  51
ENDBRANCH   8  50
TORSDOF 19
ENDMDL
MODEL 18
REMARK VINA RESULT:    -6.794      2.827      5.626
REMARK INTER + INTRA:         -18.256
REMARK INTER:                 -14.683
REMARK INTRA:                  -3.573
REMARK UNBOUND:                -4.511
REMARK SMILES CC[C@@H](C)[C@@H](NC(=O)[C@@H](O)Cc1ccc(O)c(Cl)c1)C(=O)N1[C@H](C(=O)NCCCCN=C(N)N)C[C@H]2CC[C@H](OS(=O)(=O)O)C[C@@H]21
REMARK SMILES IDX 22 1 36 2 46 3 35 4 23 5 45 6 37 7 39 8 38 9 20 10 21 11
REMARK SMILES IDX 5 12 6 13 7 14 8 15 9 17 11 18 12 19 17 20 19 21 15 22 14 23
REMARK SMILES IDX 13 24 18 25 16 26 10 28 3 30 4 31 2 32 1 33 24 34 25 35
REMARK SMILES IDX 26 36 27 38 28 39 29 40 30 41 31 42 32 43 33 44 34 45 40 50
REMARK SMILES IDX 41 51 42 52 43 53 44 54
REMARK H PARENT 6 16 16 27 10 29 26 37 33 46 33 47 34 48 34 49 44 55
ROOT
ATOM      1  N   UNL     1      -4.221   2.862   1.875  1.00  0.00    -0.326 N 
ATOM      2  C   UNL     1      -4.896   1.965  -0.195  1.00  0.00     0.014 C 
ATOM      3  C   UNL     1      -4.698   3.286   0.555  1.00  0.00     0.091 C 
ATOM      4  C   UNL     1      -5.363   1.023   0.904  1.00  0.00     0.041 C 
ATOM      5  C   UNL     1      -4.369   1.393   2.021  1.00  0.00     0.175 C 
ATOM      6  C   UNL     1      -3.797   4.188  -0.286  1.00  0.00     0.059 C 
ATOM      7  C   UNL     1      -5.763   2.163  -1.422  1.00  0.00     0.008 C 
ATOM      8  C   UNL     1      -3.956   3.981  -1.808  1.00  0.00     0.143 C 
ATOM      9  C   UNL     1      -5.354   3.446  -2.177  1.00  0.00     0.034 C 
ENDROOT
BRANCH   1  10
ATOM     10  C   UNL     1      -3.892   3.621   2.985  1.00  0.00     0.246 C 
ATOM     11  O   UNL     1      -2.803   4.204   3.013  1.00  0.00    -0.272 OA
BRANCH  10  12
ATOM     12  C   UNL     1      -4.914   3.757   4.151  1.00  0.00     0.174 C 
BRANCH  12  13
ATOM     13  N   UNL     1      -4.434   3.025   5.323  1.00  0.00    -0.342 N 
ATOM     14  C   UNL     1      -3.572   3.530   6.271  1.00  0.00     0.249 C 
ATOM     15  O   UNL     1      -3.129   4.671   6.252  1.00  0.00    -0.272 OA
ATOM     16  H   UNL     1      -4.590   2.023   5.389  1.00  0.00     0.164 HD
BRANCH  14  17
ATOM     17  C   UNL     1      -3.239   2.506   7.377  1.00  0.00     0.207 C 
BRANCH  17  18
ATOM     18  C   UNL     1      -3.639   1.094   6.938  1.00  0.00     0.077 C 
BRANCH  18  19
ATOM     19  C   UNL     1      -2.558   0.082   7.248  1.00  0.00    -0.043 A 
ATOM     20  C   UNL     1      -0.315  -0.429   8.017  1.00  0.00     0.083 A 
ATOM     21  C   UNL     1      -1.328   0.500   7.779  1.00  0.00     0.028 A 
ATOM     22  C   UNL     1      -0.523  -1.778   7.726  1.00  0.00     0.134 A 
ATOM     23  C   UNL     1      -1.736  -2.206   7.200  1.00  0.00     0.048 A 
ATOM     24  C   UNL     1      -2.751  -1.277   6.959  1.00  0.00     0.008 A 
ATOM     25  Cl  UNL     1       1.190   0.104   8.669  1.00  0.00    -0.080 Cl
BRANCH  22  26
ATOM     26  O   UNL     1       0.444  -2.725   7.933  1.00  0.00    -0.506 OA
ATOM     27  H   UNL     1       0.250  -3.461   7.324  1.00  0.00     0.293 HD
ENDBRANCH  22  26
ENDBRANCH  18  19
ENDBRANCH  17  18
BRANCH  17  28
ATOM     28  O   UNL     1      -3.913   2.832   8.604  1.00  0.00    -0.383 OA
ATOM     29  H   UNL     1      -3.223   3.192   9.206  1.00  0.00     0.211 HD
ENDBRANCH  17  28
ENDBRANCH  14  17
ENDBRANCH  12  13
BRANCH  12  30
ATOM     30  C   UNL     1      -6.352   3.341   3.740  1.00  0.00     0.018 C 
ATOM     31  C   UNL     1      -7.110   4.527   3.125  1.00  0.00     0.010 C 
BRANCH  30  32
ATOM     32  C   UNL     1      -7.175   2.726   4.898  1.00  0.00     0.002 C 
ATOM     33  C   UNL     1      -7.543   1.258   4.729  1.00  0.00     0.004 C 
ENDBRANCH  30  32
ENDBRANCH  12  30
ENDBRANCH  10  12
ENDBRANCH   1  10
BRANCH   5  34
ATOM     34  C   UNL     1      -3.003   0.681   1.830  1.00  0.00     0.242 C 
ATOM     35  O   UNL     1      -2.175   1.057   1.000  1.00  0.00    -0.273 OA
ATOM     36  N   UNL     1      -2.808  -0.432   2.616  1.00  0.00    -0.354 N 
ATOM     37  H   UNL     1      -3.579  -0.764   3.198  1.00  0.00     0.163 HD
BRANCH  36  38
ATOM     38  C   UNL     1      -1.520  -1.086   2.726  1.00  0.00     0.116 C 
BRANCH  38  39
ATOM     39  C   UNL     1      -0.844  -0.684   4.034  1.00  0.00     0.023 C 
BRANCH  39  40
ATOM     40  C   UNL     1      -0.150   0.671   3.939  1.00  0.00     0.026 C 
BRANCH  40  41
ATOM     41  C   UNL     1       0.946   0.644   2.873  1.00  0.00     0.146 C 
BRANCH  41  42
ATOM     42  N   UNL     1       0.855   1.839   2.044  1.00  0.00    -0.254 NA
ATOM     43  C   UNL     1       1.199   1.782   0.812  1.00  0.00     0.185 C 
ATOM     44  N   UNL     1       1.662   0.746   0.089  1.00  0.00    -0.370 N 
ATOM     45  N   UNL     1       1.112   2.896   0.065  1.00  0.00    -0.370 N 
ATOM     46  H   UNL     1       2.121   0.899  -0.792  1.00  0.00     0.159 HD
ATOM     47  H   UNL     1       1.777  -0.178   0.495  1.00  0.00     0.159 HD
ATOM     48  H   UNL     1       0.763   3.722   0.532  1.00  0.00     0.159 HD
ATOM     49  H   UNL     1       1.133   2.880  -0.939  1.00  0.00     0.159 HD
ENDBRANCH  41  42
ENDBRANCH  40  41
ENDBRANCH  39  40
ENDBRANCH  38  39
ENDBRANCH  36  38
ENDBRANCH   5  34
BRANCH   8  50
ATOM     50  O   UNL     1      -2.977   3.056  -2.282  1.00  0.00    -0.245 OA
BRANCH  50  51
ATOM     51  S   UNL     1      -1.429   3.532  -2.433  1.00  0.00     0.397 S 
ATOM     52  O   UNL     1      -0.596   2.350  -2.431  1.00  0.00    -0.169 OA
ATOM     53  O   UNL     1      -1.173   4.644  -1.542  1.00  0.00    -0.169 OA
BRANCH  51  54
ATOM     54  O   UNL     1      -1.395   4.088  -3.942  1.00  0.00    -0.264 OA
ATOM     55  H   UNL     1      -1.810   4.975  -3.942  1.00  0.00     0.236 HD
ENDBRANCH  51  54
ENDBRANCH  50  51
ENDBRANCH   8  50
TORSDOF 19
ENDMDL
MODEL 19
REMARK VINA RESULT:    -6.794      3.138      6.635
REMARK INTER + INTRA:         -18.255
REMARK INTER:                 -14.822
REMARK INTRA:                  -3.433
REMARK UNBOUND:                -4.511
REMARK SMILES CC[C@@H](C)[C@@H](NC(=O)[C@@H](O)Cc1ccc(O)c(Cl)c1)C(=O)N1[C@H](C(=O)NCCCCN=C(N)N)C[C@H]2CC[C@H](OS(=O)(=O)O)C[C@@H]21
REMARK SMILES IDX 22 1 36 2 46 3 35 4 23 5 45 6 37 7 39 8 38 9 20 10 21 11
REMARK SMILES IDX 5 12 6 13 7 14 8 15 9 17 11 18 12 19 17 20 19 21 15 22 14 23
REMARK SMILES IDX 13 24 18 25 16 26 10 28 3 30 4 31 2 32 1 33 24 34 25 35
REMARK SMILES IDX 26 36 27 38 28 39 29 40 30 41 31 42 32 43 33 44 34 45 40 50
REMARK SMILES IDX 41 51 42 52 43 53 44 54
REMARK H PARENT 6 16 16 27 10 29 26 37 33 46 33 47 34 48 34 49 44 55
ROOT
ATOM      1  N   UNL     1      -2.694   0.788   5.449  1.00  0.00    -0.326 N 
ATOM      2  C   UNL     1      -1.023  -0.844   5.150  1.00  0.00     0.014 C 
ATOM      3  C   UNL     1      -2.004   0.051   4.386  1.00  0.00     0.091 C 
ATOM      4  C   UNL     1      -1.796  -1.184   6.415  1.00  0.00     0.041 C 
ATOM      5  C   UNL     1      -2.360   0.204   6.771  1.00  0.00     0.175 C 
ATOM      6  C   UNL     1      -1.221   0.846   3.344  1.00  0.00     0.059 C 
ATOM      7  C   UNL     1      -0.512  -1.965   4.267  1.00  0.00     0.008 C 
ATOM      8  C   UNL     1       0.006   0.095   2.782  1.00  0.00     0.143 C 
ATOM      9  C   UNL     1      -0.166  -1.435   2.860  1.00  0.00     0.034 C 
ENDROOT
BRANCH   1  10
ATOM     10  C   UNL     1      -3.704   1.730   5.363  1.00  0.00     0.246 C 
ATOM     11  O   UNL     1      -3.590   2.793   5.984  1.00  0.00    -0.272 OA
BRANCH  10  12
ATOM     12  C   UNL     1      -4.938   1.452   4.457  1.00  0.00     0.174 C 
BRANCH  12  13
ATOM     13  N   UNL     1      -4.703   1.988   3.116  1.00  0.00    -0.342 N 
ATOM     14  C   UNL     1      -4.569   1.229   1.975  1.00  0.00     0.249 C 
ATOM     15  O   UNL     1      -4.661   0.008   1.952  1.00  0.00    -0.272 OA
ATOM     16  H   UNL     1      -4.450   2.966   3.002  1.00  0.00     0.164 HD
BRANCH  14  17
ATOM     17  C   UNL     1      -4.311   2.087   0.717  1.00  0.00     0.207 C 
BRANCH  17  18
ATOM     18  C   UNL     1      -3.674   3.426   1.104  1.00  0.00     0.077 C 
BRANCH  18  19
ATOM     19  C   UNL     1      -2.355   3.645   0.399  1.00  0.00    -0.043 A 
ATOM     20  C   UNL     1      -0.494   2.782  -0.897  1.00  0.00     0.083 A 
ATOM     21  C   UNL     1      -1.735   2.590  -0.289  1.00  0.00     0.028 A 
ATOM     22  C   UNL     1       0.136   4.025  -0.820  1.00  0.00     0.134 A 
ATOM     23  C   UNL     1      -0.466   5.079  -0.142  1.00  0.00     0.048 A 
ATOM     24  C   UNL     1      -1.708   4.889   0.469  1.00  0.00     0.008 A 
ATOM     25  Cl  UNL     1       0.251   1.474  -1.737  1.00  0.00    -0.080 Cl
BRANCH  22  26
ATOM     26  O   UNL     1       1.358   4.259  -1.390  1.00  0.00    -0.506 OA
ATOM     27  H   UNL     1       1.424   3.668  -2.163  1.00  0.00     0.293 HD
ENDBRANCH  22  26
ENDBRANCH  18  19
ENDBRANCH  17  18
BRANCH  17  28
ATOM     28  O   UNL     1      -5.530   2.328  -0.003  1.00  0.00    -0.383 OA
ATOM     29  H   UNL     1      -6.226   2.467   0.678  1.00  0.00     0.211 HD
ENDBRANCH  17  28
ENDBRANCH  14  17
ENDBRANCH  12  13
BRANCH  12  30
ATOM     30  C   UNL     1      -6.266   1.967   5.076  1.00  0.00     0.018 C 
ATOM     31  C   UNL     1      -7.421   1.001   4.770  1.00  0.00     0.010 C 
BRANCH  30  32
ATOM     32  C   UNL     1      -6.641   3.403   4.635  1.00  0.00     0.002 C 
ATOM     33  C   UNL     1      -7.883   3.511   3.760  1.00  0.00     0.004 C 
ENDBRANCH  30  32
ENDBRANCH  12  30
ENDBRANCH  10  12
ENDBRANCH   1  10
BRANCH   5  34
ATOM     34  C   UNL     1      -1.308   1.077   7.508  1.00  0.00     0.242 C 
ATOM     35  O   UNL     1      -1.519   1.563   8.619  1.00  0.00    -0.273 OA
ATOM     36  N   UNL     1      -0.147   1.311   6.807  1.00  0.00    -0.354 N 
ATOM     37  H   UNL     1      -0.079   0.981   5.843  1.00  0.00     0.163 HD
BRANCH  36  38
ATOM     38  C   UNL     1       1.017   1.916   7.420  1.00  0.00     0.116 C 
BRANCH  38  39
ATOM     39  C   UNL     1       1.081   3.399   7.060  1.00  0.00     0.023 C 
BRANCH  39  40
ATOM     40  C   UNL     1       0.803   4.301   8.257  1.00  0.00     0.026 C 
BRANCH  40  41
ATOM     41  C   UNL     1      -0.307   5.302   7.936  1.00  0.00     0.146 C 
BRANCH  41  42
ATOM     42  N   UNL     1      -1.112   5.544   9.127  1.00  0.00    -0.254 NA
ATOM     43  C   UNL     1      -2.281   5.031   9.216  1.00  0.00     0.185 C 
ATOM     44  N   UNL     1      -2.952   4.250   8.350  1.00  0.00    -0.370 N 
ATOM     45  N   UNL     1      -3.008   5.270  10.320  1.00  0.00    -0.370 N 
ATOM     46  H   UNL     1      -3.946   4.123   8.438  1.00  0.00     0.159 HD
ATOM     47  H   UNL     1      -2.543   3.960   7.467  1.00  0.00     0.159 HD
ATOM     48  H   UNL     1      -2.571   5.843  11.029  1.00  0.00     0.159 HD
ATOM     49  H   UNL     1      -3.814   4.724  10.569  1.00  0.00     0.159 HD
ENDBRANCH  41  42
ENDBRANCH  40  41
ENDBRANCH  39  40
ENDBRANCH  38  39
ENDBRANCH  36  38
ENDBRANCH   5  34
BRANCH   8  50
ATOM     50  O   UNL     1       1.179   0.457   3.511  1.00  0.00    -0.245 OA
BRANCH  50  51
ATOM     51  S   UNL     1       2.315   1.377   2.799  1.00  0.00     0.397 S 
ATOM     52  O   UNL     1       1.681   2.133   1.742  1.00  0.00    -0.169 OA
ATOM     53  O   UNL     1       3.502   0.583   2.557  1.00  0.00    -0.169 OA
BRANCH  51  54
ATOM     54  O   UNL     1       2.658   2.442   3.954  1.00  0.00    -0.264 OA
ATOM     55  H   UNL     1       2.181   2.168   4.763  1.00  0.00     0.236 HD
ENDBRANCH  51  54
ENDBRANCH  50  51
ENDBRANCH   8  50
TORSDOF 19
ENDMDL
MODEL 20
REMARK VINA RESULT:    -6.783      3.702      7.791
REMARK INTER + INTRA:         -18.234
REMARK INTER:                 -15.202
REMARK INTRA:                  -3.032
REMARK UNBOUND:                -4.511
REMARK SMILES CC[C@@H](C)[C@@H](NC(=O)[C@@H](O)Cc1ccc(O)c(Cl)c1)C(=O)N1[C@H](C(=O)NCCCCN=C(N)N)C[C@H]2CC[C@H](OS(=O)(=O)O)C[C@@H]21
REMARK SMILES IDX 22 1 36 2 46 3 35 4 23 5 45 6 37 7 39 8 38 9 20 10 21 11
REMARK SMILES IDX 5 12 6 13 7 14 8 15 9 17 11 18 12 19 17 20 19 21 15 22 14 23
REMARK SMILES IDX 13 24 18 25 16 26 10 28 3 30 4 31 2 32 1 33 24 34 25 35
REMARK SMILES IDX 26 36 27 38 28 39 29 40 30 41 31 42 32 43 33 44 34 45 40 50
REMARK SMILES IDX 41 51 42 52 43 53 44 54
REMARK H PARENT 6 16 16 27 10 29 26 37 33 46 33 47 34 48 34 49 44 55
ROOT
ATOM      1  N   UNL     1      -2.128  -0.649   4.268  1.00  0.00    -0.326 N 
ATOM      2  C   UNL     1      -2.367  -1.084   6.569  1.00  0.00     0.014 C 
ATOM      3  C   UNL     1      -1.391  -1.222   5.398  1.00  0.00     0.091 C 
ATOM      4  C   UNL     1      -3.719  -1.294   5.905  1.00  0.00     0.041 C 
ATOM      5  C   UNL     1      -3.544  -0.421   4.649  1.00  0.00     0.175 C 
ATOM      6  C   UNL     1      -0.063  -0.581   5.797  1.00  0.00     0.059 C 
ATOM      7  C   UNL     1      -1.959  -1.979   7.723  1.00  0.00     0.008 C 
ATOM      8  C   UNL     1       0.250  -0.689   7.305  1.00  0.00     0.143 C 
ATOM      9  C   UNL     1      -0.435  -1.909   7.953  1.00  0.00     0.034 C 
ENDROOT
BRANCH   1  10
ATOM     10  C   UNL     1      -1.757  -0.516   2.941  1.00  0.00     0.246 C 
ATOM     11  O   UNL     1      -1.754  -1.516   2.215  1.00  0.00    -0.272 OA
BRANCH  10  12
ATOM     12  C   UNL     1      -1.393   0.890   2.383  1.00  0.00     0.174 C 
BRANCH  12  13
ATOM     13  N   UNL     1      -2.525   1.439   1.637  1.00  0.00    -0.342 N 
ATOM     14  C   UNL     1      -3.055   2.697   1.817  1.00  0.00     0.249 C 
ATOM     15  O   UNL     1      -2.612   3.516   2.613  1.00  0.00    -0.272 OA
ATOM     16  H   UNL     1      -3.092   0.825   1.058  1.00  0.00     0.164 HD
BRANCH  14  17
ATOM     17  C   UNL     1      -4.258   2.975   0.891  1.00  0.00     0.207 C 
BRANCH  17  18
ATOM     18  C   UNL     1      -4.158   4.381   0.291  1.00  0.00     0.077 C 
BRANCH  18  19
ATOM     19  C   UNL     1      -3.391   4.383  -1.012  1.00  0.00    -0.043 A 
ATOM     20  C   UNL     1      -3.289   3.926  -3.392  1.00  0.00     0.083 A 
ATOM     21  C   UNL     1      -4.013   3.970  -2.201  1.00  0.00     0.028 A 
ATOM     22  C   UNL     1      -1.942   4.292  -3.405  1.00  0.00     0.134 A 
ATOM     23  C   UNL     1      -1.314   4.703  -2.235  1.00  0.00     0.048 A 
ATOM     24  C   UNL     1      -2.036   4.746  -1.040  1.00  0.00     0.008 A 
ATOM     25  Cl  UNL     1      -4.070   3.416  -4.843  1.00  0.00    -0.080 Cl
BRANCH  22  26
ATOM     26  O   UNL     1      -1.188   4.255  -4.546  1.00  0.00    -0.506 OA
ATOM     27  H   UNL     1      -1.539   3.526  -5.090  1.00  0.00     0.293 HD
ENDBRANCH  22  26
ENDBRANCH  18  19
ENDBRANCH  17  18
BRANCH  17  28
ATOM     28  O   UNL     1      -5.499   2.847   1.602  1.00  0.00    -0.383 OA
ATOM     29  H   UNL     1      -5.436   3.458   2.371  1.00  0.00     0.211 HD
ENDBRANCH  17  28
ENDBRANCH  14  17
ENDBRANCH  12  13
BRANCH  12  30
ATOM     30  C   UNL     1      -0.083   0.885   1.551  1.00  0.00     0.018 C 
ATOM     31  C   UNL     1       1.148   0.827   2.470  1.00  0.00     0.010 C 
BRANCH  30  32
ATOM     32  C   UNL     1       0.038   2.080   0.574  1.00  0.00     0.002 C 
ATOM     33  C   UNL     1       0.330   1.711  -0.874  1.00  0.00     0.004 C 
ENDBRANCH  30  32
ENDBRANCH  12  30
ENDBRANCH  10  12
ENDBRANCH   1  10
BRANCH   5  34
ATOM     34  C   UNL     1      -3.797   1.079   4.956  1.00  0.00     0.242 C 
ATOM     35  O   UNL     1      -4.908   1.596   4.839  1.00  0.00    -0.273 OA
ATOM     36  N   UNL     1      -2.680   1.800   5.314  1.00  0.00    -0.354 N 
ATOM     37  H   UNL     1      -1.768   1.344   5.276  1.00  0.00     0.163 HD
BRANCH  36  38
ATOM     38  C   UNL     1      -2.765   3.147   5.839  1.00  0.00     0.116 C 
BRANCH  38  39
ATOM     39  C   UNL     1      -1.709   3.348   6.924  1.00  0.00     0.023 C 
BRANCH  39  40
ATOM     40  C   UNL     1      -2.087   4.452   7.906  1.00  0.00     0.026 C 
BRANCH  40  41
ATOM     41  C   UNL     1      -2.642   3.858   9.201  1.00  0.00     0.146 C 
BRANCH  41  42
ATOM     42  N   UNL     1      -2.865   4.919  10.174  1.00  0.00    -0.254 NA
ATOM     43  C   UNL     1      -2.447   4.775  11.375  1.00  0.00     0.185 C 
ATOM     44  N   UNL     1      -1.789   3.749  11.945  1.00  0.00    -0.370 N 
ATOM     45  N   UNL     1      -2.666   5.763  12.258  1.00  0.00    -0.370 N 
ATOM     46  H   UNL     1      -1.740   3.664  12.946  1.00  0.00     0.159 HD
ATOM     47  H   UNL     1      -1.530   2.922  11.416  1.00  0.00     0.159 HD
ATOM     48  H   UNL     1      -3.149   6.579  11.907  1.00  0.00     0.159 HD
ATOM     49  H   UNL     1      -2.174   5.832  13.131  1.00  0.00     0.159 HD
ENDBRANCH  41  42
ENDBRANCH  40  41
ENDBRANCH  39  40
ENDBRANCH  38  39
ENDBRANCH  36  38
ENDBRANCH   5  34
BRANCH   8  50
ATOM     50  O   UNL     1      -0.187   0.489   7.983  1.00  0.00    -0.245 OA
BRANCH  50  51
ATOM     51  S   UNL     1       0.777   1.180   9.097  1.00  0.00     0.397 S 
ATOM     52  O   UNL     1       1.130   2.500   8.625  1.00  0.00    -0.169 OA
ATOM     53  O   UNL     1       1.784   0.231   9.523  1.00  0.00    -0.169 OA
BRANCH  51  54
ATOM     54  O   UNL     1      -0.239   1.410  10.322  1.00  0.00    -0.264 OA
ATOM     55  H   UNL     1      -0.029   0.747  11.012  1.00  0.00     0.236 HD
ENDBRANCH  51  54
ENDBRANCH  50  51
ENDBRANCH   8  50
TORSDOF 19
ENDMDL
MODEL 21
REMARK VINA RESULT:    -6.752      2.854      4.324
REMARK INTER + INTRA:         -18.171
REMARK INTER:                 -15.375
REMARK INTRA:                  -2.797
REMARK UNBOUND:                -4.511
REMARK SMILES CC[C@@H](C)[C@@H](NC(=O)[C@@H](O)Cc1ccc(O)c(Cl)c1)C(=O)N1[C@H](C(=O)NCCCCN=C(N)N)C[C@H]2CC[C@H](OS(=O)(=O)O)C[C@@H]21
REMARK SMILES IDX 22 1 36 2 46 3 35 4 23 5 45 6 37 7 39 8 38 9 20 10 21 11
REMARK SMILES IDX 5 12 6 13 7 14 8 15 9 17 11 18 12 19 17 20 19 21 15 22 14 23
REMARK SMILES IDX 13 24 18 25 16 26 10 28 3 30 4 31 2 32 1 33 24 34 25 35
REMARK SMILES IDX 26 36 27 38 28 39 29 40 30 41 31 42 32 43 33 44 34 45 40 50
REMARK SMILES IDX 41 51 42 52 43 53 44 54
REMARK H PARENT 6 16 16 27 10 29 26 37 33 46 33 47 34 48 34 49 44 55
ROOT
ATOM      1  N   UNL     1      -1.337   0.177   4.538  1.00  0.00    -0.326 N 
ATOM      2  C   UNL     1      -2.636  -0.054   2.587  1.00  0.00     0.014 C 
ATOM      3  C   UNL     1      -2.137   0.976   3.605  1.00  0.00     0.091 C 
ATOM      4  C   UNL     1      -2.839  -1.296   3.441  1.00  0.00     0.041 C 
ATOM      5  C   UNL     1      -1.545  -1.269   4.275  1.00  0.00     0.175 C 
ATOM      6  C   UNL     1      -1.447   2.109   2.847  1.00  0.00     0.059 C 
ATOM      7  C   UNL     1      -3.799   0.496   1.785  1.00  0.00     0.008 C 
ATOM      8  C   UNL     1      -2.047   2.377   1.449  1.00  0.00     0.143 C 
ATOM      9  C   UNL     1      -3.528   1.955   1.364  1.00  0.00     0.034 C 
ENDROOT
BRANCH   1  10
ATOM     10  C   UNL     1      -0.652   0.564   5.676  1.00  0.00     0.246 C 
ATOM     11  O   UNL     1       0.480   1.046   5.562  1.00  0.00    -0.272 OA
BRANCH  10  12
ATOM     12  C   UNL     1      -1.335   0.423   7.068  1.00  0.00     0.174 C 
BRANCH  12  13
ATOM     13  N   UNL     1      -1.453   1.736   7.701  1.00  0.00    -0.342 N 
ATOM     14  C   UNL     1      -2.637   2.398   7.932  1.00  0.00     0.249 C 
ATOM     15  O   UNL     1      -3.739   1.941   7.655  1.00  0.00    -0.272 OA
ATOM     16  H   UNL     1      -0.621   2.304   7.841  1.00  0.00     0.164 HD
BRANCH  14  17
ATOM     17  C   UNL     1      -2.430   3.774   8.601  1.00  0.00     0.207 C 
BRANCH  17  18
ATOM     18  C   UNL     1      -1.600   4.689   7.695  1.00  0.00     0.077 C 
BRANCH  18  19
ATOM     19  C   UNL     1      -0.992   5.840   8.465  1.00  0.00    -0.043 A 
ATOM     20  C   UNL     1      -1.247   7.916   9.694  1.00  0.00     0.083 A 
ATOM     21  C   UNL     1      -1.814   6.830   9.026  1.00  0.00     0.028 A 
ATOM     22  C   UNL     1       0.140   8.022   9.804  1.00  0.00     0.134 A 
ATOM     23  C   UNL     1       0.966   7.049   9.253  1.00  0.00     0.048 A 
ATOM     24  C   UNL     1       0.402   5.961   8.583  1.00  0.00     0.008 A 
ATOM     25  Cl  UNL     1      -2.274   9.122  10.376  1.00  0.00    -0.080 Cl
BRANCH  22  26
ATOM     26  O   UNL     1       0.742   9.074  10.439  1.00  0.00    -0.506 OA
ATOM     27  H   UNL     1       1.227   8.702  11.199  1.00  0.00     0.293 HD
ENDBRANCH  22  26
ENDBRANCH  18  19
ENDBRANCH  17  18
BRANCH  17  28
ATOM     28  O   UNL     1      -1.774   3.638   9.872  1.00  0.00    -0.383 OA
ATOM     29  H   UNL     1      -0.809   3.690   9.686  1.00  0.00     0.211 HD
ENDBRANCH  17  28
ENDBRANCH  14  17
ENDBRANCH  12  13
BRANCH  12  30
ATOM     30  C   UNL     1      -0.627  -0.613   7.981  1.00  0.00     0.018 C 
ATOM     31  C   UNL     1       0.762  -0.109   8.406  1.00  0.00     0.010 C 
BRANCH  30  32
ATOM     32  C   UNL     1      -0.511  -2.022   7.350  1.00  0.00     0.002 C 
ATOM     33  C   UNL     1      -1.186  -3.143   8.130  1.00  0.00     0.004 C 
ENDBRANCH  30  32
ENDBRANCH  12  30
ENDBRANCH  10  12
ENDBRANCH   1  10
BRANCH   5  34
ATOM     34  C   UNL     1      -0.345  -1.863   3.489  1.00  0.00     0.242 C 
ATOM     35  O   UNL     1      -0.495  -2.668   2.570  1.00  0.00    -0.273 OA
ATOM     36  N   UNL     1       0.897  -1.466   3.929  1.00  0.00    -0.354 N 
ATOM     37  H   UNL     1       0.960  -0.891   4.770  1.00  0.00     0.163 HD
BRANCH  36  38
ATOM     38  C   UNL     1       2.108  -1.747   3.185  1.00  0.00     0.116 C 
BRANCH  38  39
ATOM     39  C   UNL     1       2.669  -0.454   2.599  1.00  0.00     0.023 C 
BRANCH  39  40
ATOM     40  C   UNL     1       1.965  -0.044   1.310  1.00  0.00     0.026 C 
BRANCH  40  41
ATOM     41  C   UNL     1       2.669  -0.643   0.093  1.00  0.00     0.146 C 
BRANCH  41  42
ATOM     42  N   UNL     1       1.680  -1.155  -0.846  1.00  0.00    -0.254 NA
ATOM     43  C   UNL     1       1.521  -0.576  -1.977  1.00  0.00     0.185 C 
ATOM     44  N   UNL     1       2.147   0.496  -2.495  1.00  0.00    -0.370 N 
ATOM     45  N   UNL     1       0.601  -1.061  -2.827  1.00  0.00    -0.370 N 
ATOM     46  H   UNL     1       1.757   0.987  -3.281  1.00  0.00     0.159 HD
ATOM     47  H   UNL     1       2.883   0.979  -1.990  1.00  0.00     0.159 HD
ATOM     48  H   UNL     1       0.089  -1.875  -2.516  1.00  0.00     0.159 HD
ATOM     49  H   UNL     1       0.581  -0.821  -3.802  1.00  0.00     0.159 HD
ENDBRANCH  41  42
ENDBRANCH  40  41
ENDBRANCH  39  40
ENDBRANCH  38  39
ENDBRANCH  36  38
ENDBRANCH   5  34
BRANCH   8  50
ATOM     50  O   UNL     1      -1.313   1.660   0.456  1.00  0.00    -0.245 OA
BRANCH  50  51
ATOM     51  S   UNL     1      -0.746   2.448  -0.849  1.00  0.00     0.397 S 
ATOM     52  O   UNL     1       0.691   2.538  -0.726  1.00  0.00    -0.169 OA
ATOM     53  O   UNL     1      -1.562   3.618  -1.102  1.00  0.00    -0.169 OA
BRANCH  51  54
ATOM     54  O   UNL     1      -1.020   1.389  -2.027  1.00  0.00    -0.264 OA
ATOM     55  H   UNL     1      -0.173   0.940  -2.227  1.00  0.00     0.236 HD
ENDBRANCH  51  54
ENDBRANCH  50  51
ENDBRANCH   8  50
TORSDOF 19
ENDMDL
MODEL 22
REMARK VINA RESULT:    -6.696      3.222      5.987
REMARK INTER + INTRA:         -18.058
REMARK INTER:                 -13.520
REMARK INTRA:                  -4.538
REMARK UNBOUND:                -4.511
REMARK SMILES CC[C@@H](C)[C@@H](NC(=O)[C@@H](O)Cc1ccc(O)c(Cl)c1)C(=O)N1[C@H](C(=O)NCCCCN=C(N)N)C[C@H]2CC[C@H](OS(=O)(=O)O)C[C@@H]21
REMARK SMILES IDX 22 1 36 2 46 3 35 4 23 5 45 6 37 7 39 8 38 9 20 10 21 11
REMARK SMILES IDX 5 12 6 13 7 14 8 15 9 17 11 18 12 19 17 20 19 21 15 22 14 23
REMARK SMILES IDX 13 24 18 25 16 26 10 28 3 30 4 31 2 32 1 33 24 34 25 35
REMARK SMILES IDX 26 36 27 38 28 39 29 40 30 41 31 42 32 43 33 44 34 45 40 50
REMARK SMILES IDX 41 51 42 52 43 53 44 54
REMARK H PARENT 6 16 16 27 10 29 26 37 33 46 33 47 34 48 34 49 44 55
ROOT
ATOM      1  N   UNL     1      -4.631   2.030   2.888  1.00  0.00    -0.326 N 
ATOM      2  C   UNL     1      -3.687   1.636   0.767  1.00  0.00     0.014 C 
ATOM      3  C   UNL     1      -4.108   2.754   1.725  1.00  0.00     0.091 C 
ATOM      4  C   UNL     1      -4.732   0.561   1.028  1.00  0.00     0.041 C 
ATOM      5  C   UNL     1      -4.773   0.589   2.567  1.00  0.00     0.175 C 
ATOM      6  C   UNL     1      -2.917   3.688   1.929  1.00  0.00     0.059 C 
ATOM      7  C   UNL     1      -3.504   2.168  -0.640  1.00  0.00     0.008 C 
ATOM      8  C   UNL     1      -1.995   3.799   0.695  1.00  0.00     0.143 C 
ATOM      9  C   UNL     1      -2.750   3.515  -0.619  1.00  0.00     0.034 C 
ENDROOT
BRANCH   1  10
ATOM     10  C   UNL     1      -5.174   2.516   4.065  1.00  0.00     0.246 C 
ATOM     11  O   UNL     1      -4.423   3.002   4.917  1.00  0.00    -0.272 OA
BRANCH  10  12
ATOM     12  C   UNL     1      -6.716   2.479   4.271  1.00  0.00     0.174 C 
BRANCH  12  13
ATOM     13  N   UNL     1      -7.381   3.213   3.195  1.00  0.00    -0.342 N 
ATOM     14  C   UNL     1      -8.061   2.635   2.147  1.00  0.00     0.249 C 
ATOM     15  O   UNL     1      -8.210   1.426   2.015  1.00  0.00    -0.272 OA
ATOM     16  H   UNL     1      -7.211   4.210   3.085  1.00  0.00     0.164 HD
BRANCH  14  17
ATOM     17  C   UNL     1      -8.637   3.676   1.164  1.00  0.00     0.207 C 
BRANCH  17  18
ATOM     18  C   UNL     1      -7.618   4.790   0.906  1.00  0.00     0.077 C 
BRANCH  18  19
ATOM     19  C   UNL     1      -6.913   4.611  -0.420  1.00  0.00    -0.043 A 
ATOM     20  C   UNL     1      -6.525   3.321  -2.438  1.00  0.00     0.083 A 
ATOM     21  C   UNL     1      -7.213   3.510  -1.238  1.00  0.00     0.028 A 
ATOM     22  C   UNL     1      -5.535   4.225  -2.825  1.00  0.00     0.134 A 
ATOM     23  C   UNL     1      -5.229   5.319  -2.024  1.00  0.00     0.048 A 
ATOM     24  C   UNL     1      -5.914   5.510  -0.823  1.00  0.00     0.008 A 
ATOM     25  Cl  UNL     1      -6.907   1.963  -3.430  1.00  0.00    -0.080 Cl
BRANCH  22  26
ATOM     26  O   UNL     1      -4.827   4.076  -3.987  1.00  0.00    -0.506 OA
ATOM     27  H   UNL     1      -4.869   4.931  -4.453  1.00  0.00     0.293 HD
ENDBRANCH  22  26
ENDBRANCH  18  19
ENDBRANCH  17  18
BRANCH  17  28
ATOM     28  O   UNL     1      -9.853   4.249   1.671  1.00  0.00    -0.383 OA
ATOM     29  H   UNL     1     -10.440   4.375   0.892  1.00  0.00     0.211 HD
ENDBRANCH  17  28
ENDBRANCH  14  17
ENDBRANCH  12  13
BRANCH  12  30
ATOM     30  C   UNL     1      -7.145   2.975   5.679  1.00  0.00     0.018 C 
ATOM     31  C   UNL     1      -7.446   1.788   6.607  1.00  0.00     0.010 C 
BRANCH  30  32
ATOM     32  C   UNL     1      -8.347   3.950   5.654  1.00  0.00     0.002 C 
ATOM     33  C   UNL     1      -9.717   3.297   5.783  1.00  0.00     0.004 C 
ENDBRANCH  30  32
ENDBRANCH  12  30
ENDBRANCH  10  12
ENDBRANCH   1  10
BRANCH   5  34
ATOM     34  C   UNL     1      -3.608  -0.230   3.185  1.00  0.00     0.242 C 
ATOM     35  O   UNL     1      -2.665  -0.644   2.511  1.00  0.00    -0.273 OA
ATOM     36  N   UNL     1      -3.733  -0.504   4.528  1.00  0.00    -0.354 N 
ATOM     37  H   UNL     1      -4.594  -0.237   5.006  1.00  0.00     0.163 HD
BRANCH  36  38
ATOM     38  C   UNL     1      -2.648  -1.063   5.308  1.00  0.00     0.116 C 
BRANCH  38  39
ATOM     39  C   UNL     1      -1.995   0.031   6.149  1.00  0.00     0.023 C 
BRANCH  39  40
ATOM     40  C   UNL     1      -0.490  -0.165   6.295  1.00  0.00     0.026 C 
BRANCH  40  41
ATOM     41  C   UNL     1       0.105  -0.760   5.019  1.00  0.00     0.146 C 
BRANCH  41  42
ATOM     42  N   UNL     1       1.157   0.113   4.513  1.00  0.00    -0.254 NA
ATOM     43  C   UNL     1       0.888   0.959   3.590  1.00  0.00     0.185 C 
ATOM     44  N   UNL     1      -0.272   1.208   2.955  1.00  0.00    -0.370 N 
ATOM     45  N   UNL     1       1.872   1.751   3.134  1.00  0.00    -0.370 N 
ATOM     46  H   UNL     1      -0.284   1.721   2.090  1.00  0.00     0.159 HD
ATOM     47  H   UNL     1      -1.124   0.706   3.186  1.00  0.00     0.159 HD
ATOM     48  H   UNL     1       2.779   1.634   3.566  1.00  0.00     0.159 HD
ATOM     49  H   UNL     1       1.697   2.582   2.597  1.00  0.00     0.159 HD
ENDBRANCH  41  42
ENDBRANCH  40  41
ENDBRANCH  39  40
ENDBRANCH  38  39
ENDBRANCH  36  38
ENDBRANCH   5  34
BRANCH   8  50
ATOM     50  O   UNL     1      -0.914   2.873   0.807  1.00  0.00    -0.245 OA
BRANCH  50  51
ATOM     51  S   UNL     1       0.197   2.790  -0.379  1.00  0.00     0.397 S 
ATOM     52  O   UNL     1       0.373   4.119  -0.920  1.00  0.00    -0.169 OA
ATOM     53  O   UNL     1      -0.086   1.654  -1.231  1.00  0.00    -0.169 OA
BRANCH  51  54
ATOM     54  O   UNL     1       1.542   2.471   0.443  1.00  0.00    -0.264 OA
ATOM     55  H   UNL     1       2.302   2.656  -0.145  1.00  0.00     0.236 HD
ENDBRANCH  51  54
ENDBRANCH  50  51
ENDBRANCH   8  50
TORSDOF 19
ENDMDL
MODEL 23
REMARK VINA RESULT:    -6.681      2.273      3.539
REMARK INTER + INTRA:         -18.027
REMARK INTER:                 -14.343
REMARK INTRA:                  -3.684
REMARK UNBOUND:                -4.511
REMARK SMILES CC[C@@H](C)[C@@H](NC(=O)[C@@H](O)Cc1ccc(O)c(Cl)c1)C(=O)N1[C@H](C(=O)NCCCCN=C(N)N)C[C@H]2CC[C@H](OS(=O)(=O)O)C[C@@H]21
REMARK SMILES IDX 22 1 36 2 46 3 35 4 23 5 45 6 37 7 39 8 38 9 20 10 21 11
REMARK SMILES IDX 5 12 6 13 7 14 8 15 9 17 11 18 12 19 17 20 19 21 15 22 14 23
REMARK SMILES IDX 13 24 18 25 16 26 10 28 3 30 4 31 2 32 1 33 24 34 25 35
REMARK SMILES IDX 26 36 27 38 28 39 29 40 30 41 31 42 32 43 33 44 34 45 40 50
REMARK SMILES IDX 41 51 42 52 43 53 44 54
REMARK H PARENT 6 16 16 27 10 29 26 37 33 46 33 47 34 48 34 49 44 55
ROOT
ATOM      1  N   UNL     1      -3.130   1.765   3.758  1.00  0.00    -0.326 N 
ATOM      2  C   UNL     1      -3.982   1.366   1.600  1.00  0.00     0.014 C 
ATOM      3  C   UNL     1      -3.397   2.461   2.496  1.00  0.00     0.091 C 
ATOM      4  C   UNL     1      -4.767   0.512   2.584  1.00  0.00     0.041 C 
ATOM      5  C   UNL     1      -3.748   0.417   3.734  1.00  0.00     0.175 C 
ATOM      6  C   UNL     1      -2.224   3.109   1.763  1.00  0.00     0.059 C 
ATOM      7  C   UNL     1      -4.695   1.967   0.404  1.00  0.00     0.008 C 
ATOM      8  C   UNL     1      -2.386   3.132   0.228  1.00  0.00     0.143 C 
ATOM      9  C   UNL     1      -3.868   3.122  -0.198  1.00  0.00     0.034 C 
ENDROOT
BRANCH   1  10
ATOM     10  C   UNL     1      -2.614   2.251   4.947  1.00  0.00     0.246 C 
ATOM     11  O   UNL     1      -1.396   2.433   5.044  1.00  0.00    -0.272 OA
BRANCH  10  12
ATOM     12  C   UNL     1      -3.580   2.596   6.118  1.00  0.00     0.174 C 
BRANCH  12  13
ATOM     13  N   UNL     1      -4.664   3.451   5.634  1.00  0.00    -0.342 N 
ATOM     14  C   UNL     1      -6.005   3.153   5.722  1.00  0.00     0.249 C 
ATOM     15  O   UNL     1      -6.445   2.137   6.246  1.00  0.00    -0.272 OA
ATOM     16  H   UNL     1      -4.450   4.248   5.040  1.00  0.00     0.164 HD
BRANCH  14  17
ATOM     17  C   UNL     1      -6.901   4.248   5.106  1.00  0.00     0.207 C 
BRANCH  17  18
ATOM     18  C   UNL     1      -6.228   4.858   3.871  1.00  0.00     0.077 C 
BRANCH  18  19
ATOM     19  C   UNL     1      -6.870   4.380   2.588  1.00  0.00    -0.043 A 
ATOM     20  C   UNL     1      -8.123   2.704   1.361  1.00  0.00     0.083 A 
ATOM     21  C   UNL     1      -7.575   3.166   2.558  1.00  0.00     0.028 A 
ATOM     22  C   UNL     1      -7.971   3.447   0.190  1.00  0.00     0.134 A 
ATOM     23  C   UNL     1      -7.276   4.651   0.206  1.00  0.00     0.048 A 
ATOM     24  C   UNL     1      -6.724   5.115   1.402  1.00  0.00     0.008 A 
ATOM     25  Cl  UNL     1      -8.985   1.210   1.344  1.00  0.00    -0.080 Cl
BRANCH  22  26
ATOM     26  O   UNL     1      -8.482   3.029  -1.009  1.00  0.00    -0.506 OA
ATOM     27  H   UNL     1      -8.132   3.634  -1.689  1.00  0.00     0.293 HD
ENDBRANCH  22  26
ENDBRANCH  18  19
ENDBRANCH  17  18
BRANCH  17  28
ATOM     28  O   UNL     1      -7.178   5.287   6.059  1.00  0.00    -0.383 OA
ATOM     29  H   UNL     1      -7.241   6.121   5.541  1.00  0.00     0.211 HD
ENDBRANCH  17  28
ENDBRANCH  14  17
ENDBRANCH  12  13
BRANCH  12  30
ATOM     30  C   UNL     1      -2.846   3.206   7.342  1.00  0.00     0.018 C 
ATOM     31  C   UNL     1      -2.416   4.653   7.056  1.00  0.00     0.010 C 
BRANCH  30  32
ATOM     32  C   UNL     1      -1.629   2.373   7.815  1.00  0.00     0.002 C 
ATOM     33  C   UNL     1      -0.403   3.182   8.219  1.00  0.00     0.004 C 
ENDBRANCH  30  32
ENDBRANCH  12  30
ENDBRANCH  10  12
ENDBRANCH   1  10
BRANCH   5  34
ATOM     34  C   UNL     1      -2.678  -0.674   3.462  1.00  0.00     0.242 C 
ATOM     35  O   UNL     1      -2.663  -1.337   2.424  1.00  0.00    -0.273 OA
ATOM     36  N   UNL     1      -1.781  -0.884   4.485  1.00  0.00    -0.354 N 
ATOM     37  H   UNL     1      -1.918  -0.388   5.367  1.00  0.00     0.163 HD
BRANCH  36  38
ATOM     38  C   UNL     1      -0.597  -1.701   4.320  1.00  0.00     0.116 C 
BRANCH  38  39
ATOM     39  C   UNL     1       0.563  -0.840   3.828  1.00  0.00     0.023 C 
BRANCH  39  40
ATOM     40  C   UNL     1       1.664  -1.665   3.172  1.00  0.00     0.026 C 
BRANCH  40  41
ATOM     41  C   UNL     1       2.215  -0.951   1.937  1.00  0.00     0.146 C 
BRANCH  41  42
ATOM     42  N   UNL     1       1.398   0.219   1.640  1.00  0.00    -0.254 NA
ATOM     43  C   UNL     1       1.961   1.352   1.449  1.00  0.00     0.185 C 
ATOM     44  N   UNL     1       3.265   1.686   1.473  1.00  0.00    -0.370 N 
ATOM     45  N   UNL     1       1.191   2.419   1.181  1.00  0.00    -0.370 N 
ATOM     46  H   UNL     1       3.546   2.649   1.549  1.00  0.00     0.159 HD
ATOM     47  H   UNL     1       3.988   0.996   1.649  1.00  0.00     0.159 HD
ATOM     48  H   UNL     1       0.194   2.253   1.136  1.00  0.00     0.159 HD
ATOM     49  H   UNL     1       1.556   3.270   0.792  1.00  0.00     0.159 HD
ENDBRANCH  41  42
ENDBRANCH  40  41
ENDBRANCH  39  40
ENDBRANCH  38  39
ENDBRANCH  36  38
ENDBRANCH   5  34
BRANCH   8  50
ATOM     50  O   UNL     1      -1.740   1.997  -0.350  1.00  0.00    -0.245 OA
BRANCH  50  51
ATOM     51  S   UNL     1      -0.738   2.200  -1.615  1.00  0.00     0.397 S 
ATOM     52  O   UNL     1      -1.540   2.531  -2.772  1.00  0.00    -0.169 OA
ATOM     53  O   UNL     1       0.232   1.125  -1.644  1.00  0.00    -0.169 OA
BRANCH  51  54
ATOM     54  O   UNL     1       0.034   3.554  -1.216  1.00  0.00    -0.264 OA
ATOM     55  H   UNL     1       0.866   3.585  -1.731  1.00  0.00     0.236 HD
ENDBRANCH  51  54
ENDBRANCH  50  51
ENDBRANCH   8  50
TORSDOF 19
ENDMDL
MODEL 24
REMARK VINA RESULT:    -6.659      3.502      7.400
REMARK INTER + INTRA:         -17.982
REMARK INTER:                 -14.552
REMARK INTRA:                  -3.430
REMARK UNBOUND:                -4.511
REMARK SMILES CC[C@@H](C)[C@@H](NC(=O)[C@@H](O)Cc1ccc(O)c(Cl)c1)C(=O)N1[C@H](C(=O)NCCCCN=C(N)N)C[C@H]2CC[C@H](OS(=O)(=O)O)C[C@@H]21
REMARK SMILES IDX 22 1 36 2 46 3 35 4 23 5 45 6 37 7 39 8 38 9 20 10 21 11
REMARK SMILES IDX 5 12 6 13 7 14 8 15 9 17 11 18 12 19 17 20 19 21 15 22 14 23
REMARK SMILES IDX 13 24 18 25 16 26 10 28 3 30 4 31 2 32 1 33 24 34 25 35
REMARK SMILES IDX 26 36 27 38 28 39 29 40 30 41 31 42 32 43 33 44 34 45 40 50
REMARK SMILES IDX 41 51 42 52 43 53 44 54
REMARK H PARENT 6 16 16 27 10 29 26 37 33 46 33 47 34 48 34 49 44 55
ROOT
ATOM      1  N   UNL     1      -0.421  -0.448   4.990  1.00  0.00    -0.326 N 
ATOM      2  C   UNL     1      -0.268  -0.386   7.338  1.00  0.00     0.014 C 
ATOM      3  C   UNL     1       0.322   0.220   6.062  1.00  0.00     0.091 C 
ATOM      4  C   UNL     1      -0.567  -1.818   6.921  1.00  0.00     0.041 C 
ATOM      5  C   UNL     1      -1.215  -1.571   5.546  1.00  0.00     0.175 C 
ATOM      6  C   UNL     1       0.234   1.742   6.165  1.00  0.00     0.059 C 
ATOM      7  C   UNL     1       0.637  -0.133   8.528  1.00  0.00     0.008 C 
ATOM      8  C   UNL     1       0.358   2.275   7.609  1.00  0.00     0.143 C 
ATOM      9  C   UNL     1       1.162   1.319   8.512  1.00  0.00     0.034 C 
ENDROOT
BRANCH   1  10
ATOM     10  C   UNL     1      -0.308  -0.317   3.616  1.00  0.00     0.246 C 
ATOM     11  O   UNL     1      -0.751  -1.211   2.888  1.00  0.00    -0.272 OA
BRANCH  10  12
ATOM     12  C   UNL     1       0.335   0.969   3.019  1.00  0.00     0.174 C 
BRANCH  12  13
ATOM     13  N   UNL     1      -0.457   1.440   1.883  1.00  0.00    -0.342 N 
ATOM     14  C   UNL     1      -1.662   2.099   1.979  1.00  0.00     0.249 C 
ATOM     15  O   UNL     1      -2.197   2.390   3.041  1.00  0.00    -0.272 OA
ATOM     16  H   UNL     1      -0.220   1.135   0.942  1.00  0.00     0.164 HD
BRANCH  14  17
ATOM     17  C   UNL     1      -2.260   2.451   0.600  1.00  0.00     0.207 C 
BRANCH  17  18
ATOM     18  C   UNL     1      -1.144   2.682  -0.424  1.00  0.00     0.077 C 
BRANCH  18  19
ATOM     19  C   UNL     1      -1.691   3.143  -1.756  1.00  0.00    -0.043 A 
ATOM     20  C   UNL     1      -3.102   2.768  -3.694  1.00  0.00     0.083 A 
ATOM     21  C   UNL     1      -2.636   2.364  -2.442  1.00  0.00     0.028 A 
ATOM     22  C   UNL     1      -2.627   3.948  -4.268  1.00  0.00     0.134 A 
ATOM     23  C   UNL     1      -1.691   4.729  -3.600  1.00  0.00     0.048 A 
ATOM     24  C   UNL     1      -1.222   4.326  -2.347  1.00  0.00     0.008 A 
ATOM     25  Cl  UNL     1      -4.263   1.798  -4.521  1.00  0.00    -0.080 Cl
BRANCH  22  26
ATOM     26  O   UNL     1      -3.046   4.379  -5.498  1.00  0.00    -0.506 OA
ATOM     27  H   UNL     1      -3.738   3.758  -5.791  1.00  0.00     0.293 HD
ENDBRANCH  22  26
ENDBRANCH  18  19
ENDBRANCH  17  18
BRANCH  17  28
ATOM     28  O   UNL     1      -3.086   3.624   0.678  1.00  0.00    -0.383 OA
ATOM     29  H   UNL     1      -2.528   4.371   0.363  1.00  0.00     0.211 HD
ENDBRANCH  17  28
ENDBRANCH  14  17
ENDBRANCH  12  13
BRANCH  12  30
ATOM     30  C   UNL     1       1.833   0.779   2.658  1.00  0.00     0.018 C 
ATOM     31  C   UNL     1       2.138   1.358   1.268  1.00  0.00     0.010 C 
BRANCH  30  32
ATOM     32  C   UNL     1       2.310  -0.692   2.739  1.00  0.00     0.002 C 
ATOM     33  C   UNL     1       2.787  -1.294   1.424  1.00  0.00     0.004 C 
ENDBRANCH  30  32
ENDBRANCH  12  30
ENDBRANCH  10  12
ENDBRANCH   1  10
BRANCH   5  34
ATOM     34  C   UNL     1      -2.710  -1.174   5.681  1.00  0.00     0.242 C 
ATOM     35  O   UNL     1      -3.520  -1.863   6.300  1.00  0.00    -0.273 OA
ATOM     36  N   UNL     1      -3.073  -0.027   5.013  1.00  0.00    -0.354 N 
ATOM     37  H   UNL     1      -2.384   0.435   4.418  1.00  0.00     0.163 HD
BRANCH  36  38
ATOM     38  C   UNL     1      -4.363   0.603   5.204  1.00  0.00     0.116 C 
BRANCH  38  39
ATOM     39  C   UNL     1      -4.354   1.424   6.491  1.00  0.00     0.023 C 
BRANCH  39  40
ATOM     40  C   UNL     1      -5.201   2.688   6.383  1.00  0.00     0.026 C 
BRANCH  40  41
ATOM     41  C   UNL     1      -4.532   3.712   5.466  1.00  0.00     0.146 C 
BRANCH  41  42
ATOM     42  N   UNL     1      -5.343   3.908   4.272  1.00  0.00    -0.254 NA
ATOM     43  C   UNL     1      -4.877   4.592   3.295  1.00  0.00     0.185 C 
ATOM     44  N   UNL     1      -3.688   5.206   3.158  1.00  0.00    -0.370 N 
ATOM     45  N   UNL     1      -5.643   4.765   2.205  1.00  0.00    -0.370 N 
ATOM     46  H   UNL     1      -3.551   5.905   2.448  1.00  0.00     0.159 HD
ATOM     47  H   UNL     1      -2.980   5.165   3.885  1.00  0.00     0.159 HD
ATOM     48  H   UNL     1      -6.554   4.326   2.223  1.00  0.00     0.159 HD
ATOM     49  H   UNL     1      -5.273   5.074   1.324  1.00  0.00     0.159 HD
ENDBRANCH  41  42
ENDBRANCH  40  41
ENDBRANCH  39  40
ENDBRANCH  38  39
ENDBRANCH  36  38
ENDBRANCH   5  34
BRANCH   8  50
ATOM     50  O   UNL     1      -0.939   2.455   8.178  1.00  0.00    -0.245 OA
BRANCH  50  51
ATOM     51  S   UNL     1      -1.432   3.947   8.599  1.00  0.00     0.397 S 
ATOM     52  O   UNL     1      -2.139   3.845   9.856  1.00  0.00    -0.169 OA
ATOM     53  O   UNL     1      -2.015   4.608   7.451  1.00  0.00    -0.169 OA
BRANCH  51  54
ATOM     54  O   UNL     1      -0.040   4.677   8.937  1.00  0.00    -0.264 OA
ATOM     55  H   UNL     1       0.003   5.498   8.406  1.00  0.00     0.236 HD
ENDBRANCH  51  54
ENDBRANCH  50  51
ENDBRANCH   8  50
TORSDOF 19
ENDMDL
MODEL 25
REMARK VINA RESULT:    -6.627      3.746      7.377
REMARK INTER + INTRA:         -17.919
REMARK INTER:                 -14.031
REMARK INTRA:                  -3.888
REMARK UNBOUND:                -4.511
REMARK SMILES CC[C@@H](C)[C@@H](NC(=O)[C@@H](O)Cc1ccc(O)c(Cl)c1)C(=O)N1[C@H](C(=O)NCCCCN=C(N)N)C[C@H]2CC[C@H](OS(=O)(=O)O)C[C@@H]21
REMARK SMILES IDX 22 1 36 2 46 3 35 4 23 5 45 6 37 7 39 8 38 9 20 10 21 11
REMARK SMILES IDX 5 12 6 13 7 14 8 15 9 17 11 18 12 19 17 20 19 21 15 22 14 23
REMARK SMILES IDX 13 24 18 25 16 26 10 28 3 30 4 31 2 32 1 33 24 34 25 35
REMARK SMILES IDX 26 36 27 38 28 39 29 40 30 41 31 42 32 43 33 44 34 45 40 50
REMARK SMILES IDX 41 51 42 52 43 53 44 54
REMARK H PARENT 6 16 16 27 10 29 26 37 33 46 33 47 34 48 34 49 44 55
ROOT
ATOM      1  N   UNL     1      -3.559   2.177   2.183  1.00  0.00    -0.326 N 
ATOM      2  C   UNL     1      -3.077   4.218   1.112  1.00  0.00     0.014 C 
ATOM      3  C   UNL     1      -2.448   2.891   1.547  1.00  0.00     0.091 C 
ATOM      4  C   UNL     1      -4.083   4.490   2.220  1.00  0.00     0.041 C 
ATOM      5  C   UNL     1      -4.712   3.092   2.367  1.00  0.00     0.175 C 
ATOM      6  C   UNL     1      -1.777   2.254   0.332  1.00  0.00     0.059 C 
ATOM      7  C   UNL     1      -2.010   5.250   0.807  1.00  0.00     0.008 C 
ATOM      8  C   UNL     1      -1.216   3.279  -0.678  1.00  0.00     0.143 C 
ATOM      9  C   UNL     1      -0.859   4.619  -0.004  1.00  0.00     0.034 C 
ENDROOT
BRANCH   1  10
ATOM     10  C   UNL     1      -3.584   0.930   2.783  1.00  0.00     0.246 C 
ATOM     11  O   UNL     1      -3.926  -0.052   2.116  1.00  0.00    -0.272 OA
BRANCH  10  12
ATOM     12  C   UNL     1      -3.143   0.785   4.269  1.00  0.00     0.174 C 
BRANCH  12  13
ATOM     13  N   UNL     1      -1.715   0.475   4.336  1.00  0.00    -0.342 N 
ATOM     14  C   UNL     1      -0.759   1.276   4.919  1.00  0.00     0.249 C 
ATOM     15  O   UNL     1      -1.006   2.339   5.475  1.00  0.00    -0.272 OA
ATOM     16  H   UNL     1      -1.339  -0.292   3.784  1.00  0.00     0.164 HD
BRANCH  14  17
ATOM     17  C   UNL     1       0.662   0.681   4.813  1.00  0.00     0.207 C 
BRANCH  17  18
ATOM     18  C   UNL     1       0.661  -0.548   3.899  1.00  0.00     0.077 C 
BRANCH  18  19
ATOM     19  C   UNL     1       1.568  -0.360   2.704  1.00  0.00    -0.043 A 
ATOM     20  C   UNL     1       1.870   0.172   0.356  1.00  0.00     0.083 A 
ATOM     21  C   UNL     1       1.038   0.047   1.469  1.00  0.00     0.028 A 
ATOM     22  C   UNL     1       3.232  -0.109   0.468  1.00  0.00     0.134 A 
ATOM     23  C   UNL     1       3.770  -0.513   1.684  1.00  0.00     0.048 A 
ATOM     24  C   UNL     1       2.940  -0.640   2.799  1.00  0.00     0.008 A 
ATOM     25  Cl  UNL     1       1.200   0.673  -1.152  1.00  0.00    -0.080 Cl
BRANCH  22  26
ATOM     26  O   UNL     1       4.085  -0.011  -0.598  1.00  0.00    -0.506 OA
ATOM     27  H   UNL     1       3.844  -0.726  -1.217  1.00  0.00     0.293 HD
ENDBRANCH  22  26
ENDBRANCH  18  19
ENDBRANCH  17  18
BRANCH  17  28
ATOM     28  O   UNL     1       1.165   0.313   6.107  1.00  0.00    -0.383 OA
ATOM     29  H   UNL     1       1.607   1.116   6.466  1.00  0.00     0.211 HD
ENDBRANCH  17  28
ENDBRANCH  14  17
ENDBRANCH  12  13
BRANCH  12  30
ATOM     30  C   UNL     1      -4.009  -0.236   5.055  1.00  0.00     0.018 C 
ATOM     31  C   UNL     1      -5.471   0.231   5.128  1.00  0.00     0.010 C 
BRANCH  30  32
ATOM     32  C   UNL     1      -3.475  -0.539   6.476  1.00  0.00     0.002 C 
ATOM     33  C   UNL     1      -2.604  -1.782   6.594  1.00  0.00     0.004 C 
ENDBRANCH  30  32
ENDBRANCH  12  30
ENDBRANCH  10  12
ENDBRANCH   1  10
BRANCH   5  34
ATOM     34  C   UNL     1      -5.796   2.837   1.287  1.00  0.00     0.242 C 
ATOM     35  O   UNL     1      -6.534   3.730   0.871  1.00  0.00    -0.273 OA
ATOM     36  N   UNL     1      -5.909   1.530   0.868  1.00  0.00    -0.354 N 
ATOM     37  H   UNL     1      -5.352   0.814   1.336  1.00  0.00     0.163 HD
BRANCH  36  38
ATOM     38  C   UNL     1      -6.710   1.151  -0.277  1.00  0.00     0.116 C 
BRANCH  38  39
ATOM     39  C   UNL     1      -5.816   0.991  -1.505  1.00  0.00     0.023 C 
BRANCH  39  40
ATOM     40  C   UNL     1      -6.609   0.994  -2.807  1.00  0.00     0.026 C 
BRANCH  40  41
ATOM     41  C   UNL     1      -6.092   2.076  -3.755  1.00  0.00     0.146 C 
BRANCH  41  42
ATOM     42  N   UNL     1      -5.295   3.042  -3.010  1.00  0.00    -0.254 NA
ATOM     43  C   UNL     1      -5.699   4.252  -2.909  1.00  0.00     0.185 C 
ATOM     44  N   UNL     1      -6.806   4.839  -3.399  1.00  0.00    -0.370 N 
ATOM     45  N   UNL     1      -4.947   5.129  -2.222  1.00  0.00    -0.370 N 
ATOM     46  H   UNL     1      -6.875   5.841  -3.452  1.00  0.00     0.159 HD
ATOM     47  H   UNL     1      -7.494   4.317  -3.933  1.00  0.00     0.159 HD
ATOM     48  H   UNL     1      -4.097   4.765  -1.812  1.00  0.00     0.159 HD
ATOM     49  H   UNL     1      -5.299   6.012  -1.900  1.00  0.00     0.159 HD
ENDBRANCH  41  42
ENDBRANCH  40  41
ENDBRANCH  39  40
ENDBRANCH  38  39
ENDBRANCH  36  38
ENDBRANCH   5  34
BRANCH   8  50
ATOM     50  O   UNL     1      -2.175   3.529  -1.706  1.00  0.00    -0.245 OA
BRANCH  50  51
ATOM     51  S   UNL     1      -1.729   4.350  -3.037  1.00  0.00     0.397 S 
ATOM     52  O   UNL     1      -0.328   4.088  -3.275  1.00  0.00    -0.169 OA
ATOM     53  O   UNL     1      -2.249   5.700  -2.973  1.00  0.00    -0.169 OA
BRANCH  51  54
ATOM     54  O   UNL     1      -2.524   3.567  -4.196  1.00  0.00    -0.264 OA
ATOM     55  H   UNL     1      -1.865   3.247  -4.845  1.00  0.00     0.236 HD
ENDBRANCH  51  54
ENDBRANCH  50  51
ENDBRANCH   8  50
TORSDOF 19
ENDMDL
MODEL 26
REMARK VINA RESULT:    -6.605      3.494      7.740
REMARK INTER + INTRA:         -17.873
REMARK INTER:                 -14.435
REMARK INTRA:                  -3.438
REMARK UNBOUND:                -4.511
REMARK SMILES CC[C@@H](C)[C@@H](NC(=O)[C@@H](O)Cc1ccc(O)c(Cl)c1)C(=O)N1[C@H](C(=O)NCCCCN=C(N)N)C[C@H]2CC[C@H](OS(=O)(=O)O)C[C@@H]21
REMARK SMILES IDX 22 1 36 2 46 3 35 4 23 5 45 6 37 7 39 8 38 9 20 10 21 11
REMARK SMILES IDX 5 12 6 13 7 14 8 15 9 17 11 18 12 19 17 20 19 21 15 22 14 23
REMARK SMILES IDX 13 24 18 25 16 26 10 28 3 30 4 31 2 32 1 33 24 34 25 35
REMARK SMILES IDX 26 36 27 38 28 39 29 40 30 41 31 42 32 43 33 44 34 45 40 50
REMARK SMILES IDX 41 51 42 52 43 53 44 54
REMARK H PARENT 6 16 16 27 10 29 26 37 33 46 33 47 34 48 34 49 44 55
ROOT
ATOM      1  N   UNL     1      -3.919   3.450   0.972  1.00  0.00    -0.326 N 
ATOM      2  C   UNL     1      -5.779   3.708  -0.448  1.00  0.00     0.014 C 
ATOM      3  C   UNL     1      -4.499   2.890  -0.252  1.00  0.00     0.091 C 
ATOM      4  C   UNL     1      -5.379   5.084   0.062  1.00  0.00     0.041 C 
ATOM      5  C   UNL     1      -4.637   4.691   1.353  1.00  0.00     0.175 C 
ATOM      6  C   UNL     1      -4.866   1.407  -0.267  1.00  0.00     0.059 C 
ATOM      7  C   UNL     1      -6.304   3.563  -1.862  1.00  0.00     0.008 C 
ATOM      8  C   UNL     1      -6.070   1.074  -1.175  1.00  0.00     0.143 C 
ATOM      9  C   UNL     1      -6.229   2.091  -2.323  1.00  0.00     0.034 C 
ENDROOT
BRANCH   1  10
ATOM     10  C   UNL     1      -2.745   3.121   1.629  1.00  0.00     0.246 C 
ATOM     11  O   UNL     1      -2.681   3.267   2.854  1.00  0.00    -0.272 OA
BRANCH  10  12
ATOM     12  C   UNL     1      -1.551   2.536   0.820  1.00  0.00     0.174 C 
BRANCH  12  13
ATOM     13  N   UNL     1      -0.651   1.810   1.715  1.00  0.00    -0.342 N 
ATOM     14  C   UNL     1       0.304   0.905   1.311  1.00  0.00     0.249 C 
ATOM     15  O   UNL     1       0.527   0.625   0.140  1.00  0.00    -0.272 OA
ATOM     16  H   UNL     1      -0.822   1.820   2.718  1.00  0.00     0.164 HD
BRANCH  14  17
ATOM     17  C   UNL     1       1.083   0.292   2.495  1.00  0.00     0.207 C 
BRANCH  17  18
ATOM     18  C   UNL     1       2.107   1.294   3.038  1.00  0.00     0.077 C 
BRANCH  18  19
ATOM     19  C   UNL     1       1.844   1.637   4.487  1.00  0.00    -0.043 A 
ATOM     20  C   UNL     1       0.514   1.382   6.500  1.00  0.00     0.083 A 
ATOM     21  C   UNL     1       0.786   1.027   5.178  1.00  0.00     0.028 A 
ATOM     22  C   UNL     1       1.294   2.348   7.137  1.00  0.00     0.134 A 
ATOM     23  C   UNL     1       2.345   2.960   6.465  1.00  0.00     0.048 A 
ATOM     24  C   UNL     1       2.618   2.608   5.141  1.00  0.00     0.008 A 
ATOM     25  Cl  UNL     1      -0.790   0.621   7.332  1.00  0.00    -0.080 Cl
BRANCH  22  26
ATOM     26  O   UNL     1       1.060   2.736   8.429  1.00  0.00    -0.506 OA
ATOM     27  H   UNL     1       0.480   3.519   8.385  1.00  0.00     0.293 HD
ENDBRANCH  22  26
ENDBRANCH  18  19
ENDBRANCH  17  18
BRANCH  17  28
ATOM     28  O   UNL     1       1.759  -0.913   2.101  1.00  0.00    -0.383 OA
ATOM     29  H   UNL     1       1.506  -1.072   1.163  1.00  0.00     0.211 HD
ENDBRANCH  17  28
ENDBRANCH  14  17
ENDBRANCH  12  13
BRANCH  12  30
ATOM     30  C   UNL     1      -0.811   3.612  -0.019  1.00  0.00     0.018 C 
ATOM     31  C   UNL     1      -1.205   5.026   0.435  1.00  0.00     0.010 C 
BRANCH  30  32
ATOM     32  C   UNL     1      -1.025   3.464  -1.546  1.00  0.00     0.002 C 
ATOM     33  C   UNL     1      -1.596   2.126  -1.997  1.00  0.00     0.004 C 
ENDBRANCH  30  32
ENDBRANCH  12  30
ENDBRANCH  10  12
ENDBRANCH   1  10
BRANCH   5  34
ATOM     34  C   UNL     1      -5.625   4.419   2.519  1.00  0.00     0.242 C 
ATOM     35  O   UNL     1      -6.224   5.324   3.099  1.00  0.00    -0.273 OA
ATOM     36  N   UNL     1      -5.741   3.098   2.892  1.00  0.00    -0.354 N 
ATOM     37  H   UNL     1      -5.129   2.408   2.454  1.00  0.00     0.163 HD
BRANCH  36  38
ATOM     38  C   UNL     1      -6.767   2.640   3.806  1.00  0.00     0.116 C 
BRANCH  38  39
ATOM     39  C   UNL     1      -6.193   2.534   5.217  1.00  0.00     0.023 C 
BRANCH  39  40
ATOM     40  C   UNL     1      -6.102   1.091   5.702  1.00  0.00     0.026 C 
BRANCH  40  41
ATOM     41  C   UNL     1      -4.699   0.530   5.473  1.00  0.00     0.146 C 
BRANCH  41  42
ATOM     42  N   UNL     1      -4.509   0.240   4.057  1.00  0.00    -0.254 NA
ATOM     43  C   UNL     1      -3.447  -0.360   3.671  1.00  0.00     0.185 C 
ATOM     44  N   UNL     1      -2.396  -0.805   4.384  1.00  0.00    -0.370 N 
ATOM     45  N   UNL     1      -3.289  -0.614   2.361  1.00  0.00    -0.370 N 
ATOM     46  H   UNL     1      -1.528  -1.034   3.930  1.00  0.00     0.159 HD
ATOM     47  H   UNL     1      -2.357  -0.707   5.394  1.00  0.00     0.159 HD
ATOM     48  H   UNL     1      -4.041  -0.319   1.754  1.00  0.00     0.159 HD
ATOM     49  H   UNL     1      -2.618  -1.275   2.012  1.00  0.00     0.159 HD
ENDBRANCH  41  42
ENDBRANCH  40  41
ENDBRANCH  39  40
ENDBRANCH  38  39
ENDBRANCH  36  38
ENDBRANCH   5  34
BRANCH   8  50
ATOM     50  O   UNL     1      -7.274   1.064  -0.408  1.00  0.00    -0.245 OA
BRANCH  50  51
ATOM     51  S   UNL     1      -7.574  -0.176   0.601  1.00  0.00     0.397 S 
ATOM     52  O   UNL     1      -7.270  -1.404  -0.099  1.00  0.00    -0.169 OA
ATOM     53  O   UNL     1      -8.848   0.028   1.258  1.00  0.00    -0.169 OA
BRANCH  51  54
ATOM     54  O   UNL     1      -6.414  -0.001   1.701  1.00  0.00    -0.264 OA
ATOM     55  H   UNL     1      -5.582   0.204   1.228  1.00  0.00     0.236 HD
ENDBRANCH  51  54
ENDBRANCH  50  51
ENDBRANCH   8  50
TORSDOF 19
ENDMDL
MODEL 27
REMARK VINA RESULT:    -6.595      3.893      8.064
REMARK INTER + INTRA:         -17.852
REMARK INTER:                 -14.147
REMARK INTRA:                  -3.705
REMARK UNBOUND:                -4.511
REMARK SMILES CC[C@@H](C)[C@@H](NC(=O)[C@@H](O)Cc1ccc(O)c(Cl)c1)C(=O)N1[C@H](C(=O)NCCCCN=C(N)N)C[C@H]2CC[C@H](OS(=O)(=O)O)C[C@@H]21
REMARK SMILES IDX 22 1 36 2 46 3 35 4 23 5 45 6 37 7 39 8 38 9 20 10 21 11
REMARK SMILES IDX 5 12 6 13 7 14 8 15 9 17 11 18 12 19 17 20 19 21 15 22 14 23
REMARK SMILES IDX 13 24 18 25 16 26 10 28 3 30 4 31 2 32 1 33 24 34 25 35
REMARK SMILES IDX 26 36 27 38 28 39 29 40 30 41 31 42 32 43 33 44 34 45 40 50
REMARK SMILES IDX 41 51 42 52 43 53 44 54
REMARK H PARENT 6 16 16 27 10 29 26 37 33 46 33 47 34 48 34 49 44 55
ROOT
ATOM      1  N   UNL     1      -4.603   2.387   1.982  1.00  0.00    -0.326 N 
ATOM      2  C   UNL     1      -3.851   4.170   3.323  1.00  0.00     0.014 C 
ATOM      3  C   UNL     1      -4.997   3.168   3.158  1.00  0.00     0.091 C 
ATOM      4  C   UNL     1      -3.447   4.456   1.885  1.00  0.00     0.041 C 
ATOM      5  C   UNL     1      -3.444   3.027   1.313  1.00  0.00     0.175 C 
ATOM      6  C   UNL     1      -5.191   2.434   4.484  1.00  0.00     0.059 C 
ATOM      7  C   UNL     1      -4.260   5.319   4.223  1.00  0.00     0.008 C 
ATOM      8  C   UNL     1      -4.858   3.291   5.724  1.00  0.00     0.143 C 
ATOM      9  C   UNL     1      -5.037   4.798   5.451  1.00  0.00     0.034 C 
ENDROOT
BRANCH   1  10
ATOM     10  C   UNL     1      -5.261   1.348   1.346  1.00  0.00     0.246 C 
ATOM     11  O   UNL     1      -4.743   0.226   1.335  1.00  0.00    -0.272 OA
BRANCH  10  12
ATOM     12  C   UNL     1      -6.652   1.603   0.697  1.00  0.00     0.174 C 
BRANCH  12  13
ATOM     13  N   UNL     1      -6.512   1.719  -0.754  1.00  0.00    -0.342 N 
ATOM     14  C   UNL     1      -6.741   0.703  -1.654  1.00  0.00     0.249 C 
ATOM     15  O   UNL     1      -7.119  -0.418  -1.336  1.00  0.00    -0.272 OA
ATOM     16  H   UNL     1      -6.058   2.538  -1.152  1.00  0.00     0.164 HD
BRANCH  14  17
ATOM     17  C   UNL     1      -6.490   1.134  -3.115  1.00  0.00     0.207 C 
BRANCH  17  18
ATOM     18  C   UNL     1      -6.361   2.657  -3.209  1.00  0.00     0.077 C 
BRANCH  18  19
ATOM     19  C   UNL     1      -4.953   3.080  -3.566  1.00  0.00    -0.043 A 
ATOM     20  C   UNL     1      -2.839   4.092  -2.940  1.00  0.00     0.083 A 
ATOM     21  C   UNL     1      -4.119   3.657  -2.596  1.00  0.00     0.028 A 
ATOM     22  C   UNL     1      -2.385   3.955  -4.253  1.00  0.00     0.134 A 
ATOM     23  C   UNL     1      -3.201   3.386  -5.224  1.00  0.00     0.048 A 
ATOM     24  C   UNL     1      -4.483   2.951  -4.882  1.00  0.00     0.008 A 
ATOM     25  Cl  UNL     1      -1.829   4.798  -1.734  1.00  0.00    -0.080 Cl
BRANCH  22  26
ATOM     26  O   UNL     1      -1.142   4.376  -4.641  1.00  0.00    -0.506 OA
ATOM     27  H   UNL     1      -0.503   3.962  -4.031  1.00  0.00     0.293 HD
ENDBRANCH  22  26
ENDBRANCH  18  19
ENDBRANCH  17  18
BRANCH  17  28
ATOM     28  O   UNL     1      -7.553   0.692  -3.974  1.00  0.00    -0.383 OA
ATOM     29  H   UNL     1      -7.906   1.501  -4.409  1.00  0.00     0.211 HD
ENDBRANCH  17  28
ENDBRANCH  14  17
ENDBRANCH  12  13
BRANCH  12  30
ATOM     30  C   UNL     1      -7.391   2.818   1.321  1.00  0.00     0.018 C 
ATOM     31  C   UNL     1      -8.834   2.446   1.695  1.00  0.00     0.010 C 
BRANCH  30  32
ATOM     32  C   UNL     1      -7.382   4.078   0.422  1.00  0.00     0.002 C 
ATOM     33  C   UNL     1      -7.116   5.392   1.146  1.00  0.00     0.004 C 
ENDBRANCH  30  32
ENDBRANCH  12  30
ENDBRANCH  10  12
ENDBRANCH   1  10
BRANCH   5  34
ATOM     34  C   UNL     1      -2.129   2.276   1.655  1.00  0.00     0.242 C 
ATOM     35  O   UNL     1      -1.039   2.613   1.192  1.00  0.00    -0.273 OA
ATOM     36  N   UNL     1      -2.277   1.177   2.471  1.00  0.00    -0.354 N 
ATOM     37  H   UNL     1      -3.219   0.877   2.725  1.00  0.00     0.163 HD
BRANCH  36  38
ATOM     38  C   UNL     1      -1.145   0.494   3.061  1.00  0.00     0.116 C 
BRANCH  38  39
ATOM     39  C   UNL     1      -0.832   1.096   4.429  1.00  0.00     0.023 C 
BRANCH  39  40
ATOM     40  C   UNL     1       0.616   0.866   4.849  1.00  0.00     0.026 C 
BRANCH  40  41
ATOM     41  C   UNL     1       1.031   1.863   5.932  1.00  0.00     0.146 C 
BRANCH  41  42
ATOM     42  N   UNL     1       0.874   1.254   7.247  1.00  0.00    -0.254 NA
ATOM     43  C   UNL     1       0.656   1.997   8.267  1.00  0.00     0.185 C 
ATOM     44  N   UNL     1       0.534   3.334   8.353  1.00  0.00    -0.370 N 
ATOM     45  N   UNL     1       0.519   1.417   9.470  1.00  0.00    -0.370 N 
ATOM     46  H   UNL     1       0.608   3.799   9.241  1.00  0.00     0.159 HD
ATOM     47  H   UNL     1       0.597   3.929   7.533  1.00  0.00     0.159 HD
ATOM     48  H   UNL     1       0.588   0.408   9.493  1.00  0.00     0.159 HD
ATOM     49  H   UNL     1       0.118   1.891  10.260  1.00  0.00     0.159 HD
ENDBRANCH  41  42
ENDBRANCH  40  41
ENDBRANCH  39  40
ENDBRANCH  38  39
ENDBRANCH  36  38
ENDBRANCH   5  34
BRANCH   8  50
ATOM     50  O   UNL     1      -3.509   3.061   6.130  1.00  0.00    -0.245 OA
BRANCH  50  51
ATOM     51  S   UNL     1      -3.200   2.583   7.654  1.00  0.00     0.397 S 
ATOM     52  O   UNL     1      -2.475   3.645   8.316  1.00  0.00    -0.169 OA
ATOM     53  O   UNL     1      -2.711   1.220   7.647  1.00  0.00    -0.169 OA
BRANCH  51  54
ATOM     54  O   UNL     1      -4.668   2.580   8.309  1.00  0.00    -0.264 OA
ATOM     55  H   UNL     1      -5.283   2.988   7.665  1.00  0.00     0.236 HD
ENDBRANCH  51  54
ENDBRANCH  50  51
ENDBRANCH   8  50
TORSDOF 19
ENDMDL
MODEL 28
REMARK VINA RESULT:    -6.569      3.765      8.030
REMARK INTER + INTRA:         -17.800
REMARK INTER:                 -14.088
REMARK INTRA:                  -3.712
REMARK UNBOUND:                -4.511
REMARK SMILES CC[C@@H](C)[C@@H](NC(=O)[C@@H](O)Cc1ccc(O)c(Cl)c1)C(=O)N1[C@H](C(=O)NCCCCN=C(N)N)C[C@H]2CC[C@H](OS(=O)(=O)O)C[C@@H]21
REMARK SMILES IDX 22 1 36 2 46 3 35 4 23 5 45 6 37 7 39 8 38 9 20 10 21 11
REMARK SMILES IDX 5 12 6 13 7 14 8 15 9 17 11 18 12 19 17 20 19 21 15 22 14 23
REMARK SMILES IDX 13 24 18 25 16 26 10 28 3 30 4 31 2 32 1 33 24 34 25 35
REMARK SMILES IDX 26 36 27 38 28 39 29 40 30 41 31 42 32 43 33 44 34 45 40 50
REMARK SMILES IDX 41 51 42 52 43 53 44 54
REMARK H PARENT 6 16 16 27 10 29 26 37 33 46 33 47 34 48 34 49 44 55
ROOT
ATOM      1  N   UNL     1      -4.015   3.978   0.813  1.00  0.00    -0.326 N 
ATOM      2  C   UNL     1      -5.889   4.045  -0.610  1.00  0.00     0.014 C 
ATOM      3  C   UNL     1      -4.384   3.766  -0.590  1.00  0.00     0.091 C 
ATOM      4  C   UNL     1      -6.039   5.152   0.421  1.00  0.00     0.041 C 
ATOM      5  C   UNL     1      -5.145   4.599   1.547  1.00  0.00     0.175 C 
ATOM      6  C   UNL     1      -4.139   2.388  -1.203  1.00  0.00     0.059 C 
ATOM      7  C   UNL     1      -6.379   4.277  -2.026  1.00  0.00     0.008 C 
ATOM      8  C   UNL     1      -5.155   2.008  -2.302  1.00  0.00     0.143 C 
ATOM      9  C   UNL     1      -5.752   3.250  -2.994  1.00  0.00     0.034 C 
ENDROOT
BRANCH   1  10
ATOM     10  C   UNL     1      -2.778   3.889   1.429  1.00  0.00     0.246 C 
ATOM     11  O   UNL     1      -2.598   4.472   2.503  1.00  0.00    -0.272 OA
BRANCH  10  12
ATOM     12  C   UNL     1      -1.659   3.024   0.779  1.00  0.00     0.174 C 
BRANCH  12  13
ATOM     13  N   UNL     1      -1.083   2.123   1.777  1.00  0.00    -0.342 N 
ATOM     14  C   UNL     1      -1.649   0.940   2.194  1.00  0.00     0.249 C 
ATOM     15  O   UNL     1      -2.699   0.492   1.749  1.00  0.00    -0.272 OA
ATOM     16  H   UNL     1      -0.299   2.436   2.344  1.00  0.00     0.164 HD
BRANCH  14  17
ATOM     17  C   UNL     1      -0.808   0.223   3.271  1.00  0.00     0.207 C 
BRANCH  17  18
ATOM     18  C   UNL     1      -0.161  -1.039   2.693  1.00  0.00     0.077 C 
BRANCH  18  19
ATOM     19  C   UNL     1       1.082  -0.719   1.893  1.00  0.00    -0.043 A 
ATOM     20  C   UNL     1       2.159  -0.296  -0.239  1.00  0.00     0.083 A 
ATOM     21  C   UNL     1       1.003  -0.543   0.503  1.00  0.00     0.028 A 
ATOM     22  C   UNL     1       3.397  -0.225   0.400  1.00  0.00     0.134 A 
ATOM     23  C   UNL     1       3.489  -0.397   1.776  1.00  0.00     0.048 A 
ATOM     24  C   UNL     1       2.334  -0.646   2.521  1.00  0.00     0.008 A 
ATOM     25  Cl  UNL     1       2.042  -0.084  -1.947  1.00  0.00    -0.080 Cl
BRANCH  22  26
ATOM     26  O   UNL     1       4.558   0.005  -0.286  1.00  0.00    -0.506 OA
ATOM     27  H   UNL     1       4.342   0.633  -1.000  1.00  0.00     0.293 HD
ENDBRANCH  22  26
ENDBRANCH  18  19
ENDBRANCH  17  18
BRANCH  17  28
ATOM     28  O   UNL     1      -1.613  -0.131   4.406  1.00  0.00    -0.383 OA
ATOM     29  H   UNL     1      -1.253  -0.983   4.741  1.00  0.00     0.211 HD
ENDBRANCH  17  28
ENDBRANCH  14  17
ENDBRANCH  12  13
BRANCH  12  30
ATOM     30  C   UNL     1      -0.581   3.880   0.061  1.00  0.00     0.018 C 
ATOM     31  C   UNL     1      -1.040   5.341  -0.068  1.00  0.00     0.010 C 
BRANCH  30  32
ATOM     32  C   UNL     1      -0.170   3.327  -1.325  1.00  0.00     0.002 C 
ATOM     33  C   UNL     1      -0.808   1.999  -1.711  1.00  0.00     0.004 C 
ENDBRANCH  30  32
ENDBRANCH  12  30
ENDBRANCH  10  12
ENDBRANCH   1  10
BRANCH   5  34
ATOM     34  C   UNL     1      -5.893   3.541   2.402  1.00  0.00     0.242 C 
ATOM     35  O   UNL     1      -6.985   3.768   2.922  1.00  0.00    -0.273 OA
ATOM     36  N   UNL     1      -5.221   2.353   2.583  1.00  0.00    -0.354 N 
ATOM     37  H   UNL     1      -4.267   2.269   2.228  1.00  0.00     0.163 HD
BRANCH  36  38
ATOM     38  C   UNL     1      -5.854   1.188   3.165  1.00  0.00     0.116 C 
BRANCH  38  39
ATOM     39  C   UNL     1      -5.123   0.786   4.445  1.00  0.00     0.023 C 
BRANCH  39  40
ATOM     40  C   UNL     1      -6.010   0.895   5.680  1.00  0.00     0.026 C 
BRANCH  40  41
ATOM     41  C   UNL     1      -6.072   2.338   6.179  1.00  0.00     0.146 C 
BRANCH  41  42
ATOM     42  N   UNL     1      -4.828   3.024   5.855  1.00  0.00    -0.254 NA
ATOM     43  C   UNL     1      -4.844   4.279   5.601  1.00  0.00     0.185 C 
ATOM     44  N   UNL     1      -5.875   5.143   5.576  1.00  0.00    -0.370 N 
ATOM     45  N   UNL     1      -3.687   4.892   5.300  1.00  0.00    -0.370 N 
ATOM     46  H   UNL     1      -5.784   6.038   5.125  1.00  0.00     0.159 HD
ATOM     47  H   UNL     1      -6.822   4.850   5.793  1.00  0.00     0.159 HD
ATOM     48  H   UNL     1      -2.859   4.313   5.305  1.00  0.00     0.159 HD
ATOM     49  H   UNL     1      -3.579   5.890   5.323  1.00  0.00     0.159 HD
ENDBRANCH  41  42
ENDBRANCH  40  41
ENDBRANCH  39  40
ENDBRANCH  38  39
ENDBRANCH  36  38
ENDBRANCH   5  34
BRANCH   8  50
ATOM     50  O   UNL     1      -6.223   1.245  -1.740  1.00  0.00    -0.245 OA
BRANCH  50  51
ATOM     51  S   UNL     1      -6.819  -0.027  -2.560  1.00  0.00     0.397 S 
ATOM     52  O   UNL     1      -7.819   0.465  -3.481  1.00  0.00    -0.169 OA
ATOM     53  O   UNL     1      -7.100  -1.110  -1.641  1.00  0.00    -0.169 OA
BRANCH  51  54
ATOM     54  O   UNL     1      -5.564  -0.460  -3.467  1.00  0.00    -0.264 OA
ATOM     55  H   UNL     1      -4.796   0.083  -3.193  1.00  0.00     0.236 HD
ENDBRANCH  51  54
ENDBRANCH  50  51
ENDBRANCH   8  50
TORSDOF 19
ENDMDL
MODEL 29
REMARK VINA RESULT:    -6.546      3.697      8.130
REMARK INTER + INTRA:         -17.753
REMARK INTER:                 -14.272
REMARK INTRA:                  -3.481
REMARK UNBOUND:                -4.511
REMARK SMILES CC[C@@H](C)[C@@H](NC(=O)[C@@H](O)Cc1ccc(O)c(Cl)c1)C(=O)N1[C@H](C(=O)NCCCCN=C(N)N)C[C@H]2CC[C@H](OS(=O)(=O)O)C[C@@H]21
REMARK SMILES IDX 22 1 36 2 46 3 35 4 23 5 45 6 37 7 39 8 38 9 20 10 21 11
REMARK SMILES IDX 5 12 6 13 7 14 8 15 9 17 11 18 12 19 17 20 19 21 15 22 14 23
REMARK SMILES IDX 13 24 18 25 16 26 10 28 3 30 4 31 2 32 1 33 24 34 25 35
REMARK SMILES IDX 26 36 27 38 28 39 29 40 30 41 31 42 32 43 33 44 34 45 40 50
REMARK SMILES IDX 41 51 42 52 43 53 44 54
REMARK H PARENT 6 16 16 27 10 29 26 37 33 46 33 47 34 48 34 49 44 55
ROOT
ATOM      1  N   UNL     1      -4.304   2.208   5.114  1.00  0.00    -0.326 N 
ATOM      2  C   UNL     1      -2.904   3.746   6.217  1.00  0.00     0.014 C 
ATOM      3  C   UNL     1      -3.414   2.303   6.275  1.00  0.00     0.091 C 
ATOM      4  C   UNL     1      -4.105   4.505   5.674  1.00  0.00     0.041 C 
ATOM      5  C   UNL     1      -4.536   3.557   4.540  1.00  0.00     0.175 C 
ATOM      6  C   UNL     1      -2.209   1.367   6.343  1.00  0.00     0.059 C 
ATOM      7  C   UNL     1      -2.300   4.161   7.545  1.00  0.00     0.008 C 
ATOM      8  C   UNL     1      -0.995   1.969   7.083  1.00  0.00     0.143 C 
ATOM      9  C   UNL     1      -1.416   3.033   8.117  1.00  0.00     0.034 C 
ENDROOT
BRANCH   1  10
ATOM     10  C   UNL     1      -5.066   1.144   4.665  1.00  0.00     0.246 C 
ATOM     11  O   UNL     1      -6.027   0.764   5.342  1.00  0.00    -0.272 OA
BRANCH  10  12
ATOM     12  C   UNL     1      -4.725   0.477   3.300  1.00  0.00     0.174 C 
BRANCH  12  13
ATOM     13  N   UNL     1      -3.294   0.606   3.027  1.00  0.00    -0.342 N 
ATOM     14  C   UNL     1      -2.394  -0.436   3.018  1.00  0.00     0.249 C 
ATOM     15  O   UNL     1      -2.702  -1.605   3.213  1.00  0.00    -0.272 OA
ATOM     16  H   UNL     1      -2.867   1.529   3.002  1.00  0.00     0.164 HD
BRANCH  14  17
ATOM     17  C   UNL     1      -0.953   0.024   2.713  1.00  0.00     0.207 C 
BRANCH  17  18
ATOM     18  C   UNL     1       0.052  -1.061   3.112  1.00  0.00     0.077 C 
BRANCH  18  19
ATOM     19  C   UNL     1       1.327  -0.971   2.304  1.00  0.00    -0.043 A 
ATOM     20  C   UNL     1       3.729  -1.260   2.128  1.00  0.00     0.083 A 
ATOM     21  C   UNL     1       2.547  -1.391   2.857  1.00  0.00     0.028 A 
ATOM     22  C   UNL     1       3.701  -0.710   0.846  1.00  0.00     0.134 A 
ATOM     23  C   UNL     1       2.501  -0.290   0.286  1.00  0.00     0.048 A 
ATOM     24  C   UNL     1       1.316  -0.418   1.014  1.00  0.00     0.008 A 
ATOM     25  Cl  UNL     1       5.218  -1.782   2.824  1.00  0.00    -0.080 Cl
BRANCH  22  26
ATOM     26  O   UNL     1       4.836  -0.552   0.097  1.00  0.00    -0.506 OA
ATOM     27  H   UNL     1       5.591  -0.677   0.701  1.00  0.00     0.293 HD
ENDBRANCH  22  26
ENDBRANCH  18  19
ENDBRANCH  17  18
BRANCH  17  28
ATOM     28  O   UNL     1      -0.640   1.242   3.409  1.00  0.00    -0.383 OA
ATOM     29  H   UNL     1      -1.414   1.431   3.986  1.00  0.00     0.211 HD
ENDBRANCH  17  28
ENDBRANCH  14  17
ENDBRANCH  12  13
BRANCH  12  30
ATOM     30  C   UNL     1      -5.601   1.012   2.136  1.00  0.00     0.018 C 
ATOM     31  C   UNL     1      -7.062   0.567   2.303  1.00  0.00     0.010 C 
BRANCH  30  32
ATOM     32  C   UNL     1      -5.081   0.614   0.733  1.00  0.00     0.002 C 
ATOM     33  C   UNL     1      -6.049   0.864  -0.416  1.00  0.00     0.004 C 
ENDBRANCH  30  32
ENDBRANCH  12  30
ENDBRANCH  10  12
ENDBRANCH   1  10
BRANCH   5  34
ATOM     34  C   UNL     1      -3.679   3.767   3.263  1.00  0.00     0.242 C 
ATOM     35  O   UNL     1      -2.536   3.323   3.157  1.00  0.00    -0.273 OA
ATOM     36  N   UNL     1      -4.270   4.530   2.281  1.00  0.00    -0.354 N 
ATOM     37  H   UNL     1      -5.170   4.970   2.475  1.00  0.00     0.163 HD
BRANCH  36  38
ATOM     38  C   UNL     1      -3.709   4.645   0.950  1.00  0.00     0.116 C 
BRANCH  38  39
ATOM     39  C   UNL     1      -4.737   4.196  -0.086  1.00  0.00     0.023 C 
BRANCH  39  40
ATOM     40  C   UNL     1      -4.663   5.012  -1.372  1.00  0.00     0.026 C 
BRANCH  40  41
ATOM     41  C   UNL     1      -3.405   4.659  -2.166  1.00  0.00     0.146 C 
BRANCH  41  42
ATOM     42  N   UNL     1      -3.779   4.109  -3.462  1.00  0.00    -0.254 NA
ATOM     43  C   UNL     1      -3.696   2.847  -3.662  1.00  0.00     0.185 C 
ATOM     44  N   UNL     1      -3.297   1.864  -2.834  1.00  0.00    -0.370 N 
ATOM     45  N   UNL     1      -4.041   2.360  -4.865  1.00  0.00    -0.370 N 
ATOM     46  H   UNL     1      -3.049   0.959  -3.195  1.00  0.00     0.159 HD
ATOM     47  H   UNL     1      -3.013   2.055  -1.878  1.00  0.00     0.159 HD
ATOM     48  H   UNL     1      -4.362   3.034  -5.547  1.00  0.00     0.159 HD
ATOM     49  H   UNL     1      -4.229   1.386  -5.024  1.00  0.00     0.159 HD
ENDBRANCH  41  42
ENDBRANCH  40  41
ENDBRANCH  39  40
ENDBRANCH  38  39
ENDBRANCH  36  38
ENDBRANCH   5  34
BRANCH   8  50
ATOM     50  O   UNL     1      -0.102   2.574   6.148  1.00  0.00    -0.245 OA
BRANCH  50  51
ATOM     51  S   UNL     1       1.484   2.217   6.206  1.00  0.00     0.397 S 
ATOM     52  O   UNL     1       1.819   1.890   7.574  1.00  0.00    -0.169 OA
ATOM     53  O   UNL     1       2.232   3.205   5.456  1.00  0.00    -0.169 OA
BRANCH  51  54
ATOM     54  O   UNL     1       1.545   0.829   5.396  1.00  0.00    -0.264 OA
ATOM     55  H   UNL     1       1.562   1.042   4.441  1.00  0.00     0.236 HD
ENDBRANCH  51  54
ENDBRANCH  50  51
ENDBRANCH   8  50
TORSDOF 19
ENDMDL
MODEL 30
REMARK VINA RESULT:    -6.498      3.614      8.102
REMARK INTER + INTRA:         -17.657
REMARK INTER:                 -13.593
REMARK INTRA:                  -4.064
REMARK UNBOUND:                -4.511
REMARK SMILES CC[C@@H](C)[C@@H](NC(=O)[C@@H](O)Cc1ccc(O)c(Cl)c1)C(=O)N1[C@H](C(=O)NCCCCN=C(N)N)C[C@H]2CC[C@H](OS(=O)(=O)O)C[C@@H]21
REMARK SMILES IDX 22 1 36 2 46 3 35 4 23 5 45 6 37 7 39 8 38 9 20 10 21 11
REMARK SMILES IDX 5 12 6 13 7 14 8 15 9 17 11 18 12 19 17 20 19 21 15 22 14 23
REMARK SMILES IDX 13 24 18 25 16 26 10 28 3 30 4 31 2 32 1 33 24 34 25 35
REMARK SMILES IDX 26 36 27 38 28 39 29 40 30 41 31 42 32 43 33 44 34 45 40 50
REMARK SMILES IDX 41 51 42 52 43 53 44 54
REMARK H PARENT 6 16 16 27 10 29 26 37 33 46 33 47 34 48 34 49 44 55
ROOT
ATOM      1  N   UNL     1      -4.573   2.361   1.812  1.00  0.00    -0.326 N 
ATOM      2  C   UNL     1      -3.788   4.042   3.261  1.00  0.00     0.014 C 
ATOM      3  C   UNL     1      -5.012   3.176   2.948  1.00  0.00     0.091 C 
ATOM      4  C   UNL     1      -3.191   4.288   1.884  1.00  0.00     0.041 C 
ATOM      5  C   UNL     1      -3.279   2.869   1.292  1.00  0.00     0.175 C 
ATOM      6  C   UNL     1      -5.439   2.463   4.229  1.00  0.00     0.059 C 
ATOM      7  C   UNL     1      -4.169   5.226   4.128  1.00  0.00     0.008 C 
ATOM      8  C   UNL     1      -5.159   3.272   5.514  1.00  0.00     0.143 C 
ATOM      9  C   UNL     1      -5.136   4.791   5.249  1.00  0.00     0.034 C 
ENDROOT
BRANCH   1  10
ATOM     10  C   UNL     1      -5.263   1.405   1.086  1.00  0.00     0.246 C 
ATOM     11  O   UNL     1      -5.175   0.218   1.419  1.00  0.00    -0.272 OA
BRANCH  10  12
ATOM     12  C   UNL     1      -6.166   1.847  -0.102  1.00  0.00     0.174 C 
BRANCH  12  13
ATOM     13  N   UNL     1      -5.355   2.020  -1.307  1.00  0.00    -0.342 N 
ATOM     14  C   UNL     1      -5.587   1.396  -2.512  1.00  0.00     0.249 C 
ATOM     15  O   UNL     1      -6.527   0.638  -2.718  1.00  0.00    -0.272 OA
ATOM     16  H   UNL     1      -4.456   2.492  -1.246  1.00  0.00     0.164 HD
BRANCH  14  17
ATOM     17  C   UNL     1      -4.545   1.770  -3.587  1.00  0.00     0.207 C 
BRANCH  17  18
ATOM     18  C   UNL     1      -4.208   3.263  -3.510  1.00  0.00     0.077 C 
BRANCH  18  19
ATOM     19  C   UNL     1      -2.931   3.512  -2.738  1.00  0.00    -0.043 A 
ATOM     20  C   UNL     1      -0.820   2.711  -1.853  1.00  0.00     0.083 A 
ATOM     21  C   UNL     1      -1.973   2.494  -2.607  1.00  0.00     0.028 A 
ATOM     22  C   UNL     1      -0.616   3.941  -1.226  1.00  0.00     0.134 A 
ATOM     23  C   UNL     1      -1.556   4.957  -1.348  1.00  0.00     0.048 A 
ATOM     24  C   UNL     1      -2.713   4.743  -2.100  1.00  0.00     0.008 A 
ATOM     25  Cl  UNL     1       0.346   1.449  -1.702  1.00  0.00    -0.080 Cl
BRANCH  22  26
ATOM     26  O   UNL     1       0.494   4.197  -0.468  1.00  0.00    -0.506 OA
ATOM     27  H   UNL     1       1.235   3.722  -0.887  1.00  0.00     0.293 HD
ENDBRANCH  22  26
ENDBRANCH  18  19
ENDBRANCH  17  18
BRANCH  17  28
ATOM     28  O   UNL     1      -5.025   1.458  -4.904  1.00  0.00    -0.383 OA
ATOM     29  H   UNL     1      -5.938   1.822  -4.955  1.00  0.00     0.211 HD
ENDBRANCH  17  28
ENDBRANCH  14  17
ENDBRANCH  12  13
BRANCH  12  30
ATOM     30  C   UNL     1      -7.016   3.104   0.226  1.00  0.00     0.018 C 
ATOM     31  C   UNL     1      -8.340   2.708   0.897  1.00  0.00     0.010 C 
BRANCH  30  32
ATOM     32  C   UNL     1      -7.290   4.006  -1.002  1.00  0.00     0.002 C 
ATOM     33  C   UNL     1      -8.592   3.722  -1.740  1.00  0.00     0.004 C 
ENDBRANCH  30  32
ENDBRANCH  12  30
ENDBRANCH  10  12
ENDBRANCH   1  10
BRANCH   5  34
ATOM     34  C   UNL     1      -2.105   1.975   1.770  1.00  0.00     0.242 C 
ATOM     35  O   UNL     1      -0.927   2.276   1.575  1.00  0.00    -0.273 OA
ATOM     36  N   UNL     1      -2.475   0.797   2.379  1.00  0.00    -0.354 N 
ATOM     37  H   UNL     1      -3.465   0.547   2.403  1.00  0.00     0.163 HD
BRANCH  36  38
ATOM     38  C   UNL     1      -1.525  -0.047   3.073  1.00  0.00     0.116 C 
BRANCH  38  39
ATOM     39  C   UNL     1      -1.284   0.492   4.481  1.00  0.00     0.023 C 
BRANCH  39  40
ATOM     40  C   UNL     1       0.197   0.550   4.837  1.00  0.00     0.026 C 
BRANCH  40  41
ATOM     41  C   UNL     1       0.399   0.395   6.344  1.00  0.00     0.146 C 
BRANCH  41  42
ATOM     42  N   UNL     1       0.991   1.610   6.889  1.00  0.00    -0.254 NA
ATOM     43  C   UNL     1       0.502   2.131   7.951  1.00  0.00     0.185 C 
ATOM     44  N   UNL     1      -0.534   1.734   8.712  1.00  0.00    -0.370 N 
ATOM     45  N   UNL     1       1.060   3.253   8.435  1.00  0.00    -0.370 N 
ATOM     46  H   UNL     1      -0.960   2.366   9.369  1.00  0.00     0.159 HD
ATOM     47  H   UNL     1      -1.063   0.894   8.497  1.00  0.00     0.159 HD
ATOM     48  H   UNL     1       1.854   3.616   7.924  1.00  0.00     0.159 HD
ATOM     49  H   UNL     1       0.895   3.583   9.369  1.00  0.00     0.159 HD
ENDBRANCH  41  42
ENDBRANCH  40  41
ENDBRANCH  39  40
ENDBRANCH  38  39
ENDBRANCH  36  38
ENDBRANCH   5  34
BRANCH   8  50
ATOM     50  O   UNL     1      -3.900   2.890   6.069  1.00  0.00    -0.245 OA
BRANCH  50  51
ATOM     51  S   UNL     1      -3.836   2.298   7.583  1.00  0.00     0.397 S 
ATOM     52  O   UNL     1      -3.211   3.293   8.425  1.00  0.00    -0.169 OA
ATOM     53  O   UNL     1      -3.369   0.928   7.550  1.00  0.00    -0.169 OA
BRANCH  51  54
ATOM     54  O   UNL     1      -5.389   2.282   8.002  1.00  0.00    -0.264 OA
ATOM     55  H   UNL     1      -5.495   1.634   8.729  1.00  0.00     0.236 HD
ENDBRANCH  51  54
ENDBRANCH  50  51
ENDBRANCH   8  50
TORSDOF 19
ENDMDL
MODEL 31
REMARK VINA RESULT:    -6.486      3.686      7.352
REMARK INTER + INTRA:         -17.633
REMARK INTER:                 -13.768
REMARK INTRA:                  -3.865
REMARK UNBOUND:                -4.511
REMARK SMILES CC[C@@H](C)[C@@H](NC(=O)[C@@H](O)Cc1ccc(O)c(Cl)c1)C(=O)N1[C@H](C(=O)NCCCCN=C(N)N)C[C@H]2CC[C@H](OS(=O)(=O)O)C[C@@H]21
REMARK SMILES IDX 22 1 36 2 46 3 35 4 23 5 45 6 37 7 39 8 38 9 20 10 21 11
REMARK SMILES IDX 5 12 6 13 7 14 8 15 9 17 11 18 12 19 17 20 19 21 15 22 14 23
REMARK SMILES IDX 13 24 18 25 16 26 10 28 3 30 4 31 2 32 1 33 24 34 25 35
REMARK SMILES IDX 26 36 27 38 28 39 29 40 30 41 31 42 32 43 33 44 34 45 40 50
REMARK SMILES IDX 41 51 42 52 43 53 44 54
REMARK H PARENT 6 16 16 27 10 29 26 37 33 46 33 47 34 48 34 49 44 55
ROOT
ATOM      1  N   UNL     1      -4.575   2.024   2.160  1.00  0.00    -0.326 N 
ATOM      2  C   UNL     1      -3.058   2.824   3.773  1.00  0.00     0.014 C 
ATOM      3  C   UNL     1      -4.344   2.009   3.608  1.00  0.00     0.091 C 
ATOM      4  C   UNL     1      -3.184   3.874   2.680  1.00  0.00     0.041 C 
ATOM      5  C   UNL     1      -3.659   2.993   1.510  1.00  0.00     0.175 C 
ATOM      6  C   UNL     1      -4.153   0.660   4.297  1.00  0.00     0.059 C 
ATOM      7  C   UNL     1      -2.878   3.267   5.212  1.00  0.00     0.008 C 
ATOM      8  C   UNL     1      -3.224   0.717   5.529  1.00  0.00     0.143 C 
ATOM      9  C   UNL     1      -3.214   2.114   6.182  1.00  0.00     0.034 C 
ENDROOT
BRANCH   1  10
ATOM     10  C   UNL     1      -5.602   1.465   1.420  1.00  0.00     0.246 C 
ATOM     11  O   UNL     1      -5.573   0.255   1.169  1.00  0.00    -0.272 OA
BRANCH  10  12
ATOM     12  C   UNL     1      -6.789   2.359   0.956  1.00  0.00     0.174 C 
BRANCH  12  13
ATOM     13  N   UNL     1      -6.555   2.829  -0.409  1.00  0.00    -0.342 N 
ATOM     14  C   UNL     1      -6.941   2.164  -1.551  1.00  0.00     0.249 C 
ATOM     15  O   UNL     1      -7.555   1.104  -1.548  1.00  0.00    -0.272 OA
ATOM     16  H   UNL     1      -5.924   3.610  -0.572  1.00  0.00     0.164 HD
BRANCH  14  17
ATOM     17  C   UNL     1      -6.535   2.908  -2.840  1.00  0.00     0.207 C 
BRANCH  17  18
ATOM     18  C   UNL     1      -5.878   4.250  -2.500  1.00  0.00     0.077 C 
BRANCH  18  19
ATOM     19  C   UNL     1      -4.379   4.205  -2.689  1.00  0.00    -0.043 A 
ATOM     20  C   UNL     1      -2.144   4.720  -1.898  1.00  0.00     0.083 A 
ATOM     21  C   UNL     1      -3.525   4.718  -1.699  1.00  0.00     0.028 A 
ATOM     22  C   UNL     1      -1.608   4.214  -3.083  1.00  0.00     0.134 A 
ATOM     23  C   UNL     1      -2.442   3.704  -4.071  1.00  0.00     0.048 A 
ATOM     24  C   UNL     1      -3.825   3.701  -3.876  1.00  0.00     0.008 A 
ATOM     25  Cl  UNL     1      -1.111   5.354  -0.671  1.00  0.00    -0.080 Cl
BRANCH  22  26
ATOM     26  O   UNL     1      -0.261   4.205  -3.328  1.00  0.00    -0.506 OA
ATOM     27  H   UNL     1      -0.142   4.506  -4.248  1.00  0.00     0.293 HD
ENDBRANCH  22  26
ENDBRANCH  18  19
ENDBRANCH  17  18
BRANCH  17  28
ATOM     28  O   UNL     1      -7.674   3.136  -3.686  1.00  0.00    -0.383 OA
ATOM     29  H   UNL     1      -7.313   3.426  -4.555  1.00  0.00     0.211 HD
ENDBRANCH  17  28
ENDBRANCH  14  17
ENDBRANCH  12  13
BRANCH  12  30
ATOM     30  C   UNL     1      -7.083   3.523   1.941  1.00  0.00     0.018 C 
ATOM     31  C   UNL     1      -8.092   3.087   3.015  1.00  0.00     0.010 C 
BRANCH  30  32
ATOM     32  C   UNL     1      -7.572   4.817   1.246  1.00  0.00     0.002 C 
ATOM     33  C   UNL     1      -9.063   4.867   0.938  1.00  0.00     0.004 C 
ENDBRANCH  30  32
ENDBRANCH  12  30
ENDBRANCH  10  12
ENDBRANCH   1  10
BRANCH   5  34
ATOM     34  C   UNL     1      -2.473   2.258   0.829  1.00  0.00     0.242 C 
ATOM     35  O   UNL     1      -2.641   1.326   0.043  1.00  0.00    -0.273 OA
ATOM     36  N   UNL     1      -1.222   2.688   1.209  1.00  0.00    -0.354 N 
ATOM     37  H   UNL     1      -1.145   3.383   1.953  1.00  0.00     0.163 HD
BRANCH  36  38
ATOM     38  C   UNL     1      -0.018   2.268   0.522  1.00  0.00     0.116 C 
BRANCH  38  39
ATOM     39  C   UNL     1       0.683   1.175   1.326  1.00  0.00     0.023 C 
BRANCH  39  40
ATOM     40  C   UNL     1       2.118   1.546   1.686  1.00  0.00     0.026 C 
BRANCH  40  41
ATOM     41  C   UNL     1       2.485   1.010   3.069  1.00  0.00     0.146 C 
BRANCH  41  42
ATOM     42  N   UNL     1       1.397   1.267   4.003  1.00  0.00    -0.254 NA
ATOM     43  C   UNL     1       1.619   1.954   5.060  1.00  0.00     0.185 C 
ATOM     44  N   UNL     1       2.756   2.525   5.498  1.00  0.00    -0.370 N 
ATOM     45  N   UNL     1       0.603   2.176   5.910  1.00  0.00    -0.370 N 
ATOM     46  H   UNL     1       2.844   2.822   6.455  1.00  0.00     0.159 HD
ATOM     47  H   UNL     1       3.620   2.466   4.969  1.00  0.00     0.159 HD
ATOM     48  H   UNL     1      -0.293   1.787   5.649  1.00  0.00     0.159 HD
ATOM     49  H   UNL     1       0.633   2.887   6.619  1.00  0.00     0.159 HD
ENDBRANCH  41  42
ENDBRANCH  40  41
ENDBRANCH  39  40
ENDBRANCH  38  39
ENDBRANCH  36  38
ENDBRANCH   5  34
BRANCH   8  50
ATOM     50  O   UNL     1      -1.888   0.383   5.152  1.00  0.00    -0.245 OA
BRANCH  50  51
ATOM     51  S   UNL     1      -1.372  -1.152   5.302  1.00  0.00     0.397 S 
ATOM     52  O   UNL     1      -1.247  -1.713   3.975  1.00  0.00    -0.169 OA
ATOM     53  O   UNL     1      -2.127  -1.820   6.341  1.00  0.00    -0.169 OA
BRANCH  51  54
ATOM     54  O   UNL     1       0.132  -0.950   5.834  1.00  0.00    -0.264 OA
ATOM     55  H   UNL     1       0.175  -1.299   6.748  1.00  0.00     0.236 HD
ENDBRANCH  51  54
ENDBRANCH  50  51
ENDBRANCH   8  50
TORSDOF 19
ENDMDL
MODEL 32
REMARK VINA RESULT:    -6.466      3.797      7.309
REMARK INTER + INTRA:         -17.592
REMARK INTER:                 -14.031
REMARK INTRA:                  -3.562
REMARK UNBOUND:                -4.511
REMARK SMILES CC[C@@H](C)[C@@H](NC(=O)[C@@H](O)Cc1ccc(O)c(Cl)c1)C(=O)N1[C@H](C(=O)NCCCCN=C(N)N)C[C@H]2CC[C@H](OS(=O)(=O)O)C[C@@H]21
REMARK SMILES IDX 22 1 36 2 46 3 35 4 23 5 45 6 37 7 39 8 38 9 20 10 21 11
REMARK SMILES IDX 5 12 6 13 7 14 8 15 9 17 11 18 12 19 17 20 19 21 15 22 14 23
REMARK SMILES IDX 13 24 18 25 16 26 10 28 3 30 4 31 2 32 1 33 24 34 25 35
REMARK SMILES IDX 26 36 27 38 28 39 29 40 30 41 31 42 32 43 33 44 34 45 40 50
REMARK SMILES IDX 41 51 42 52 43 53 44 54
REMARK H PARENT 6 16 16 27 10 29 26 37 33 46 33 47 34 48 34 49 44 55
ROOT
ATOM      1  N   UNL     1      -3.825   2.452   1.980  1.00  0.00    -0.326 N 
ATOM      2  C   UNL     1      -3.046   3.556   3.908  1.00  0.00     0.014 C 
ATOM      3  C   UNL     1      -3.728   2.270   3.432  1.00  0.00     0.091 C 
ATOM      4  C   UNL     1      -3.602   4.603   2.955  1.00  0.00     0.041 C 
ATOM      5  C   UNL     1      -3.478   3.848   1.619  1.00  0.00     0.175 C 
ATOM      6  C   UNL     1      -2.934   1.078   3.961  1.00  0.00     0.059 C 
ATOM      7  C   UNL     1      -3.223   3.742   5.402  1.00  0.00     0.008 C 
ATOM      8  C   UNL     1      -2.256   1.338   5.324  1.00  0.00     0.143 C 
ATOM      9  C   UNL     1      -3.002   2.408   6.146  1.00  0.00     0.034 C 
ENDROOT
BRANCH   1  10
ATOM     10  C   UNL     1      -4.371   1.621   1.017  1.00  0.00     0.246 C 
ATOM     11  O   UNL     1      -3.616   1.015   0.248  1.00  0.00    -0.272 OA
BRANCH  10  12
ATOM     12  C   UNL     1      -5.914   1.434   0.949  1.00  0.00     0.174 C 
BRANCH  12  13
ATOM     13  N   UNL     1      -6.447   2.105  -0.236  1.00  0.00    -0.342 N 
ATOM     14  C   UNL     1      -6.562   1.533  -1.483  1.00  0.00     0.249 C 
ATOM     15  O   UNL     1      -6.253   0.375  -1.733  1.00  0.00    -0.272 OA
ATOM     16  H   UNL     1      -6.596   3.111  -0.221  1.00  0.00     0.164 HD
BRANCH  14  17
ATOM     17  C   UNL     1      -7.144   2.504  -2.532  1.00  0.00     0.207 C 
BRANCH  17  18
ATOM     18  C   UNL     1      -6.560   3.908  -2.345  1.00  0.00     0.077 C 
BRANCH  18  19
ATOM     19  C   UNL     1      -5.145   4.002  -2.870  1.00  0.00    -0.043 A 
ATOM     20  C   UNL     1      -3.532   3.639  -4.644  1.00  0.00     0.083 A 
ATOM     21  C   UNL     1      -4.847   3.598  -4.180  1.00  0.00     0.028 A 
ATOM     22  C   UNL     1      -2.509   4.082  -3.805  1.00  0.00     0.134 A 
ATOM     23  C   UNL     1      -2.790   4.486  -2.505  1.00  0.00     0.048 A 
ATOM     24  C   UNL     1      -4.105   4.444  -2.037  1.00  0.00     0.008 A 
ATOM     25  Cl  UNL     1      -3.185   3.138  -6.258  1.00  0.00    -0.080 Cl
BRANCH  22  26
ATOM     26  O   UNL     1      -1.203   4.131  -4.212  1.00  0.00    -0.506 OA
ATOM     27  H   UNL     1      -1.130   4.882  -4.830  1.00  0.00     0.293 HD
ENDBRANCH  22  26
ENDBRANCH  18  19
ENDBRANCH  17  18
BRANCH  17  28
ATOM     28  O   UNL     1      -8.577   2.568  -2.439  1.00  0.00    -0.383 OA
ATOM     29  H   UNL     1      -8.902   2.719  -3.356  1.00  0.00     0.211 HD
ENDBRANCH  17  28
ENDBRANCH  14  17
ENDBRANCH  12  13
BRANCH  12  30
ATOM     30  C   UNL     1      -6.630   1.878   2.253  1.00  0.00     0.018 C 
ATOM     31  C   UNL     1      -7.643   0.817   2.710  1.00  0.00     0.010 C 
BRANCH  30  32
ATOM     32  C   UNL     1      -7.320   3.260   2.143  1.00  0.00     0.002 C 
ATOM     33  C   UNL     1      -8.590   3.420   2.968  1.00  0.00     0.004 C 
ENDBRANCH  30  32
ENDBRANCH  12  30
ENDBRANCH  10  12
ENDBRANCH   1  10
BRANCH   5  34
ATOM     34  C   UNL     1      -2.037   3.927   1.049  1.00  0.00     0.242 C 
ATOM     35  O   UNL     1      -1.489   4.999   0.792  1.00  0.00    -0.273 OA
ATOM     36  N   UNL     1      -1.438   2.712   0.801  1.00  0.00    -0.354 N 
ATOM     37  H   UNL     1      -1.987   1.860   0.921  1.00  0.00     0.163 HD
BRANCH  36  38
ATOM     38  C   UNL     1      -0.031   2.596   0.476  1.00  0.00     0.116 C 
BRANCH  38  39
ATOM     39  C   UNL     1       0.600   1.477   1.301  1.00  0.00     0.023 C 
BRANCH  39  40
ATOM     40  C   UNL     1       1.623   0.673   0.505  1.00  0.00     0.026 C 
BRANCH  40  41
ATOM     41  C   UNL     1       1.469  -0.823   0.781  1.00  0.00     0.146 C 
BRANCH  41  42
ATOM     42  N   UNL     1       2.689  -1.340   1.389  1.00  0.00    -0.254 NA
ATOM     43  C   UNL     1       2.751  -1.484   2.659  1.00  0.00     0.185 C 
ATOM     44  N   UNL     1       1.829  -1.228   3.605  1.00  0.00    -0.370 N 
ATOM     45  N   UNL     1       3.886  -1.957   3.200  1.00  0.00    -0.370 N 
ATOM     46  H   UNL     1       2.094  -1.155   4.573  1.00  0.00     0.159 HD
ATOM     47  H   UNL     1       0.906  -0.877   3.369  1.00  0.00     0.159 HD
ATOM     48  H   UNL     1       4.630  -2.184   2.555  1.00  0.00     0.159 HD
ATOM     49  H   UNL     1       3.933  -2.317   4.137  1.00  0.00     0.159 HD
ENDBRANCH  41  42
ENDBRANCH  40  41
ENDBRANCH  39  40
ENDBRANCH  38  39
ENDBRANCH  36  38
ENDBRANCH   5  34
BRANCH   8  50
ATOM     50  O   UNL     1      -0.911   1.773   5.127  1.00  0.00    -0.245 OA
BRANCH  50  51
ATOM     51  S   UNL     1       0.285   1.107   6.007  1.00  0.00     0.397 S 
ATOM     52  O   UNL     1       0.104  -0.327   5.991  1.00  0.00    -0.169 OA
ATOM     53  O   UNL     1       0.443   1.840   7.246  1.00  0.00    -0.169 OA
BRANCH  51  54
ATOM     54  O   UNL     1       1.575   1.396   5.091  1.00  0.00    -0.264 OA
ATOM     55  H   UNL     1       1.303   2.007   4.377  1.00  0.00     0.236 HD
ENDBRANCH  51  54
ENDBRANCH  50  51
ENDBRANCH   8  50
TORSDOF 19
ENDMDL
MODEL 33
REMARK VINA RESULT:    -6.464      2.543      5.207
REMARK INTER + INTRA:         -17.588
REMARK INTER:                 -14.617
REMARK INTRA:                  -2.972
REMARK UNBOUND:                -4.511
REMARK SMILES CC[C@@H](C)[C@@H](NC(=O)[C@@H](O)Cc1ccc(O)c(Cl)c1)C(=O)N1[C@H](C(=O)NCCCCN=C(N)N)C[C@H]2CC[C@H](OS(=O)(=O)O)C[C@@H]21
REMARK SMILES IDX 22 1 36 2 46 3 35 4 23 5 45 6 37 7 39 8 38 9 20 10 21 11
REMARK SMILES IDX 5 12 6 13 7 14 8 15 9 17 11 18 12 19 17 20 19 21 15 22 14 23
REMARK SMILES IDX 13 24 18 25 16 26 10 28 3 30 4 31 2 32 1 33 24 34 25 35
REMARK SMILES IDX 26 36 27 38 28 39 29 40 30 41 31 42 32 43 33 44 34 45 40 50
REMARK SMILES IDX 41 51 42 52 43 53 44 54
REMARK H PARENT 6 16 16 27 10 29 26 37 33 46 33 47 34 48 34 49 44 55
ROOT
ATOM      1  N   UNL     1      -3.729   0.662   6.525  1.00  0.00    -0.326 N 
ATOM      2  C   UNL     1      -2.052  -0.195   5.112  1.00  0.00     0.014 C 
ATOM      3  C   UNL     1      -3.563   0.032   5.212  1.00  0.00     0.091 C 
ATOM      4  C   UNL     1      -1.665  -0.507   6.549  1.00  0.00     0.041 C 
ATOM      5  C   UNL     1      -2.459   0.585   7.289  1.00  0.00     0.175 C 
ATOM      6  C   UNL     1      -4.018   0.805   3.975  1.00  0.00     0.059 C 
ATOM      7  C   UNL     1      -1.725  -1.194   4.020  1.00  0.00     0.008 C 
ATOM      8  C   UNL     1      -3.192   0.493   2.708  1.00  0.00     0.143 C 
ATOM      9  C   UNL     1      -2.567  -0.916   2.757  1.00  0.00     0.034 C 
ENDROOT
BRANCH   1  10
ATOM     10  C   UNL     1      -4.881   1.078   7.170  1.00  0.00     0.246 C 
ATOM     11  O   UNL     1      -4.829   1.354   8.374  1.00  0.00    -0.272 OA
BRANCH  10  12
ATOM     12  C   UNL     1      -6.201   1.231   6.361  1.00  0.00     0.174 C 
BRANCH  12  13
ATOM     13  N   UNL     1      -6.334   2.605   5.878  1.00  0.00    -0.342 N 
ATOM     14  C   UNL     1      -6.716   2.962   4.604  1.00  0.00     0.249 C 
ATOM     15  O   UNL     1      -7.016   2.157   3.732  1.00  0.00    -0.272 OA
ATOM     16  H   UNL     1      -5.970   3.373   6.438  1.00  0.00     0.164 HD
BRANCH  14  17
ATOM     17  C   UNL     1      -6.745   4.491   4.398  1.00  0.00     0.207 C 
BRANCH  17  18
ATOM     18  C   UNL     1      -5.530   4.945   3.582  1.00  0.00     0.077 C 
BRANCH  18  19
ATOM     19  C   UNL     1      -5.773   4.815   2.095  1.00  0.00    -0.043 A 
ATOM     20  C   UNL     1      -4.916   4.628  -0.167  1.00  0.00     0.083 A 
ATOM     21  C   UNL     1      -4.691   4.697   1.208  1.00  0.00     0.028 A 
ATOM     22  C   UNL     1      -6.218   4.678  -0.665  1.00  0.00     0.134 A 
ATOM     23  C   UNL     1      -7.299   4.795   0.201  1.00  0.00     0.048 A 
ATOM     24  C   UNL     1      -7.077   4.866   1.579  1.00  0.00     0.008 A 
ATOM     25  Cl  UNL     1      -3.573   4.483  -1.240  1.00  0.00    -0.080 Cl
BRANCH  22  26
ATOM     26  O   UNL     1      -6.487   4.624  -2.006  1.00  0.00    -0.506 OA
ATOM     27  H   UNL     1      -6.955   3.783  -2.164  1.00  0.00     0.293 HD
ENDBRANCH  22  26
ENDBRANCH  18  19
ENDBRANCH  17  18
BRANCH  17  28
ATOM     28  O   UNL     1      -6.759   5.183   5.657  1.00  0.00    -0.383 OA
ATOM     29  H   UNL     1      -7.550   5.768   5.637  1.00  0.00     0.211 HD
ENDBRANCH  17  28
ENDBRANCH  14  17
ENDBRANCH  12  13
BRANCH  12  30
ATOM     30  C   UNL     1      -7.449   0.758   7.154  1.00  0.00     0.018 C 
ATOM     31  C   UNL     1      -7.412  -0.762   7.376  1.00  0.00     0.010 C 
BRANCH  30  32
ATOM     32  C   UNL     1      -8.792   1.168   6.502  1.00  0.00     0.002 C 
ATOM     33  C   UNL     1      -9.355   0.176   5.493  1.00  0.00     0.004 C 
ENDBRANCH  30  32
ENDBRANCH  12  30
ENDBRANCH  10  12
ENDBRANCH   1  10
BRANCH   5  34
ATOM     34  C   UNL     1      -1.718   1.948   7.262  1.00  0.00     0.242 C 
ATOM     35  O   UNL     1      -2.256   2.982   6.864  1.00  0.00    -0.273 OA
ATOM     36  N   UNL     1      -0.402   1.907   7.665  1.00  0.00    -0.354 N 
ATOM     37  H   UNL     1       0.021   1.001   7.869  1.00  0.00     0.163 HD
BRANCH  36  38
ATOM     38  C   UNL     1       0.370   3.109   7.907  1.00  0.00     0.116 C 
BRANCH  38  39
ATOM     39  C   UNL     1       1.506   3.208   6.892  1.00  0.00     0.023 C 
BRANCH  39  40
ATOM     40  C   UNL     1       1.417   2.136   5.811  1.00  0.00     0.026 C 
BRANCH  40  41
ATOM     41  C   UNL     1       2.671   2.142   4.937  1.00  0.00     0.146 C 
BRANCH  41  42
ATOM     42  N   UNL     1       2.299   2.355   3.544  1.00  0.00    -0.254 NA
ATOM     43  C   UNL     1       2.726   1.550   2.645  1.00  0.00     0.185 C 
ATOM     44  N   UNL     1       3.511   0.463   2.759  1.00  0.00    -0.370 N 
ATOM     45  N   UNL     1       2.376   1.766   1.367  1.00  0.00    -0.370 N 
ATOM     46  H   UNL     1       3.964   0.071   1.951  1.00  0.00     0.159 HD
ATOM     47  H   UNL     1       3.856   0.147   3.660  1.00  0.00     0.159 HD
ATOM     48  H   UNL     1       1.776   2.562   1.194  1.00  0.00     0.159 HD
ATOM     49  H   UNL     1       2.466   1.066   0.652  1.00  0.00     0.159 HD
ENDBRANCH  41  42
ENDBRANCH  40  41
ENDBRANCH  39  40
ENDBRANCH  38  39
ENDBRANCH  36  38
ENDBRANCH   5  34
BRANCH   8  50
ATOM     50  O   UNL     1      -2.143   1.450   2.560  1.00  0.00    -0.245 OA
BRANCH  50  51
ATOM     51  S   UNL     1      -1.782   2.023   1.081  1.00  0.00     0.397 S 
ATOM     52  O   UNL     1      -1.420   3.416   1.218  1.00  0.00    -0.169 OA
ATOM     53  O   UNL     1      -2.787   1.589   0.133  1.00  0.00    -0.169 OA
BRANCH  51  54
ATOM     54  O   UNL     1      -0.415   1.246   0.744  1.00  0.00    -0.264 OA
ATOM     55  H   UNL     1       0.327   1.788   1.081  1.00  0.00     0.236 HD
ENDBRANCH  51  54
ENDBRANCH  50  51
ENDBRANCH   8  50
TORSDOF 19
ENDMDL
MODEL 34
REMARK VINA RESULT:    -6.452      3.321      7.218
REMARK INTER + INTRA:         -17.564
REMARK INTER:                 -13.924
REMARK INTRA:                  -3.640
REMARK UNBOUND:                -4.511
REMARK SMILES CC[C@@H](C)[C@@H](NC(=O)[C@@H](O)Cc1ccc(O)c(Cl)c1)C(=O)N1[C@H](C(=O)NCCCCN=C(N)N)C[C@H]2CC[C@H](OS(=O)(=O)O)C[C@@H]21
REMARK SMILES IDX 22 1 36 2 46 3 35 4 23 5 45 6 37 7 39 8 38 9 20 10 21 11
REMARK SMILES IDX 5 12 6 13 7 14 8 15 9 17 11 18 12 19 17 20 19 21 15 22 14 23
REMARK SMILES IDX 13 24 18 25 16 26 10 28 3 30 4 31 2 32 1 33 24 34 25 35
REMARK SMILES IDX 26 36 27 38 28 39 29 40 30 41 31 42 32 43 33 44 34 45 40 50
REMARK SMILES IDX 41 51 42 52 43 53 44 54
REMARK H PARENT 6 16 16 27 10 29 26 37 33 46 33 47 34 48 34 49 44 55
ROOT
ATOM      1  N   UNL     1      -3.644   1.809   2.101  1.00  0.00    -0.326 N 
ATOM      2  C   UNL     1      -3.302   3.863   3.198  1.00  0.00     0.014 C 
ATOM      3  C   UNL     1      -4.255   2.667   3.120  1.00  0.00     0.091 C 
ATOM      4  C   UNL     1      -2.831   4.011   1.759  1.00  0.00     0.041 C 
ATOM      5  C   UNL     1      -2.551   2.538   1.411  1.00  0.00     0.175 C 
ATOM      6  C   UNL     1      -4.438   2.103   4.528  1.00  0.00     0.059 C 
ATOM      7  C   UNL     1      -3.963   5.040   3.888  1.00  0.00     0.008 C 
ATOM      8  C   UNL     1      -4.350   3.169   5.641  1.00  0.00     0.143 C 
ATOM      9  C   UNL     1      -4.745   4.571   5.133  1.00  0.00     0.034 C 
ENDROOT
BRANCH   1  10
ATOM     10  C   UNL     1      -4.071   0.594   1.592  1.00  0.00     0.246 C 
ATOM     11  O   UNL     1      -3.533  -0.446   1.987  1.00  0.00    -0.272 OA
BRANCH  10  12
ATOM     12  C   UNL     1      -5.244   0.560   0.570  1.00  0.00     0.174 C 
BRANCH  12  13
ATOM     13  N   UNL     1      -5.264   1.798  -0.208  1.00  0.00    -0.342 N 
ATOM     14  C   UNL     1      -5.403   1.870  -1.576  1.00  0.00     0.249 C 
ATOM     15  O   UNL     1      -5.555   0.893  -2.298  1.00  0.00    -0.272 OA
ATOM     16  H   UNL     1      -4.993   2.674   0.232  1.00  0.00     0.164 HD
BRANCH  14  17
ATOM     17  C   UNL     1      -5.367   3.320  -2.103  1.00  0.00     0.207 C 
BRANCH  17  18
ATOM     18  C   UNL     1      -4.325   3.460  -3.217  1.00  0.00     0.077 C 
BRANCH  18  19
ATOM     19  C   UNL     1      -2.924   3.589  -2.663  1.00  0.00    -0.043 A 
ATOM     20  C   UNL     1      -0.842   2.567  -1.953  1.00  0.00     0.083 A 
ATOM     21  C   UNL     1      -2.116   2.452  -2.510  1.00  0.00     0.028 A 
ATOM     22  C   UNL     1      -0.369   3.815  -1.545  1.00  0.00     0.134 A 
ATOM     23  C   UNL     1      -1.159   4.949  -1.691  1.00  0.00     0.048 A 
ATOM     24  C   UNL     1      -2.435   4.837  -2.247  1.00  0.00     0.008 A 
ATOM     25  Cl  UNL     1       0.136   1.158  -1.772  1.00  0.00    -0.080 Cl
BRANCH  22  26
ATOM     26  O   UNL     1       0.869   3.976  -0.984  1.00  0.00    -0.506 OA
ATOM     27  H   UNL     1       1.520   3.738  -1.669  1.00  0.00     0.293 HD
ENDBRANCH  22  26
ENDBRANCH  18  19
ENDBRANCH  17  18
BRANCH  17  28
ATOM     28  O   UNL     1      -5.064   4.247  -1.048  1.00  0.00    -0.383 OA
ATOM     29  H   UNL     1      -5.915   4.417  -0.583  1.00  0.00     0.211 HD
ENDBRANCH  17  28
ENDBRANCH  14  17
ENDBRANCH  12  13
BRANCH  12  30
ATOM     30  C   UNL     1      -6.613   0.258   1.237  1.00  0.00     0.018 C 
ATOM     31  C   UNL     1      -7.456  -0.677   0.355  1.00  0.00     0.010 C 
BRANCH  30  32
ATOM     32  C   UNL     1      -7.423   1.527   1.595  1.00  0.00     0.002 C 
ATOM     33  C   UNL     1      -7.859   1.633   3.051  1.00  0.00     0.004 C 
ENDBRANCH  30  32
ENDBRANCH  12  30
ENDBRANCH  10  12
ENDBRANCH   1  10
BRANCH   5  34
ATOM     34  C   UNL     1      -1.166   2.079   1.940  1.00  0.00     0.242 C 
ATOM     35  O   UNL     1      -0.112   2.405   1.393  1.00  0.00    -0.273 OA
ATOM     36  N   UNL     1      -1.203   1.238   3.029  1.00  0.00    -0.354 N 
ATOM     37  H   UNL     1      -2.109   0.907   3.363  1.00  0.00     0.163 HD
BRANCH  36  38
ATOM     38  C   UNL     1      -0.014   0.889   3.778  1.00  0.00     0.116 C 
BRANCH  38  39
ATOM     39  C   UNL     1       0.101  -0.630   3.890  1.00  0.00     0.023 C 
BRANCH  39  40
ATOM     40  C   UNL     1      -0.065  -1.327   2.544  1.00  0.00     0.026 C 
BRANCH  40  41
ATOM     41  C   UNL     1       1.022  -0.883   1.565  1.00  0.00     0.146 C 
BRANCH  41  42
ATOM     42  N   UNL     1       2.324  -0.941   2.216  1.00  0.00    -0.254 NA
ATOM     43  C   UNL     1       3.142   0.035   2.082  1.00  0.00     0.185 C 
ATOM     44  N   UNL     1       3.010   1.189   1.403  1.00  0.00    -0.370 N 
ATOM     45  N   UNL     1       4.340  -0.040   2.686  1.00  0.00    -0.370 N 
ATOM     46  H   UNL     1       3.816   1.749   1.182  1.00  0.00     0.159 HD
ATOM     47  H   UNL     1       2.159   1.415   0.897  1.00  0.00     0.159 HD
ATOM     48  H   UNL     1       4.518  -0.875   3.228  1.00  0.00     0.159 HD
ATOM     49  H   UNL     1       4.929   0.762   2.828  1.00  0.00     0.159 HD
ENDBRANCH  41  42
ENDBRANCH  40  41
ENDBRANCH  39  40
ENDBRANCH  38  39
ENDBRANCH  36  38
ENDBRANCH   5  34
BRANCH   8  50
ATOM     50  O   UNL     1      -3.020   3.232   6.156  1.00  0.00    -0.245 OA
BRANCH  50  51
ATOM     51  S   UNL     1      -2.779   3.209   7.764  1.00  0.00     0.397 S 
ATOM     52  O   UNL     1      -2.559   4.569   8.202  1.00  0.00    -0.169 OA
ATOM     53  O   UNL     1      -1.859   2.144   8.103  1.00  0.00    -0.169 OA
BRANCH  51  54
ATOM     54  O   UNL     1      -4.234   2.802   8.315  1.00  0.00    -0.264 OA
ATOM     55  H   UNL     1      -4.679   2.275   7.621  1.00  0.00     0.236 HD
ENDBRANCH  51  54
ENDBRANCH  50  51
ENDBRANCH   8  50
TORSDOF 19
ENDMDL
MODEL 35
REMARK VINA RESULT:    -6.439      3.555      6.892
REMARK INTER + INTRA:         -17.538
REMARK INTER:                 -12.798
REMARK INTRA:                  -4.740
REMARK UNBOUND:                -4.511
REMARK SMILES CC[C@@H](C)[C@@H](NC(=O)[C@@H](O)Cc1ccc(O)c(Cl)c1)C(=O)N1[C@H](C(=O)NCCCCN=C(N)N)C[C@H]2CC[C@H](OS(=O)(=O)O)C[C@@H]21
REMARK SMILES IDX 22 1 36 2 46 3 35 4 23 5 45 6 37 7 39 8 38 9 20 10 21 11
REMARK SMILES IDX 5 12 6 13 7 14 8 15 9 17 11 18 12 19 17 20 19 21 15 22 14 23
REMARK SMILES IDX 13 24 18 25 16 26 10 28 3 30 4 31 2 32 1 33 24 34 25 35
REMARK SMILES IDX 26 36 27 38 28 39 29 40 30 41 31 42 32 43 33 44 34 45 40 50
REMARK SMILES IDX 41 51 42 52 43 53 44 54
REMARK H PARENT 6 16 16 27 10 29 26 37 33 46 33 47 34 48 34 49 44 55
ROOT
ATOM      1  N   UNL     1      -4.644   2.392   2.054  1.00  0.00    -0.326 N 
ATOM      2  C   UNL     1      -2.585   2.466   3.193  1.00  0.00     0.014 C 
ATOM      3  C   UNL     1      -3.715   1.519   2.777  1.00  0.00     0.091 C 
ATOM      4  C   UNL     1      -3.321   3.769   3.462  1.00  0.00     0.041 C 
ATOM      5  C   UNL     1      -4.255   3.812   2.238  1.00  0.00     0.175 C 
ATOM      6  C   UNL     1      -3.103   0.335   2.031  1.00  0.00     0.059 C 
ATOM      7  C   UNL     1      -1.737   1.851   4.289  1.00  0.00     0.008 C 
ATOM      8  C   UNL     1      -1.687  -0.041   2.517  1.00  0.00     0.143 C 
ATOM      9  C   UNL     1      -1.452   0.365   3.986  1.00  0.00     0.034 C 
ENDROOT
BRANCH   1  10
ATOM     10  C   UNL     1      -5.860   2.097   1.462  1.00  0.00     0.246 C 
ATOM     11  O   UNL     1      -5.876   1.659   0.307  1.00  0.00    -0.272 OA
BRANCH  10  12
ATOM     12  C   UNL     1      -7.174   2.281   2.275  1.00  0.00     0.174 C 
BRANCH  12  13
ATOM     13  N   UNL     1      -6.959   1.886   3.667  1.00  0.00    -0.342 N 
ATOM     14  C   UNL     1      -6.900   2.754   4.734  1.00  0.00     0.249 C 
ATOM     15  O   UNL     1      -7.050   3.965   4.638  1.00  0.00    -0.272 OA
ATOM     16  H   UNL     1      -6.663   0.937   3.881  1.00  0.00     0.164 HD
BRANCH  14  17
ATOM     17  C   UNL     1      -6.643   2.032   6.074  1.00  0.00     0.207 C 
BRANCH  17  18
ATOM     18  C   UNL     1      -6.022   0.653   5.830  1.00  0.00     0.077 C 
BRANCH  18  19
ATOM     19  C   UNL     1      -4.641   0.543   6.438  1.00  0.00    -0.043 A 
ATOM     20  C   UNL     1      -2.734  -0.804   7.094  1.00  0.00     0.083 A 
ATOM     21  C   UNL     1      -3.986  -0.697   6.488  1.00  0.00     0.028 A 
ATOM     22  C   UNL     1      -2.130   0.323   7.654  1.00  0.00     0.134 A 
ATOM     23  C   UNL     1      -2.768   1.557   7.611  1.00  0.00     0.048 A 
ATOM     24  C   UNL     1      -4.022   1.667   7.006  1.00  0.00     0.008 A 
ATOM     25  Cl  UNL     1      -1.945  -2.336   7.146  1.00  0.00    -0.080 Cl
BRANCH  22  26
ATOM     26  O   UNL     1      -0.909   0.265   8.268  1.00  0.00    -0.506 OA
ATOM     27  H   UNL     1      -0.727   1.158   8.614  1.00  0.00     0.293 HD
ENDBRANCH  22  26
ENDBRANCH  18  19
ENDBRANCH  17  18
BRANCH  17  28
ATOM     28  O   UNL     1      -7.861   1.880   6.821  1.00  0.00    -0.383 OA
ATOM     29  H   UNL     1      -8.169   0.960   6.655  1.00  0.00     0.211 HD
ENDBRANCH  17  28
ENDBRANCH  14  17
ENDBRANCH  12  13
BRANCH  12  30
ATOM     30  C   UNL     1      -8.385   1.552   1.632  1.00  0.00     0.018 C 
ATOM     31  C   UNL     1      -9.706   2.218   2.046  1.00  0.00     0.010 C 
BRANCH  30  32
ATOM     32  C   UNL     1      -8.433   0.036   1.943  1.00  0.00     0.002 C 
ATOM     33  C   UNL     1      -7.964  -0.875   0.816  1.00  0.00     0.004 C 
ENDBRANCH  30  32
ENDBRANCH  12  30
ENDBRANCH  10  12
ENDBRANCH   1  10
BRANCH   5  34
ATOM     34  C   UNL     1      -3.524   4.350   0.980  1.00  0.00     0.242 C 
ATOM     35  O   UNL     1      -2.357   4.739   1.013  1.00  0.00    -0.273 OA
ATOM     36  N   UNL     1      -4.292   4.412  -0.162  1.00  0.00    -0.354 N 
ATOM     37  H   UNL     1      -5.286   4.189  -0.098  1.00  0.00     0.163 HD
BRANCH  36  38
ATOM     38  C   UNL     1      -3.720   4.681  -1.465  1.00  0.00     0.116 C 
BRANCH  38  39
ATOM     39  C   UNL     1      -3.990   3.507  -2.403  1.00  0.00     0.023 C 
BRANCH  39  40
ATOM     40  C   UNL     1      -2.782   3.161  -3.266  1.00  0.00     0.026 C 
BRANCH  40  41
ATOM     41  C   UNL     1      -1.681   2.516  -2.425  1.00  0.00     0.146 C 
BRANCH  41  42
ATOM     42  N   UNL     1      -0.496   3.363  -2.432  1.00  0.00    -0.254 NA
ATOM     43  C   UNL     1       0.148   3.560  -1.343  1.00  0.00     0.185 C 
ATOM     44  N   UNL     1      -0.086   3.094  -0.103  1.00  0.00    -0.370 N 
ATOM     45  N   UNL     1       1.236   4.348  -1.370  1.00  0.00    -0.370 N 
ATOM     46  H   UNL     1       0.350   3.522   0.696  1.00  0.00     0.159 HD
ATOM     47  H   UNL     1      -0.863   2.472   0.095  1.00  0.00     0.159 HD
ATOM     48  H   UNL     1       1.488   4.734  -2.270  1.00  0.00     0.159 HD
ATOM     49  H   UNL     1       1.917   4.360  -0.632  1.00  0.00     0.159 HD
ENDBRANCH  41  42
ENDBRANCH  40  41
ENDBRANCH  39  40
ENDBRANCH  38  39
ENDBRANCH  36  38
ENDBRANCH   5  34
BRANCH   8  50
ATOM     50  O   UNL     1      -0.703   0.601   1.706  1.00  0.00    -0.245 OA
BRANCH  50  51
ATOM     51  S   UNL     1       0.744  -0.108   1.485  1.00  0.00     0.397 S 
ATOM     52  O   UNL     1       1.581   0.223   2.616  1.00  0.00    -0.169 OA
ATOM     53  O   UNL     1       1.187   0.105   0.123  1.00  0.00    -0.169 OA
BRANCH  51  54
ATOM     54  O   UNL     1       0.382  -1.666   1.650  1.00  0.00    -0.264 OA
ATOM     55  H   UNL     1       0.292  -1.852   2.607  1.00  0.00     0.236 HD
ENDBRANCH  51  54
ENDBRANCH  50  51
ENDBRANCH   8  50
TORSDOF 19
ENDMDL
MODEL 36
REMARK VINA RESULT:    -6.421      3.847      7.971
REMARK INTER + INTRA:         -17.501
REMARK INTER:                 -13.823
REMARK INTRA:                  -3.677
REMARK UNBOUND:                -4.511
REMARK SMILES CC[C@@H](C)[C@@H](NC(=O)[C@@H](O)Cc1ccc(O)c(Cl)c1)C(=O)N1[C@H](C(=O)NCCCCN=C(N)N)C[C@H]2CC[C@H](OS(=O)(=O)O)C[C@@H]21
REMARK SMILES IDX 22 1 36 2 46 3 35 4 23 5 45 6 37 7 39 8 38 9 20 10 21 11
REMARK SMILES IDX 5 12 6 13 7 14 8 15 9 17 11 18 12 19 17 20 19 21 15 22 14 23
REMARK SMILES IDX 13 24 18 25 16 26 10 28 3 30 4 31 2 32 1 33 24 34 25 35
REMARK SMILES IDX 26 36 27 38 28 39 29 40 30 41 31 42 32 43 33 44 34 45 40 50
REMARK SMILES IDX 41 51 42 52 43 53 44 54
REMARK H PARENT 6 16 16 27 10 29 26 37 33 46 33 47 34 48 34 49 44 55
ROOT
ATOM      1  N   UNL     1      -4.570   2.890   2.272  1.00  0.00    -0.326 N 
ATOM      2  C   UNL     1      -3.658   4.163   4.029  1.00  0.00     0.014 C 
ATOM      3  C   UNL     1      -4.614   3.004   3.732  1.00  0.00     0.091 C 
ATOM      4  C   UNL     1      -3.868   5.084   2.837  1.00  0.00     0.041 C 
ATOM      5  C   UNL     1      -3.857   4.055   1.692  1.00  0.00     0.175 C 
ATOM      6  C   UNL     1      -4.185   1.799   4.566  1.00  0.00     0.059 C 
ATOM      7  C   UNL     1      -3.874   4.700   5.431  1.00  0.00     0.008 C 
ATOM      8  C   UNL     1      -3.550   2.175   5.923  1.00  0.00     0.143 C 
ATOM      9  C   UNL     1      -4.048   3.541   6.436  1.00  0.00     0.034 C 
ENDROOT
BRANCH   1  10
ATOM     10  C   UNL     1      -5.248   2.026   1.428  1.00  0.00     0.246 C 
ATOM     11  O   UNL     1      -4.730   0.944   1.133  1.00  0.00    -0.272 OA
BRANCH  10  12
ATOM     12  C   UNL     1      -6.662   2.416   0.906  1.00  0.00     0.174 C 
BRANCH  12  13
ATOM     13  N   UNL     1      -6.609   2.669  -0.533  1.00  0.00    -0.342 N 
ATOM     14  C   UNL     1      -6.872   1.735  -1.510  1.00  0.00     0.249 C 
ATOM     15  O   UNL     1      -7.210   0.581  -1.277  1.00  0.00    -0.272 OA
ATOM     16  H   UNL     1      -6.194   3.531  -0.878  1.00  0.00     0.164 HD
BRANCH  14  17
ATOM     17  C   UNL     1      -6.715   2.305  -2.936  1.00  0.00     0.207 C 
BRANCH  17  18
ATOM     18  C   UNL     1      -5.571   1.600  -3.672  1.00  0.00     0.077 C 
BRANCH  18  19
ATOM     19  C   UNL     1      -4.281   2.385  -3.589  1.00  0.00    -0.043 A 
ATOM     20  C   UNL     1      -2.581   3.753  -4.647  1.00  0.00     0.083 A 
ATOM     21  C   UNL     1      -3.796   3.071  -4.713  1.00  0.00     0.028 A 
ATOM     22  C   UNL     1      -1.844   3.754  -3.463  1.00  0.00     0.134 A 
ATOM     23  C   UNL     1      -2.312   3.078  -2.342  1.00  0.00     0.048 A 
ATOM     24  C   UNL     1      -3.528   2.393  -2.405  1.00  0.00     0.008 A 
ATOM     25  Cl  UNL     1      -2.001   4.590  -6.039  1.00  0.00    -0.080 Cl
BRANCH  22  26
ATOM     26  O   UNL     1      -0.642   4.399  -3.353  1.00  0.00    -0.506 OA
ATOM     27  H   UNL     1      -0.699   4.964  -2.560  1.00  0.00     0.293 HD
ENDBRANCH  22  26
ENDBRANCH  18  19
ENDBRANCH  17  18
BRANCH  17  28
ATOM     28  O   UNL     1      -6.461   3.719  -2.903  1.00  0.00    -0.383 OA
ATOM     29  H   UNL     1      -6.999   4.075  -2.161  1.00  0.00     0.211 HD
ENDBRANCH  17  28
ENDBRANCH  14  17
ENDBRANCH  12  13
BRANCH  12  30
ATOM     30  C   UNL     1      -7.287   3.598   1.694  1.00  0.00     0.018 C 
ATOM     31  C   UNL     1      -8.323   3.092   2.709  1.00  0.00     0.010 C 
BRANCH  30  32
ATOM     32  C   UNL     1      -7.917   4.684   0.788  1.00  0.00     0.002 C 
ATOM     33  C   UNL     1      -9.439   4.745   0.806  1.00  0.00     0.004 C 
ENDBRANCH  30  32
ENDBRANCH  12  30
ENDBRANCH  10  12
ENDBRANCH   1  10
BRANCH   5  34
ATOM     34  C   UNL     1      -2.410   3.667   1.286  1.00  0.00     0.242 C 
ATOM     35  O   UNL     1      -1.573   4.506   0.951  1.00  0.00    -0.273 OA
ATOM     36  N   UNL     1      -2.147   2.315   1.274  1.00  0.00    -0.354 N 
ATOM     37  H   UNL     1      -2.915   1.664   1.445  1.00  0.00     0.163 HD
BRANCH  36  38
ATOM     38  C   UNL     1      -0.805   1.790   1.131  1.00  0.00     0.116 C 
BRANCH  38  39
ATOM     39  C   UNL     1      -0.542   0.741   2.209  1.00  0.00     0.023 C 
BRANCH  39  40
ATOM     40  C   UNL     1      -1.826   0.100   2.725  1.00  0.00     0.026 C 
BRANCH  40  41
ATOM     41  C   UNL     1      -1.555  -1.312   3.246  1.00  0.00     0.146 C 
BRANCH  41  42
ATOM     42  N   UNL     1      -1.387  -1.279   4.692  1.00  0.00    -0.254 NA
ATOM     43  C   UNL     1      -0.343  -1.799   5.220  1.00  0.00     0.185 C 
ATOM     44  N   UNL     1       0.704  -2.415   4.642  1.00  0.00    -0.370 N 
ATOM     45  N   UNL     1      -0.209  -1.762   6.556  1.00  0.00    -0.370 N 
ATOM     46  H   UNL     1       1.327  -2.987   5.186  1.00  0.00     0.159 HD
ATOM     47  H   UNL     1       0.771  -2.518   3.634  1.00  0.00     0.159 HD
ATOM     48  H   UNL     1      -0.952  -1.307   7.069  1.00  0.00     0.159 HD
ATOM     49  H   UNL     1       0.667  -1.928   7.020  1.00  0.00     0.159 HD
ENDBRANCH  41  42
ENDBRANCH  40  41
ENDBRANCH  39  40
ENDBRANCH  38  39
ENDBRANCH  36  38
ENDBRANCH   5  34
BRANCH   8  50
ATOM     50  O   UNL     1      -2.129   2.227   5.801  1.00  0.00    -0.245 OA
BRANCH  50  51
ATOM     51  S   UNL     1      -1.198   1.695   7.025  1.00  0.00     0.397 S 
ATOM     52  O   UNL     1       0.110   1.389   6.491  1.00  0.00    -0.169 OA
ATOM     53  O   UNL     1      -1.939   0.736   7.817  1.00  0.00    -0.169 OA
BRANCH  51  54
ATOM     54  O   UNL     1      -1.011   3.027   7.907  1.00  0.00    -0.264 OA
ATOM     55  H   UNL     1      -1.738   3.641   7.678  1.00  0.00     0.236 HD
ENDBRANCH  51  54
ENDBRANCH  50  51
ENDBRANCH   8  50
TORSDOF 19
ENDMDL
MODEL 37
REMARK VINA RESULT:    -6.398      4.865      8.606
REMARK INTER + INTRA:         -17.454
REMARK INTER:                 -12.746
REMARK INTRA:                  -4.708
REMARK UNBOUND:                -4.511
REMARK SMILES CC[C@@H](C)[C@@H](NC(=O)[C@@H](O)Cc1ccc(O)c(Cl)c1)C(=O)N1[C@H](C(=O)NCCCCN=C(N)N)C[C@H]2CC[C@H](OS(=O)(=O)O)C[C@@H]21
REMARK SMILES IDX 22 1 36 2 46 3 35 4 23 5 45 6 37 7 39 8 38 9 20 10 21 11
REMARK SMILES IDX 5 12 6 13 7 14 8 15 9 17 11 18 12 19 17 20 19 21 15 22 14 23
REMARK SMILES IDX 13 24 18 25 16 26 10 28 3 30 4 31 2 32 1 33 24 34 25 35
REMARK SMILES IDX 26 36 27 38 28 39 29 40 30 41 31 42 32 43 33 44 34 45 40 50
REMARK SMILES IDX 41 51 42 52 43 53 44 54
REMARK H PARENT 6 16 16 27 10 29 26 37 33 46 33 47 34 48 34 49 44 55
ROOT
ATOM      1  N   UNL     1      -5.016   2.926   1.057  1.00  0.00    -0.326 N 
ATOM      2  C   UNL     1      -5.588   4.313  -0.758  1.00  0.00     0.014 C 
ATOM      3  C   UNL     1      -4.550   3.291  -0.284  1.00  0.00     0.091 C 
ATOM      4  C   UNL     1      -5.953   5.041   0.527  1.00  0.00     0.041 C 
ATOM      5  C   UNL     1      -6.101   3.844   1.485  1.00  0.00     0.175 C 
ATOM      6  C   UNL     1      -4.440   2.191  -1.337  1.00  0.00     0.059 C 
ATOM      7  C   UNL     1      -5.068   5.106  -1.940  1.00  0.00     0.008 C 
ATOM      8  C   UNL     1      -4.690   2.683  -2.779  1.00  0.00     0.143 C 
ATOM      9  C   UNL     1      -4.355   4.179  -2.947  1.00  0.00     0.034 C 
ENDROOT
BRANCH   1  10
ATOM     10  C   UNL     1      -4.467   2.054   1.981  1.00  0.00     0.246 C 
ATOM     11  O   UNL     1      -4.924   0.910   2.074  1.00  0.00    -0.272 OA
BRANCH  10  12
ATOM     12  C   UNL     1      -3.260   2.516   2.849  1.00  0.00     0.174 C 
BRANCH  12  13
ATOM     13  N   UNL     1      -2.316   1.413   3.018  1.00  0.00    -0.342 N 
ATOM     14  C   UNL     1      -1.125   1.281   2.339  1.00  0.00     0.249 C 
ATOM     15  O   UNL     1      -0.709   2.098   1.527  1.00  0.00    -0.272 OA
ATOM     16  H   UNL     1      -2.596   0.585   3.537  1.00  0.00     0.164 HD
BRANCH  14  17
ATOM     17  C   UNL     1      -0.359  -0.002   2.725  1.00  0.00     0.207 C 
BRANCH  17  18
ATOM     18  C   UNL     1       0.822   0.335   3.641  1.00  0.00     0.077 C 
BRANCH  18  19
ATOM     19  C   UNL     1       0.392   0.472   5.085  1.00  0.00    -0.043 A 
ATOM     20  C   UNL     1       0.364   1.727   7.160  1.00  0.00     0.083 A 
ATOM     21  C   UNL     1       0.719   1.626   5.815  1.00  0.00     0.028 A 
ATOM     22  C   UNL     1      -0.317   0.681   7.784  1.00  0.00     0.134 A 
ATOM     23  C   UNL     1      -0.647  -0.467   7.073  1.00  0.00     0.048 A 
ATOM     24  C   UNL     1      -0.291  -0.572   5.726  1.00  0.00     0.008 A 
ATOM     25  Cl  UNL     1       0.775   3.152   8.040  1.00  0.00    -0.080 Cl
BRANCH  22  26
ATOM     26  O   UNL     1      -0.677   0.731   9.103  1.00  0.00    -0.506 OA
ATOM     27  H   UNL     1      -0.979  -0.164   9.345  1.00  0.00     0.293 HD
ENDBRANCH  22  26
ENDBRANCH  18  19
ENDBRANCH  17  18
BRANCH  17  28
ATOM     28  O   UNL     1       0.124  -0.688   1.558  1.00  0.00    -0.383 OA
ATOM     29  H   UNL     1      -0.326  -0.268   0.790  1.00  0.00     0.211 HD
ENDBRANCH  17  28
ENDBRANCH  14  17
ENDBRANCH  12  13
BRANCH  12  30
ATOM     30  C   UNL     1      -3.698   3.134   4.204  1.00  0.00     0.018 C 
ATOM     31  C   UNL     1      -3.725   4.668   4.122  1.00  0.00     0.010 C 
BRANCH  30  32
ATOM     32  C   UNL     1      -2.830   2.681   5.403  1.00  0.00     0.002 C 
ATOM     33  C   UNL     1      -3.531   1.779   6.410  1.00  0.00     0.004 C 
ENDBRANCH  30  32
ENDBRANCH  12  30
ENDBRANCH  10  12
ENDBRANCH   1  10
BRANCH   5  34
ATOM     34  C   UNL     1      -7.488   3.163   1.341  1.00  0.00     0.242 C 
ATOM     35  O   UNL     1      -7.632   2.077   0.779  1.00  0.00    -0.273 OA
ATOM     36  N   UNL     1      -8.550   3.886   1.836  1.00  0.00    -0.354 N 
ATOM     37  H   UNL     1      -8.382   4.832   2.181  1.00  0.00     0.163 HD
BRANCH  36  38
ATOM     38  C   UNL     1      -9.873   3.316   1.980  1.00  0.00     0.116 C 
BRANCH  38  39
ATOM     39  C   UNL     1     -10.926   4.334   1.546  1.00  0.00     0.023 C 
BRANCH  39  40
ATOM     40  C   UNL     1     -10.513   5.102   0.295  1.00  0.00     0.026 C 
BRANCH  40  41
ATOM     41  C   UNL     1     -11.043   4.415  -0.963  1.00  0.00     0.146 C 
BRANCH  41  42
ATOM     42  N   UNL     1     -10.189   4.740  -2.098  1.00  0.00    -0.254 NA
ATOM     43  C   UNL     1      -9.240   3.945  -2.425  1.00  0.00     0.185 C 
ATOM     44  N   UNL     1      -8.859   2.779  -1.872  1.00  0.00    -0.370 N 
ATOM     45  N   UNL     1      -8.461   4.264  -3.472  1.00  0.00    -0.370 N 
ATOM     46  H   UNL     1      -7.955   2.387  -2.073  1.00  0.00     0.159 HD
ATOM     47  H   UNL     1      -9.349   2.381  -1.077  1.00  0.00     0.159 HD
ATOM     48  H   UNL     1      -8.686   5.126  -3.951  1.00  0.00     0.159 HD
ATOM     49  H   UNL     1      -7.865   3.598  -3.930  1.00  0.00     0.159 HD
ENDBRANCH  41  42
ENDBRANCH  40  41
ENDBRANCH  39  40
ENDBRANCH  38  39
ENDBRANCH  36  38
ENDBRANCH   5  34
BRANCH   8  50
ATOM     50  O   UNL     1      -6.058   2.482  -3.136  1.00  0.00    -0.245 OA
BRANCH  50  51
ATOM     51  S   UNL     1      -6.435   1.411  -4.300  1.00  0.00     0.397 S 
ATOM     52  O   UNL     1      -7.869   1.230  -4.294  1.00  0.00    -0.169 OA
ATOM     53  O   UNL     1      -5.527   0.284  -4.237  1.00  0.00    -0.169 OA
BRANCH  51  54
ATOM     54  O   UNL     1      -6.104   2.240  -5.638  1.00  0.00    -0.264 OA
ATOM     55  H   UNL     1      -5.538   1.677  -6.205  1.00  0.00     0.236 HD
ENDBRANCH  51  54
ENDBRANCH  50  51
ENDBRANCH   8  50
TORSDOF 19
ENDMDL
MODEL 38
REMARK VINA RESULT:    -6.391      4.047      7.419
REMARK INTER + INTRA:         -17.440
REMARK INTER:                 -14.554
REMARK INTRA:                  -2.886
REMARK UNBOUND:                -4.511
REMARK SMILES CC[C@@H](C)[C@@H](NC(=O)[C@@H](O)Cc1ccc(O)c(Cl)c1)C(=O)N1[C@H](C(=O)NCCCCN=C(N)N)C[C@H]2CC[C@H](OS(=O)(=O)O)C[C@@H]21
REMARK SMILES IDX 22 1 36 2 46 3 35 4 23 5 45 6 37 7 39 8 38 9 20 10 21 11
REMARK SMILES IDX 5 12 6 13 7 14 8 15 9 17 11 18 12 19 17 20 19 21 15 22 14 23
REMARK SMILES IDX 13 24 18 25 16 26 10 28 3 30 4 31 2 32 1 33 24 34 25 35
REMARK SMILES IDX 26 36 27 38 28 39 29 40 30 41 31 42 32 43 33 44 34 45 40 50
REMARK SMILES IDX 41 51 42 52 43 53 44 54
REMARK H PARENT 6 16 16 27 10 29 26 37 33 46 33 47 34 48 34 49 44 55
ROOT
ATOM      1  N   UNL     1      -3.949   2.504   2.091  1.00  0.00    -0.326 N 
ATOM      2  C   UNL     1      -3.212   3.817   3.901  1.00  0.00     0.014 C 
ATOM      3  C   UNL     1      -3.874   2.479   3.555  1.00  0.00     0.091 C 
ATOM      4  C   UNL     1      -3.764   4.749   2.834  1.00  0.00     0.041 C 
ATOM      5  C   UNL     1      -3.610   3.858   1.588  1.00  0.00     0.175 C 
ATOM      6  C   UNL     1      -3.076   1.360   4.221  1.00  0.00     0.059 C 
ATOM      7  C   UNL     1      -3.415   4.159   5.364  1.00  0.00     0.008 C 
ATOM      8  C   UNL     1      -2.423   1.772   5.558  1.00  0.00     0.143 C 
ATOM      9  C   UNL     1      -3.193   2.915   6.250  1.00  0.00     0.034 C 
ENDROOT
BRANCH   1  10
ATOM     10  C   UNL     1      -4.470   1.568   1.214  1.00  0.00     0.246 C 
ATOM     11  O   UNL     1      -3.697   0.866   0.554  1.00  0.00    -0.272 OA
BRANCH  10  12
ATOM     12  C   UNL     1      -6.013   1.392   1.108  1.00  0.00     0.174 C 
BRANCH  12  13
ATOM     13  N   UNL     1      -6.384   1.059  -0.267  1.00  0.00    -0.342 N 
ATOM     14  C   UNL     1      -6.888  -0.155  -0.678  1.00  0.00     0.249 C 
ATOM     15  O   UNL     1      -7.110  -1.092   0.078  1.00  0.00    -0.272 OA
ATOM     16  H   UNL     1      -6.111   1.678  -1.026  1.00  0.00     0.164 HD
BRANCH  14  17
ATOM     17  C   UNL     1      -7.165  -0.201  -2.196  1.00  0.00     0.207 C 
BRANCH  17  18
ATOM     18  C   UNL     1      -5.886   0.103  -2.983  1.00  0.00     0.077 C 
BRANCH  18  19
ATOM     19  C   UNL     1      -5.964   1.440  -3.685  1.00  0.00    -0.043 A 
ATOM     20  C   UNL     1      -6.052   3.862  -3.592  1.00  0.00     0.083 A 
ATOM     21  C   UNL     1      -5.930   2.632  -2.945  1.00  0.00     0.028 A 
ATOM     22  C   UNL     1      -6.208   3.910  -4.978  1.00  0.00     0.134 A 
ATOM     23  C   UNL     1      -6.243   2.737  -5.723  1.00  0.00     0.048 A 
ATOM     24  C   UNL     1      -6.123   1.504  -5.078  1.00  0.00     0.008 A 
ATOM     25  Cl  UNL     1      -6.009   5.316  -2.665  1.00  0.00    -0.080 Cl
BRANCH  22  26
ATOM     26  O   UNL     1      -6.342   5.092  -5.655  1.00  0.00    -0.506 OA
ATOM     27  H   UNL     1      -5.462   5.513  -5.660  1.00  0.00     0.293 HD
ENDBRANCH  22  26
ENDBRANCH  18  19
ENDBRANCH  17  18
BRANCH  17  28
ATOM     28  O   UNL     1      -8.187   0.739  -2.564  1.00  0.00    -0.383 OA
ATOM     29  H   UNL     1      -8.258   1.371  -1.814  1.00  0.00     0.211 HD
ENDBRANCH  17  28
ENDBRANCH  14  17
ENDBRANCH  12  13
BRANCH  12  30
ATOM     30  C   UNL     1      -6.796   2.617   1.653  1.00  0.00     0.018 C 
ATOM     31  C   UNL     1      -8.033   2.166   2.446  1.00  0.00     0.010 C 
BRANCH  30  32
ATOM     32  C   UNL     1      -7.206   3.629   0.556  1.00  0.00     0.002 C 
ATOM     33  C   UNL     1      -7.003   5.096   0.915  1.00  0.00     0.004 C 
ENDBRANCH  30  32
ENDBRANCH  12  30
ENDBRANCH  10  12
ENDBRANCH   1  10
BRANCH   5  34
ATOM     34  C   UNL     1      -2.161   3.892   1.034  1.00  0.00     0.242 C 
ATOM     35  O   UNL     1      -1.575   4.947   0.791  1.00  0.00    -0.273 OA
ATOM     36  N   UNL     1      -1.599   2.660   0.785  1.00  0.00    -0.354 N 
ATOM     37  H   UNL     1      -2.178   1.826   0.894  1.00  0.00     0.163 HD
BRANCH  36  38
ATOM     38  C   UNL     1      -0.194   2.499   0.475  1.00  0.00     0.116 C 
BRANCH  38  39
ATOM     39  C   UNL     1       0.401   1.383   1.331  1.00  0.00     0.023 C 
BRANCH  39  40
ATOM     40  C   UNL     1       1.548   0.661   0.632  1.00  0.00     0.026 C 
BRANCH  40  41
ATOM     41  C   UNL     1       1.438  -0.851   0.827  1.00  0.00     0.146 C 
BRANCH  41  42
ATOM     42  N   UNL     1       2.660  -1.359   1.435  1.00  0.00    -0.254 NA
ATOM     43  C   UNL     1       2.741  -1.457   2.709  1.00  0.00     0.185 C 
ATOM     44  N   UNL     1       1.838  -1.154   3.659  1.00  0.00    -0.370 N 
ATOM     45  N   UNL     1       3.879  -1.924   3.250  1.00  0.00    -0.370 N 
ATOM     46  H   UNL     1       2.119  -1.049   4.619  1.00  0.00     0.159 HD
ATOM     47  H   UNL     1       0.916  -0.800   3.424  1.00  0.00     0.159 HD
ATOM     48  H   UNL     1       4.609  -2.184   2.601  1.00  0.00     0.159 HD
ATOM     49  H   UNL     1       3.936  -2.249   4.198  1.00  0.00     0.159 HD
ENDBRANCH  41  42
ENDBRANCH  40  41
ENDBRANCH  39  40
ENDBRANCH  38  39
ENDBRANCH  36  38
ENDBRANCH   5  34
BRANCH   8  50
ATOM     50  O   UNL     1      -1.079   2.199   5.336  1.00  0.00    -0.245 OA
BRANCH  50  51
ATOM     51  S   UNL     1       0.152   1.308   5.915  1.00  0.00     0.397 S 
ATOM     52  O   UNL     1      -0.146  -0.084   5.662  1.00  0.00    -0.169 OA
ATOM     53  O   UNL     1       0.515   1.779   7.236  1.00  0.00    -0.169 OA
BRANCH  51  54
ATOM     54  O   UNL     1       1.346   1.691   4.908  1.00  0.00    -0.264 OA
ATOM     55  H   UNL     1       1.043   2.442   4.358  1.00  0.00     0.236 HD
ENDBRANCH  51  54
ENDBRANCH  50  51
ENDBRANCH   8  50
TORSDOF 19
ENDMDL
MODEL 39
REMARK VINA RESULT:    -6.374      3.015      6.531
REMARK INTER + INTRA:         -17.406
REMARK INTER:                 -14.462
REMARK INTRA:                  -2.944
REMARK UNBOUND:                -4.511
REMARK SMILES CC[C@@H](C)[C@@H](NC(=O)[C@@H](O)Cc1ccc(O)c(Cl)c1)C(=O)N1[C@H](C(=O)NCCCCN=C(N)N)C[C@H]2CC[C@H](OS(=O)(=O)O)C[C@@H]21
REMARK SMILES IDX 22 1 36 2 46 3 35 4 23 5 45 6 37 7 39 8 38 9 20 10 21 11
REMARK SMILES IDX 5 12 6 13 7 14 8 15 9 17 11 18 12 19 17 20 19 21 15 22 14 23
REMARK SMILES IDX 13 24 18 25 16 26 10 28 3 30 4 31 2 32 1 33 24 34 25 35
REMARK SMILES IDX 26 36 27 38 28 39 29 40 30 41 31 42 32 43 33 44 34 45 40 50
REMARK SMILES IDX 41 51 42 52 43 53 44 54
REMARK H PARENT 6 16 16 27 10 29 26 37 33 46 33 47 34 48 34 49 44 55
ROOT
ATOM      1  N   UNL     1      -2.907   1.125   3.798  1.00  0.00    -0.326 N 
ATOM      2  C   UNL     1      -1.398  -0.659   4.087  1.00  0.00     0.014 C 
ATOM      3  C   UNL     1      -2.030   0.243   3.023  1.00  0.00     0.091 C 
ATOM      4  C   UNL     1      -2.522  -0.821   5.099  1.00  0.00     0.041 C 
ATOM      5  C   UNL     1      -3.015   0.634   5.194  1.00  0.00     0.175 C 
ATOM      6  C   UNL     1      -0.910   0.877   2.200  1.00  0.00     0.059 C 
ATOM      7  C   UNL     1      -0.781  -1.892   3.457  1.00  0.00     0.008 C 
ATOM      8  C   UNL     1       0.340  -0.019   2.057  1.00  0.00     0.143 C 
ATOM      9  C   UNL     1      -0.005  -1.517   2.176  1.00  0.00     0.034 C 
ENDROOT
BRANCH   1  10
ATOM     10  C   UNL     1      -3.751   2.136   3.372  1.00  0.00     0.246 C 
ATOM     11  O   UNL     1      -3.293   3.273   3.212  1.00  0.00    -0.272 OA
BRANCH  10  12
ATOM     12  C   UNL     1      -5.241   1.812   3.061  1.00  0.00     0.174 C 
BRANCH  12  13
ATOM     13  N   UNL     1      -5.679   2.559   1.883  1.00  0.00    -0.342 N 
ATOM     14  C   UNL     1      -5.448   2.183   0.578  1.00  0.00     0.249 C 
ATOM     15  O   UNL     1      -4.867   1.154   0.258  1.00  0.00    -0.272 OA
ATOM     16  H   UNL     1      -6.033   3.507   1.989  1.00  0.00     0.164 HD
BRANCH  14  17
ATOM     17  C   UNL     1      -6.020   3.190  -0.442  1.00  0.00     0.207 C 
BRANCH  17  18
ATOM     18  C   UNL     1      -5.246   4.511  -0.382  1.00  0.00     0.077 C 
BRANCH  18  19
ATOM     19  C   UNL     1      -3.904   4.408  -1.071  1.00  0.00    -0.043 A 
ATOM     20  C   UNL     1      -1.481   4.442  -0.971  1.00  0.00     0.083 A 
ATOM     21  C   UNL     1      -2.717   4.489  -0.326  1.00  0.00     0.028 A 
ATOM     22  C   UNL     1      -1.421   4.317  -2.359  1.00  0.00     0.134 A 
ATOM     23  C   UNL     1      -2.589   4.236  -3.109  1.00  0.00     0.048 A 
ATOM     24  C   UNL     1      -3.828   4.284  -2.467  1.00  0.00     0.008 A 
ATOM     25  Cl  UNL     1      -0.034   4.544  -0.038  1.00  0.00    -0.080 Cl
BRANCH  22  26
ATOM     26  O   UNL     1      -0.232   4.278  -3.036  1.00  0.00    -0.506 OA
ATOM     27  H   UNL     1      -0.100   3.354  -3.317  1.00  0.00     0.293 HD
ENDBRANCH  22  26
ENDBRANCH  18  19
ENDBRANCH  17  18
BRANCH  17  28
ATOM     28  O   UNL     1      -7.413   3.442  -0.195  1.00  0.00    -0.383 OA
ATOM     29  H   UNL     1      -7.491   3.611   0.772  1.00  0.00     0.211 HD
ENDBRANCH  17  28
ENDBRANCH  14  17
ENDBRANCH  12  13
BRANCH  12  30
ATOM     30  C   UNL     1      -6.171   2.037   4.284  1.00  0.00     0.018 C 
ATOM     31  C   UNL     1      -5.606   3.130   5.206  1.00  0.00     0.010 C 
BRANCH  30  32
ATOM     32  C   UNL     1      -6.452   0.750   5.096  1.00  0.00     0.002 C 
ATOM     33  C   UNL     1      -7.069   0.969   6.471  1.00  0.00     0.004 C 
ENDBRANCH  30  32
ENDBRANCH  12  30
ENDBRANCH  10  12
ENDBRANCH   1  10
BRANCH   5  34
ATOM     34  C   UNL     1      -2.125   1.479   6.145  1.00  0.00     0.242 C 
ATOM     35  O   UNL     1      -1.973   2.691   5.999  1.00  0.00    -0.273 OA
ATOM     36  N   UNL     1      -1.476   0.765   7.127  1.00  0.00    -0.354 N 
ATOM     37  H   UNL     1      -1.546  -0.253   7.123  1.00  0.00     0.163 HD
BRANCH  36  38
ATOM     38  C   UNL     1      -0.783   1.411   8.223  1.00  0.00     0.116 C 
BRANCH  38  39
ATOM     39  C   UNL     1       0.724   1.237   8.058  1.00  0.00     0.023 C 
BRANCH  39  40
ATOM     40  C   UNL     1       1.485   2.547   8.230  1.00  0.00     0.026 C 
BRANCH  40  41
ATOM     41  C   UNL     1       0.940   3.618   7.285  1.00  0.00     0.146 C 
BRANCH  41  42
ATOM     42  N   UNL     1       0.808   4.882   7.997  1.00  0.00    -0.254 NA
ATOM     43  C   UNL     1      -0.354   5.390   8.175  1.00  0.00     0.185 C 
ATOM     44  N   UNL     1      -1.564   4.937   7.798  1.00  0.00    -0.370 N 
ATOM     45  N   UNL     1      -0.454   6.558   8.830  1.00  0.00    -0.370 N 
ATOM     46  H   UNL     1      -2.360   5.550   7.787  1.00  0.00     0.159 HD
ATOM     47  H   UNL     1      -1.673   4.057   7.302  1.00  0.00     0.159 HD
ATOM     48  H   UNL     1       0.412   6.965   9.157  1.00  0.00     0.159 HD
ATOM     49  H   UNL     1      -1.320   6.895   9.212  1.00  0.00     0.159 HD
ENDBRANCH  41  42
ENDBRANCH  40  41
ENDBRANCH  39  40
ENDBRANCH  38  39
ENDBRANCH  36  38
ENDBRANCH   5  34
BRANCH   8  50
ATOM     50  O   UNL     1       1.295   0.308   3.066  1.00  0.00    -0.245 OA
BRANCH  50  51
ATOM     51  S   UNL     1       2.542   1.288   2.704  1.00  0.00     0.397 S 
ATOM     52  O   UNL     1       2.572   2.351   3.683  1.00  0.00    -0.169 OA
ATOM     53  O   UNL     1       2.546   1.564   1.283  1.00  0.00    -0.169 OA
BRANCH  51  54
ATOM     54  O   UNL     1       3.809   0.354   3.032  1.00  0.00    -0.264 OA
ATOM     55  H   UNL     1       3.477  -0.552   3.195  1.00  0.00     0.236 HD
ENDBRANCH  51  54
ENDBRANCH  50  51
ENDBRANCH   8  50
TORSDOF 19
ENDMDL
MODEL 40
REMARK VINA RESULT:    -6.369      3.043      6.014
REMARK INTER + INTRA:         -17.395
REMARK INTER:                 -13.979
REMARK INTRA:                  -3.416
REMARK UNBOUND:                -4.511
REMARK SMILES CC[C@@H](C)[C@@H](NC(=O)[C@@H](O)Cc1ccc(O)c(Cl)c1)C(=O)N1[C@H](C(=O)NCCCCN=C(N)N)C[C@H]2CC[C@H](OS(=O)(=O)O)C[C@@H]21
REMARK SMILES IDX 22 1 36 2 46 3 35 4 23 5 45 6 37 7 39 8 38 9 20 10 21 11
REMARK SMILES IDX 5 12 6 13 7 14 8 15 9 17 11 18 12 19 17 20 19 21 15 22 14 23
REMARK SMILES IDX 13 24 18 25 16 26 10 28 3 30 4 31 2 32 1 33 24 34 25 35
REMARK SMILES IDX 26 36 27 38 28 39 29 40 30 41 31 42 32 43 33 44 34 45 40 50
REMARK SMILES IDX 41 51 42 52 43 53 44 54
REMARK H PARENT 6 16 16 27 10 29 26 37 33 46 33 47 34 48 34 49 44 55
ROOT
ATOM      1  N   UNL     1      -4.997   2.938   1.097  1.00  0.00    -0.326 N 
ATOM      2  C   UNL     1      -4.752   2.051  -1.070  1.00  0.00     0.014 C 
ATOM      3  C   UNL     1      -5.154   3.318  -0.310  1.00  0.00     0.091 C 
ATOM      4  C   UNL     1      -5.253   0.941  -0.158  1.00  0.00     0.041 C 
ATOM      5  C   UNL     1      -4.778   1.475   1.206  1.00  0.00     0.175 C 
ATOM      6  C   UNL     1      -4.322   4.484  -0.842  1.00  0.00     0.059 C 
ATOM      7  C   UNL     1      -5.232   2.105  -2.507  1.00  0.00     0.008 C 
ATOM      8  C   UNL     1      -3.956   4.355  -2.337  1.00  0.00     0.143 C 
ATOM      9  C   UNL     1      -4.980   3.502  -3.112  1.00  0.00     0.034 C 
ENDROOT
BRANCH   1  10
ATOM     10  C   UNL     1      -5.234   3.673   2.246  1.00  0.00     0.246 C 
ATOM     11  O   UNL     1      -4.493   4.624   2.515  1.00  0.00    -0.272 OA
BRANCH  10  12
ATOM     12  C   UNL     1      -6.449   3.313   3.150  1.00  0.00     0.174 C 
BRANCH  12  13
ATOM     13  N   UNL     1      -6.096   2.214   4.047  1.00  0.00    -0.342 N 
ATOM     14  C   UNL     1      -5.565   2.363   5.308  1.00  0.00     0.249 C 
ATOM     15  O   UNL     1      -5.353   3.448   5.835  1.00  0.00    -0.272 OA
ATOM     16  H   UNL     1      -6.069   1.262   3.690  1.00  0.00     0.164 HD
BRANCH  14  17
ATOM     17  C   UNL     1      -5.283   1.011   5.999  1.00  0.00     0.207 C 
BRANCH  17  18
ATOM     18  C   UNL     1      -4.433   1.220   7.257  1.00  0.00     0.077 C 
BRANCH  18  19
ATOM     19  C   UNL     1      -2.960   1.027   6.978  1.00  0.00    -0.043 A 
ATOM     20  C   UNL     1      -0.983  -0.379   6.993  1.00  0.00     0.083 A 
ATOM     21  C   UNL     1      -2.353  -0.218   7.204  1.00  0.00     0.028 A 
ATOM     22  C   UNL     1      -0.212   0.699   6.557  1.00  0.00     0.134 A 
ATOM     23  C   UNL     1      -0.800   1.938   6.329  1.00  0.00     0.048 A 
ATOM     24  C   UNL     1      -2.171   2.103   6.542  1.00  0.00     0.008 A 
ATOM     25  Cl  UNL     1      -0.256  -1.917   7.276  1.00  0.00    -0.080 Cl
BRANCH  22  26
ATOM     26  O   UNL     1       1.136   0.593   6.346  1.00  0.00    -0.506 OA
ATOM     27  H   UNL     1       1.253   0.298   5.424  1.00  0.00     0.293 HD
ENDBRANCH  22  26
ENDBRANCH  18  19
ENDBRANCH  17  18
BRANCH  17  28
ATOM     28  O   UNL     1      -4.605   0.108   5.111  1.00  0.00    -0.383 OA
ATOM     29  H   UNL     1      -5.262  -0.138   4.420  1.00  0.00     0.211 HD
ENDBRANCH  17  28
ENDBRANCH  14  17
ENDBRANCH  12  13
BRANCH  12  30
ATOM     30  C   UNL     1      -7.738   3.022   2.334  1.00  0.00     0.018 C 
ATOM     31  C   UNL     1      -8.247   4.296   1.643  1.00  0.00     0.010 C 
BRANCH  30  32
ATOM     32  C   UNL     1      -8.872   2.381   3.171  1.00  0.00     0.002 C 
ATOM     33  C   UNL     1      -9.531   3.303   4.188  1.00  0.00     0.004 C 
ENDBRANCH  30  32
ENDBRANCH  12  30
ENDBRANCH  10  12
ENDBRANCH   1  10
BRANCH   5  34
ATOM     34  C   UNL     1      -3.278   1.161   1.453  1.00  0.00     0.242 C 
ATOM     35  O   UNL     1      -2.410   1.396   0.613  1.00  0.00    -0.273 OA
ATOM     36  N   UNL     1      -2.998   0.551   2.655  1.00  0.00    -0.354 N 
ATOM     37  H   UNL     1      -3.773   0.272   3.258  1.00  0.00     0.163 HD
BRANCH  36  38
ATOM     38  C   UNL     1      -1.643   0.383   3.140  1.00  0.00     0.116 C 
BRANCH  38  39
ATOM     39  C   UNL     1      -1.376  -1.091   3.432  1.00  0.00     0.023 C 
BRANCH  39  40
ATOM     40  C   UNL     1      -0.161  -1.623   2.680  1.00  0.00     0.026 C 
BRANCH  40  41
ATOM     41  C   UNL     1       1.128  -1.010   3.229  1.00  0.00     0.146 C 
BRANCH  41  42
ATOM     42  N   UNL     1       1.760  -0.192   2.202  1.00  0.00    -0.254 NA
ATOM     43  C   UNL     1       2.046   1.030   2.453  1.00  0.00     0.185 C 
ATOM     44  N   UNL     1       1.857   1.750   3.574  1.00  0.00    -0.370 N 
ATOM     45  N   UNL     1       2.624   1.769   1.492  1.00  0.00    -0.370 N 
ATOM     46  H   UNL     1       1.903   2.755   3.552  1.00  0.00     0.159 HD
ATOM     47  H   UNL     1       1.443   1.342   4.406  1.00  0.00     0.159 HD
ATOM     48  H   UNL     1       2.809   1.299   0.616  1.00  0.00     0.159 HD
ATOM     49  H   UNL     1       3.087   2.641   1.680  1.00  0.00     0.159 HD
ENDBRANCH  41  42
ENDBRANCH  40  41
ENDBRANCH  39  40
ENDBRANCH  38  39
ENDBRANCH  36  38
ENDBRANCH   5  34
BRANCH   8  50
ATOM     50  O   UNL     1      -2.668   3.755  -2.476  1.00  0.00    -0.245 OA
BRANCH  50  51
ATOM     51  S   UNL     1      -1.602   4.380  -3.534  1.00  0.00     0.397 S 
ATOM     52  O   UNL     1      -1.943   3.893  -4.852  1.00  0.00    -0.169 OA
ATOM     53  O   UNL     1      -0.261   4.257  -3.002  1.00  0.00    -0.169 OA
BRANCH  51  54
ATOM     54  O   UNL     1      -1.997   5.939  -3.528  1.00  0.00    -0.264 OA
ATOM     55  H   UNL     1      -2.393   6.150  -4.398  1.00  0.00     0.236 HD
ENDBRANCH  51  54
ENDBRANCH  50  51
ENDBRANCH   8  50
TORSDOF 19
ENDMDL
MODEL 41
REMARK VINA RESULT:    -6.368      2.817      5.907
REMARK INTER + INTRA:         -17.393
REMARK INTER:                 -13.912
REMARK INTRA:                  -3.481
REMARK UNBOUND:                -4.511
REMARK SMILES CC[C@@H](C)[C@@H](NC(=O)[C@@H](O)Cc1ccc(O)c(Cl)c1)C(=O)N1[C@H](C(=O)NCCCCN=C(N)N)C[C@H]2CC[C@H](OS(=O)(=O)O)C[C@@H]21
REMARK SMILES IDX 22 1 36 2 46 3 35 4 23 5 45 6 37 7 39 8 38 9 20 10 21 11
REMARK SMILES IDX 5 12 6 13 7 14 8 15 9 17 11 18 12 19 17 20 19 21 15 22 14 23
REMARK SMILES IDX 13 24 18 25 16 26 10 28 3 30 4 31 2 32 1 33 24 34 25 35
REMARK SMILES IDX 26 36 27 38 28 39 29 40 30 41 31 42 32 43 33 44 34 45 40 50
REMARK SMILES IDX 41 51 42 52 43 53 44 54
REMARK H PARENT 6 16 16 27 10 29 26 37 33 46 33 47 34 48 34 49 44 55
ROOT
ATOM      1  N   UNL     1      -4.895   3.167   1.290  1.00  0.00    -0.326 N 
ATOM      2  C   UNL     1      -4.381   1.886  -0.617  1.00  0.00     0.014 C 
ATOM      3  C   UNL     1      -4.652   3.318  -0.148  1.00  0.00     0.091 C 
ATOM      4  C   UNL     1      -5.299   1.062   0.273  1.00  0.00     0.041 C 
ATOM      5  C   UNL     1      -5.030   1.731   1.634  1.00  0.00     0.175 C 
ATOM      6  C   UNL     1      -3.490   4.202  -0.598  1.00  0.00     0.059 C 
ATOM      7  C   UNL     1      -4.510   1.775  -2.123  1.00  0.00     0.008 C 
ATOM      8  C   UNL     1      -2.843   3.750  -1.925  1.00  0.00     0.143 C 
ATOM      9  C   UNL     1      -3.833   2.975  -2.818  1.00  0.00     0.034 C 
ENDROOT
BRANCH   1  10
ATOM     10  C   UNL     1      -5.211   4.122   2.241  1.00  0.00     0.246 C 
ATOM     11  O   UNL     1      -4.468   5.099   2.383  1.00  0.00    -0.272 OA
BRANCH  10  12
ATOM     12  C   UNL     1      -6.514   3.967   3.079  1.00  0.00     0.174 C 
BRANCH  12  13
ATOM     13  N   UNL     1      -6.254   3.139   4.256  1.00  0.00    -0.342 N 
ATOM     14  C   UNL     1      -5.659   3.580   5.417  1.00  0.00     0.249 C 
ATOM     15  O   UNL     1      -5.302   4.737   5.603  1.00  0.00    -0.272 OA
ATOM     16  H   UNL     1      -6.352   2.129   4.193  1.00  0.00     0.164 HD
BRANCH  14  17
ATOM     17  C   UNL     1      -5.508   2.462   6.470  1.00  0.00     0.207 C 
BRANCH  17  18
ATOM     18  C   UNL     1      -4.293   1.585   6.150  1.00  0.00     0.077 C 
BRANCH  18  19
ATOM     19  C   UNL     1      -3.020   2.153   6.736  1.00  0.00    -0.043 A 
ATOM     20  C   UNL     1      -1.901   3.604   8.326  1.00  0.00     0.083 A 
ATOM     21  C   UNL     1      -3.075   3.043   7.820  1.00  0.00     0.028 A 
ATOM     22  C   UNL     1      -0.670   3.281   7.754  1.00  0.00     0.134 A 
ATOM     23  C   UNL     1      -0.602   2.401   6.681  1.00  0.00     0.048 A 
ATOM     24  C   UNL     1      -1.774   1.840   6.171  1.00  0.00     0.008 A 
ATOM     25  Cl  UNL     1      -1.988   4.695   9.658  1.00  0.00    -0.080 Cl
BRANCH  22  26
ATOM     26  O   UNL     1       0.506   3.814   8.210  1.00  0.00    -0.506 OA
ATOM     27  H   UNL     1       1.012   4.090   7.423  1.00  0.00     0.293 HD
ENDBRANCH  22  26
ENDBRANCH  18  19
ENDBRANCH  17  18
BRANCH  17  28
ATOM     28  O   UNL     1      -6.686   1.642   6.527  1.00  0.00    -0.383 OA
ATOM     29  H   UNL     1      -6.422   0.762   6.177  1.00  0.00     0.211 HD
ENDBRANCH  17  28
ENDBRANCH  14  17
ENDBRANCH  12  13
BRANCH  12  30
ATOM     30  C   UNL     1      -7.709   3.444   2.238  1.00  0.00     0.018 C 
ATOM     31  C   UNL     1      -8.204   4.522   1.262  1.00  0.00     0.010 C 
BRANCH  30  32
ATOM     32  C   UNL     1      -8.888   2.919   3.094  1.00  0.00     0.002 C 
ATOM     33  C   UNL     1     -10.271   3.369   2.642  1.00  0.00     0.004 C 
ENDBRANCH  30  32
ENDBRANCH  12  30
ENDBRANCH  10  12
ENDBRANCH   1  10
BRANCH   5  34
ATOM     34  C   UNL     1      -3.726   1.196   2.286  1.00  0.00     0.242 C 
ATOM     35  O   UNL     1      -2.704   1.877   2.367  1.00  0.00    -0.273 OA
ATOM     36  N   UNL     1      -3.780  -0.110   2.718  1.00  0.00    -0.354 N 
ATOM     37  H   UNL     1      -4.615  -0.661   2.515  1.00  0.00     0.163 HD
BRANCH  36  38
ATOM     38  C   UNL     1      -2.739  -0.698   3.536  1.00  0.00     0.116 C 
BRANCH  38  39
ATOM     39  C   UNL     1      -1.801  -1.528   2.663  1.00  0.00     0.023 C 
BRANCH  39  40
ATOM     40  C   UNL     1      -0.337  -1.359   3.057  1.00  0.00     0.026 C 
BRANCH  40  41
ATOM     41  C   UNL     1       0.210  -0.025   2.552  1.00  0.00     0.146 C 
BRANCH  41  42
ATOM     42  N   UNL     1       0.951  -0.233   1.314  1.00  0.00    -0.254 NA
ATOM     43  C   UNL     1       1.475   0.769   0.714  1.00  0.00     0.185 C 
ATOM     44  N   UNL     1       1.469   2.074   1.041  1.00  0.00    -0.370 N 
ATOM     45  N   UNL     1       2.150   0.556  -0.428  1.00  0.00    -0.370 N 
ATOM     46  H   UNL     1       1.707   2.774   0.360  1.00  0.00     0.159 HD
ATOM     47  H   UNL     1       1.014   2.410   1.884  1.00  0.00     0.159 HD
ATOM     48  H   UNL     1       2.210  -0.403  -0.741  1.00  0.00     0.159 HD
ATOM     49  H   UNL     1       2.779   1.233  -0.822  1.00  0.00     0.159 HD
ENDBRANCH  41  42
ENDBRANCH  40  41
ENDBRANCH  39  40
ENDBRANCH  38  39
ENDBRANCH  36  38
ENDBRANCH   5  34
BRANCH   8  50
ATOM     50  O   UNL     1      -1.718   2.910  -1.660  1.00  0.00    -0.245 OA
BRANCH  50  51
ATOM     51  S   UNL     1      -0.215   3.519  -1.784  1.00  0.00     0.397 S 
ATOM     52  O   UNL     1       0.680   2.434  -2.118  1.00  0.00    -0.169 OA
ATOM     53  O   UNL     1       0.045   4.402  -0.666  1.00  0.00    -0.169 OA
BRANCH  51  54
ATOM     54  O   UNL     1      -0.326   4.420  -3.111  1.00  0.00    -0.264 OA
ATOM     55  H   UNL     1      -0.809   5.238  -2.877  1.00  0.00     0.236 HD
ENDBRANCH  51  54
ENDBRANCH  50  51
ENDBRANCH   8  50
TORSDOF 19
ENDMDL
MODEL 42
REMARK VINA RESULT:    -6.354      3.327      6.039
REMARK INTER + INTRA:         -17.366
REMARK INTER:                 -13.260
REMARK INTRA:                  -4.106
REMARK UNBOUND:                -4.511
REMARK SMILES CC[C@@H](C)[C@@H](NC(=O)[C@@H](O)Cc1ccc(O)c(Cl)c1)C(=O)N1[C@H](C(=O)NCCCCN=C(N)N)C[C@H]2CC[C@H](OS(=O)(=O)O)C[C@@H]21
REMARK SMILES IDX 22 1 36 2 46 3 35 4 23 5 45 6 37 7 39 8 38 9 20 10 21 11
REMARK SMILES IDX 5 12 6 13 7 14 8 15 9 17 11 18 12 19 17 20 19 21 15 22 14 23
REMARK SMILES IDX 13 24 18 25 16 26 10 28 3 30 4 31 2 32 1 33 24 34 25 35
REMARK SMILES IDX 26 36 27 38 28 39 29 40 30 41 31 42 32 43 33 44 34 45 40 50
REMARK SMILES IDX 41 51 42 52 43 53 44 54
REMARK H PARENT 6 16 16 27 10 29 26 37 33 46 33 47 34 48 34 49 44 55
ROOT
ATOM      1  N   UNL     1      -4.045   2.207   2.435  1.00  0.00    -0.326 N 
ATOM      2  C   UNL     1      -3.709   1.785   0.143  1.00  0.00     0.014 C 
ATOM      3  C   UNL     1      -3.982   2.907   1.149  1.00  0.00     0.091 C 
ATOM      4  C   UNL     1      -4.479   0.613   0.732  1.00  0.00     0.041 C 
ATOM      5  C   UNL     1      -4.077   0.740   2.213  1.00  0.00     0.175 C 
ATOM      6  C   UNL     1      -2.920   3.990   0.964  1.00  0.00     0.059 C 
ATOM      7  C   UNL     1      -4.014   2.239  -1.271  1.00  0.00     0.008 C 
ATOM      8  C   UNL     1      -2.418   4.126  -0.490  1.00  0.00     0.143 C 
ATOM      9  C   UNL     1      -3.475   3.664  -1.513  1.00  0.00     0.034 C 
ENDROOT
BRANCH   1  10
ATOM     10  C   UNL     1      -4.285   2.703   3.705  1.00  0.00     0.246 C 
ATOM     11  O   UNL     1      -3.333   2.869   4.475  1.00  0.00    -0.272 OA
BRANCH  10  12
ATOM     12  C   UNL     1      -5.737   3.081   4.119  1.00  0.00     0.174 C 
BRANCH  12  13
ATOM     13  N   UNL     1      -6.695   2.255   3.385  1.00  0.00    -0.342 N 
ATOM     14  C   UNL     1      -7.448   1.241   3.934  1.00  0.00     0.249 C 
ATOM     15  O   UNL     1      -7.417   0.934   5.119  1.00  0.00    -0.272 OA
ATOM     16  H   UNL     1      -6.714   2.288   2.369  1.00  0.00     0.164 HD
BRANCH  14  17
ATOM     17  C   UNL     1      -8.354   0.544   2.898  1.00  0.00     0.207 C 
BRANCH  17  18
ATOM     18  C   UNL     1      -8.825   1.545   1.838  1.00  0.00     0.077 C 
BRANCH  18  19
ATOM     19  C   UNL     1      -8.258   1.227   0.473  1.00  0.00    -0.043 A 
ATOM     20  C   UNL     1      -7.510   1.959  -1.716  1.00  0.00     0.083 A 
ATOM     21  C   UNL     1      -7.987   2.259  -0.439  1.00  0.00     0.028 A 
ATOM     22  C   UNL     1      -7.304   0.630  -2.089  1.00  0.00     0.134 A 
ATOM     23  C   UNL     1      -7.569  -0.401  -1.196  1.00  0.00     0.048 A 
ATOM     24  C   UNL     1      -8.048  -0.104   0.082  1.00  0.00     0.008 A 
ATOM     25  Cl  UNL     1      -7.183   3.240  -2.822  1.00  0.00    -0.080 Cl
BRANCH  22  26
ATOM     26  O   UNL     1      -6.848   0.286  -3.333  1.00  0.00    -0.506 OA
ATOM     27  H   UNL     1      -6.398   1.073  -3.694  1.00  0.00     0.293 HD
ENDBRANCH  22  26
ENDBRANCH  18  19
ENDBRANCH  17  18
BRANCH  17  28
ATOM     28  O   UNL     1      -9.497  -0.055   3.529  1.00  0.00    -0.383 OA
ATOM     29  H   UNL     1     -10.229  -0.002   2.874  1.00  0.00     0.211 HD
ENDBRANCH  17  28
ENDBRANCH  14  17
ENDBRANCH  12  13
BRANCH  12  30
ATOM     30  C   UNL     1      -6.028   4.598   3.971  1.00  0.00     0.018 C 
ATOM     31  C   UNL     1      -6.487   5.200   5.309  1.00  0.00     0.010 C 
BRANCH  30  32
ATOM     32  C   UNL     1      -7.053   4.929   2.860  1.00  0.00     0.002 C 
ATOM     33  C   UNL     1      -6.463   5.144   1.472  1.00  0.00     0.004 C 
ENDBRANCH  30  32
ENDBRANCH  12  30
ENDBRANCH  10  12
ENDBRANCH   1  10
BRANCH   5  34
ATOM     34  C   UNL     1      -2.684   0.112   2.484  1.00  0.00     0.242 C 
ATOM     35  O   UNL     1      -2.473  -1.095   2.369  1.00  0.00    -0.273 OA
ATOM     36  N   UNL     1      -1.718   0.994   2.914  1.00  0.00    -0.354 N 
ATOM     37  H   UNL     1      -1.984   1.960   3.105  1.00  0.00     0.163 HD
BRANCH  36  38
ATOM     38  C   UNL     1      -0.320   0.625   3.005  1.00  0.00     0.116 C 
BRANCH  38  39
ATOM     39  C   UNL     1       0.228   1.006   4.378  1.00  0.00     0.023 C 
BRANCH  39  40
ATOM     40  C   UNL     1      -0.254   0.068   5.479  1.00  0.00     0.026 C 
BRANCH  40  41
ATOM     41  C   UNL     1      -0.233   0.769   6.837  1.00  0.00     0.146 C 
BRANCH  41  42
ATOM     42  N   UNL     1      -0.804   2.104   6.711  1.00  0.00    -0.254 NA
ATOM     43  C   UNL     1      -0.969   2.823   7.757  1.00  0.00     0.185 C 
ATOM     44  N   UNL     1      -0.689   2.554   9.045  1.00  0.00    -0.370 N 
ATOM     45  N   UNL     1      -1.501   4.049   7.620  1.00  0.00    -0.370 N 
ATOM     46  H   UNL     1      -1.092   3.106   9.784  1.00  0.00     0.159 HD
ATOM     47  H   UNL     1      -0.268   1.674   9.327  1.00  0.00     0.159 HD
ATOM     48  H   UNL     1      -1.734   4.334   6.678  1.00  0.00     0.159 HD
ATOM     49  H   UNL     1      -1.443   4.750   8.337  1.00  0.00     0.159 HD
ENDBRANCH  41  42
ENDBRANCH  40  41
ENDBRANCH  39  40
ENDBRANCH  38  39
ENDBRANCH  36  38
ENDBRANCH   5  34
BRANCH   8  50
ATOM     50  O   UNL     1      -1.236   3.347  -0.675  1.00  0.00    -0.245 OA
BRANCH  50  51
ATOM     51  S   UNL     1       0.221   4.026  -0.425  1.00  0.00     0.397 S 
ATOM     52  O   UNL     1       0.043   5.145   0.474  1.00  0.00    -0.169 OA
ATOM     53  O   UNL     1       0.914   4.169  -1.688  1.00  0.00    -0.169 OA
BRANCH  51  54
ATOM     54  O   UNL     1       0.976   2.894   0.431  1.00  0.00    -0.264 OA
ATOM     55  H   UNL     1       1.593   2.427  -0.170  1.00  0.00     0.236 HD
ENDBRANCH  51  54
ENDBRANCH  50  51
ENDBRANCH   8  50
TORSDOF 19
ENDMDL
MODEL 43
REMARK VINA RESULT:    -6.349      4.383      8.234
REMARK INTER + INTRA:         -17.356
REMARK INTER:                 -13.936
REMARK INTRA:                  -3.420
REMARK UNBOUND:                -4.511
REMARK SMILES CC[C@@H](C)[C@@H](NC(=O)[C@@H](O)Cc1ccc(O)c(Cl)c1)C(=O)N1[C@H](C(=O)NCCCCN=C(N)N)C[C@H]2CC[C@H](OS(=O)(=O)O)C[C@@H]21
REMARK SMILES IDX 22 1 36 2 46 3 35 4 23 5 45 6 37 7 39 8 38 9 20 10 21 11
REMARK SMILES IDX 5 12 6 13 7 14 8 15 9 17 11 18 12 19 17 20 19 21 15 22 14 23
REMARK SMILES IDX 13 24 18 25 16 26 10 28 3 30 4 31 2 32 1 33 24 34 25 35
REMARK SMILES IDX 26 36 27 38 28 39 29 40 30 41 31 42 32 43 33 44 34 45 40 50
REMARK SMILES IDX 41 51 42 52 43 53 44 54
REMARK H PARENT 6 16 16 27 10 29 26 37 33 46 33 47 34 48 34 49 44 55
ROOT
ATOM      1  N   UNL     1      -4.512   2.653   1.559  1.00  0.00    -0.326 N 
ATOM      2  C   UNL     1      -3.543   3.748   3.404  1.00  0.00     0.014 C 
ATOM      3  C   UNL     1      -4.864   3.177   2.882  1.00  0.00     0.091 C 
ATOM      4  C   UNL     1      -2.884   4.278   2.140  1.00  0.00     0.041 C 
ATOM      5  C   UNL     1      -3.149   3.102   1.182  1.00  0.00     0.175 C 
ATOM      6  C   UNL     1      -5.416   2.205   3.923  1.00  0.00     0.059 C 
ATOM      7  C   UNL     1      -3.782   4.690   4.568  1.00  0.00     0.008 C 
ATOM      8  C   UNL     1      -5.061   2.584   5.377  1.00  0.00     0.143 C 
ATOM      9  C   UNL     1      -4.827   4.100   5.539  1.00  0.00     0.034 C 
ENDROOT
BRANCH   1  10
ATOM     10  C   UNL     1      -5.306   2.036   0.608  1.00  0.00     0.246 C 
ATOM     11  O   UNL     1      -5.172   0.824   0.407  1.00  0.00    -0.272 OA
BRANCH  10  12
ATOM     12  C   UNL     1      -6.377   2.869  -0.154  1.00  0.00     0.174 C 
BRANCH  12  13
ATOM     13  N   UNL     1      -6.410   2.471  -1.561  1.00  0.00    -0.342 N 
ATOM     14  C   UNL     1      -7.288   1.561  -2.105  1.00  0.00     0.249 C 
ATOM     15  O   UNL     1      -8.169   0.998  -1.467  1.00  0.00    -0.272 OA
ATOM     16  H   UNL     1      -5.644   2.734  -2.177  1.00  0.00     0.164 HD
BRANCH  14  17
ATOM     17  C   UNL     1      -7.058   1.341  -3.615  1.00  0.00     0.207 C 
BRANCH  17  18
ATOM     18  C   UNL     1      -5.693   0.691  -3.860  1.00  0.00     0.077 C 
BRANCH  18  19
ATOM     19  C   UNL     1      -4.822   1.536  -4.763  1.00  0.00    -0.043 A 
ATOM     20  C   UNL     1      -3.130   3.249  -5.050  1.00  0.00     0.083 A 
ATOM     21  C   UNL     1      -3.896   2.436  -4.214  1.00  0.00     0.028 A 
ATOM     22  C   UNL     1      -3.284   3.170  -6.434  1.00  0.00     0.134 A 
ATOM     23  C   UNL     1      -4.197   2.283  -6.991  1.00  0.00     0.048 A 
ATOM     24  C   UNL     1      -4.967   1.469  -6.158  1.00  0.00     0.008 A 
ATOM     25  Cl  UNL     1      -1.997   4.350  -4.357  1.00  0.00    -0.080 Cl
BRANCH  22  26
ATOM     26  O   UNL     1      -2.562   3.955  -7.293  1.00  0.00    -0.506 OA
ATOM     27  H   UNL     1      -2.753   4.881  -7.054  1.00  0.00     0.293 HD
ENDBRANCH  22  26
ENDBRANCH  18  19
ENDBRANCH  17  18
BRANCH  17  28
ATOM     28  O   UNL     1      -7.132   2.581  -4.336  1.00  0.00    -0.383 OA
ATOM     29  H   UNL     1      -6.202   2.857  -4.499  1.00  0.00     0.211 HD
ENDBRANCH  17  28
ENDBRANCH  14  17
ENDBRANCH  12  13
BRANCH  12  30
ATOM     30  C   UNL     1      -6.186   4.399   0.024  1.00  0.00     0.018 C 
ATOM     31  C   UNL     1      -7.408   5.026   0.713  1.00  0.00     0.010 C 
BRANCH  30  32
ATOM     32  C   UNL     1      -5.878   5.145  -1.297  1.00  0.00     0.002 C 
ATOM     33  C   UNL     1      -4.420   5.117  -1.737  1.00  0.00     0.004 C 
ENDBRANCH  30  32
ENDBRANCH  12  30
ENDBRANCH  10  12
ENDBRANCH   1  10
BRANCH   5  34
ATOM     34  C   UNL     1      -2.118   1.959   1.380  1.00  0.00     0.242 C 
ATOM     35  O   UNL     1      -2.434   0.859   1.832  1.00  0.00    -0.273 OA
ATOM     36  N   UNL     1      -0.817   2.283   1.064  1.00  0.00    -0.354 N 
ATOM     37  H   UNL     1      -0.598   3.246   0.808  1.00  0.00     0.163 HD
BRANCH  36  38
ATOM     38  C   UNL     1       0.230   1.285   0.983  1.00  0.00     0.116 C 
BRANCH  38  39
ATOM     39  C   UNL     1       1.566   1.901   1.392  1.00  0.00     0.023 C 
BRANCH  39  40
ATOM     40  C   UNL     1       2.131   1.276   2.663  1.00  0.00     0.026 C 
BRANCH  40  41
ATOM     41  C   UNL     1       1.061   0.460   3.388  1.00  0.00     0.146 C 
BRANCH  41  42
ATOM     42  N   UNL     1       1.062   0.796   4.805  1.00  0.00    -0.254 NA
ATOM     43  C   UNL     1       0.028   1.341   5.328  1.00  0.00     0.185 C 
ATOM     44  N   UNL     1      -1.146   1.685   4.767  1.00  0.00    -0.370 N 
ATOM     45  N   UNL     1       0.051   1.647   6.635  1.00  0.00    -0.370 N 
ATOM     46  H   UNL     1      -1.769   2.322   5.232  1.00  0.00     0.159 HD
ATOM     47  H   UNL     1      -1.338   1.512   3.785  1.00  0.00     0.159 HD
ATOM     48  H   UNL     1       0.897   1.412   7.136  1.00  0.00     0.159 HD
ATOM     49  H   UNL     1      -0.781   1.849   7.161  1.00  0.00     0.159 HD
ENDBRANCH  41  42
ENDBRANCH  40  41
ENDBRANCH  39  40
ENDBRANCH  38  39
ENDBRANCH  36  38
ENDBRANCH   5  34
BRANCH   8  50
ATOM     50  O   UNL     1      -3.879   1.896   5.789  1.00  0.00    -0.245 OA
BRANCH  50  51
ATOM     51  S   UNL     1      -3.932   0.915   7.085  1.00  0.00     0.397 S 
ATOM     52  O   UNL     1      -2.636   0.951   7.724  1.00  0.00    -0.169 OA
ATOM     53  O   UNL     1      -4.566  -0.335   6.722  1.00  0.00    -0.169 OA
BRANCH  51  54
ATOM     54  O   UNL     1      -4.927   1.710   8.067  1.00  0.00    -0.264 OA
ATOM     55  H   UNL     1      -4.909   2.654   7.809  1.00  0.00     0.236 HD
ENDBRANCH  51  54
ENDBRANCH  50  51
ENDBRANCH   8  50
TORSDOF 19
ENDMDL
MODEL 44
REMARK VINA RESULT:    -6.327      3.536      7.468
REMARK INTER + INTRA:         -17.311
REMARK INTER:                 -14.458
REMARK INTRA:                  -2.853
REMARK UNBOUND:                -4.511
REMARK SMILES CC[C@@H](C)[C@@H](NC(=O)[C@@H](O)Cc1ccc(O)c(Cl)c1)C(=O)N1[C@H](C(=O)NCCCCN=C(N)N)C[C@H]2CC[C@H](OS(=O)(=O)O)C[C@@H]21
REMARK SMILES IDX 22 1 36 2 46 3 35 4 23 5 45 6 37 7 39 8 38 9 20 10 21 11
REMARK SMILES IDX 5 12 6 13 7 14 8 15 9 17 11 18 12 19 17 20 19 21 15 22 14 23
REMARK SMILES IDX 13 24 18 25 16 26 10 28 3 30 4 31 2 32 1 33 24 34 25 35
REMARK SMILES IDX 26 36 27 38 28 39 29 40 30 41 31 42 32 43 33 44 34 45 40 50
REMARK SMILES IDX 41 51 42 52 43 53 44 54
REMARK H PARENT 6 16 16 27 10 29 26 37 33 46 33 47 34 48 34 49 44 55
ROOT
ATOM      1  N   UNL     1      -2.331  -0.516   4.566  1.00  0.00    -0.326 N 
ATOM      2  C   UNL     1      -2.441  -1.414   6.740  1.00  0.00     0.014 C 
ATOM      3  C   UNL     1      -1.499  -1.218   5.549  1.00  0.00     0.091 C 
ATOM      4  C   UNL     1      -3.789  -1.632   6.069  1.00  0.00     0.041 C 
ATOM      5  C   UNL     1      -3.748  -0.518   5.007  1.00  0.00     0.175 C 
ATOM      6  C   UNL     1      -0.229  -0.530   6.045  1.00  0.00     0.059 C 
ATOM      7  C   UNL     1      -1.904  -2.468   7.688  1.00  0.00     0.008 C 
ATOM      8  C   UNL     1       0.148  -0.896   7.497  1.00  0.00     0.143 C 
ATOM      9  C   UNL     1      -0.387  -2.284   7.903  1.00  0.00     0.034 C 
ENDROOT
BRANCH   1  10
ATOM     10  C   UNL     1      -2.023  -0.090   3.285  1.00  0.00     0.246 C 
ATOM     11  O   UNL     1      -2.650  -0.558   2.329  1.00  0.00    -0.272 OA
BRANCH  10  12
ATOM     12  C   UNL     1      -0.928   0.996   3.081  1.00  0.00     0.174 C 
BRANCH  12  13
ATOM     13  N   UNL     1      -1.367   1.964   2.076  1.00  0.00    -0.342 N 
ATOM     14  C   UNL     1      -2.277   2.973   2.296  1.00  0.00     0.249 C 
ATOM     15  O   UNL     1      -2.806   3.191   3.379  1.00  0.00    -0.272 OA
ATOM     16  H   UNL     1      -1.135   1.814   1.098  1.00  0.00     0.164 HD
BRANCH  14  17
ATOM     17  C   UNL     1      -2.547   3.818   1.033  1.00  0.00     0.207 C 
BRANCH  17  18
ATOM     18  C   UNL     1      -2.843   2.910  -0.166  1.00  0.00     0.077 C 
BRANCH  18  19
ATOM     19  C   UNL     1      -4.323   2.639  -0.314  1.00  0.00    -0.043 A 
ATOM     20  C   UNL     1      -6.182   1.081  -0.359  1.00  0.00     0.083 A 
ATOM     21  C   UNL     1      -4.822   1.335  -0.173  1.00  0.00     0.028 A 
ATOM     22  C   UNL     1      -7.048   2.124  -0.687  1.00  0.00     0.134 A 
ATOM     23  C   UNL     1      -6.567   3.421  -0.829  1.00  0.00     0.048 A 
ATOM     24  C   UNL     1      -5.207   3.678  -0.646  1.00  0.00     0.008 A 
ATOM     25  Cl  UNL     1      -6.776  -0.528  -0.183  1.00  0.00    -0.080 Cl
BRANCH  22  26
ATOM     26  O   UNL     1      -8.387   1.922  -0.890  1.00  0.00    -0.506 OA
ATOM     27  H   UNL     1      -8.692   2.638  -1.478  1.00  0.00     0.293 HD
ENDBRANCH  22  26
ENDBRANCH  18  19
ENDBRANCH  17  18
BRANCH  17  28
ATOM     28  O   UNL     1      -1.425   4.662   0.726  1.00  0.00    -0.383 OA
ATOM     29  H   UNL     1      -0.625   4.099   0.830  1.00  0.00     0.211 HD
ENDBRANCH  17  28
ENDBRANCH  14  17
ENDBRANCH  12  13
BRANCH  12  30
ATOM     30  C   UNL     1       0.464   0.392   2.753  1.00  0.00     0.018 C 
ATOM     31  C   UNL     1       1.574   1.128   3.519  1.00  0.00     0.010 C 
BRANCH  30  32
ATOM     32  C   UNL     1       0.789   0.366   1.239  1.00  0.00     0.002 C 
ATOM     33  C   UNL     1       1.745  -0.734   0.797  1.00  0.00     0.004 C 
ENDBRANCH  30  32
ENDBRANCH  12  30
ENDBRANCH  10  12
ENDBRANCH   1  10
BRANCH   5  34
ATOM     34  C   UNL     1      -4.138   0.859   5.607  1.00  0.00     0.242 C 
ATOM     35  O   UNL     1      -5.307   1.237   5.680  1.00  0.00    -0.273 OA
ATOM     36  N   UNL     1      -3.081   1.648   6.002  1.00  0.00    -0.354 N 
ATOM     37  H   UNL     1      -2.131   1.330   5.806  1.00  0.00     0.163 HD
BRANCH  36  38
ATOM     38  C   UNL     1      -3.265   2.859   6.773  1.00  0.00     0.116 C 
BRANCH  38  39
ATOM     39  C   UNL     1      -1.906   3.459   7.128  1.00  0.00     0.023 C 
BRANCH  39  40
ATOM     40  C   UNL     1      -1.960   4.976   7.277  1.00  0.00     0.026 C 
BRANCH  40  41
ATOM     41  C   UNL     1      -0.994   5.449   8.362  1.00  0.00     0.146 C 
BRANCH  41  42
ATOM     42  N   UNL     1      -1.725   6.183   9.387  1.00  0.00    -0.254 NA
ATOM     43  C   UNL     1      -2.091   5.583  10.456  1.00  0.00     0.185 C 
ATOM     44  N   UNL     1      -1.910   4.305  10.837  1.00  0.00    -0.370 N 
ATOM     45  N   UNL     1      -2.767   6.276  11.387  1.00  0.00    -0.370 N 
ATOM     46  H   UNL     1      -2.457   3.910  11.582  1.00  0.00     0.159 HD
ATOM     47  H   UNL     1      -1.404   3.643  10.256  1.00  0.00     0.159 HD
ATOM     48  H   UNL     1      -2.939   7.252  11.182  1.00  0.00     0.159 HD
ATOM     49  H   UNL     1      -2.878   5.955  12.332  1.00  0.00     0.159 HD
ENDBRANCH  41  42
ENDBRANCH  40  41
ENDBRANCH  39  40
ENDBRANCH  38  39
ENDBRANCH  36  38
ENDBRANCH   5  34
BRANCH   8  50
ATOM     50  O   UNL     1      -0.380   0.076   8.401  1.00  0.00    -0.245 OA
BRANCH  50  51
ATOM     51  S   UNL     1       0.636   0.974   9.299  1.00  0.00     0.397 S 
ATOM     52  O   UNL     1       0.142   0.983  10.657  1.00  0.00    -0.169 OA
ATOM     53  O   UNL     1       0.951   2.200   8.596  1.00  0.00    -0.169 OA
BRANCH  51  54
ATOM     54  O   UNL     1       1.960   0.061   9.320  1.00  0.00    -0.264 OA
ATOM     55  H   UNL     1       1.781  -0.738   8.785  1.00  0.00     0.236 HD
ENDBRANCH  51  54
ENDBRANCH  50  51
ENDBRANCH   8  50
TORSDOF 19
ENDMDL
MODEL 45
REMARK VINA RESULT:    -6.327      3.837      8.021
REMARK INTER + INTRA:         -17.310
REMARK INTER:                 -13.990
REMARK INTRA:                  -3.321
REMARK UNBOUND:                -4.511
REMARK SMILES CC[C@@H](C)[C@@H](NC(=O)[C@@H](O)Cc1ccc(O)c(Cl)c1)C(=O)N1[C@H](C(=O)NCCCCN=C(N)N)C[C@H]2CC[C@H](OS(=O)(=O)O)C[C@@H]21
REMARK SMILES IDX 22 1 36 2 46 3 35 4 23 5 45 6 37 7 39 8 38 9 20 10 21 11
REMARK SMILES IDX 5 12 6 13 7 14 8 15 9 17 11 18 12 19 17 20 19 21 15 22 14 23
REMARK SMILES IDX 13 24 18 25 16 26 10 28 3 30 4 31 2 32 1 33 24 34 25 35
REMARK SMILES IDX 26 36 27 38 28 39 29 40 30 41 31 42 32 43 33 44 34 45 40 50
REMARK SMILES IDX 41 51 42 52 43 53 44 54
REMARK H PARENT 6 16 16 27 10 29 26 37 33 46 33 47 34 48 34 49 44 55
ROOT
ATOM      1  N   UNL     1      -5.485   2.273   2.025  1.00  0.00    -0.326 N 
ATOM      2  C   UNL     1      -5.303   4.071   3.535  1.00  0.00     0.014 C 
ATOM      3  C   UNL     1      -6.246   2.955   3.077  1.00  0.00     0.091 C 
ATOM      4  C   UNL     1      -4.596   4.461   2.246  1.00  0.00     0.041 C 
ATOM      5  C   UNL     1      -4.281   3.067   1.674  1.00  0.00     0.175 C 
ATOM      6  C   UNL     1      -6.670   2.148   4.303  1.00  0.00     0.059 C 
ATOM      7  C   UNL     1      -6.054   5.128   4.320  1.00  0.00     0.008 C 
ATOM      8  C   UNL     1      -6.756   2.984   5.598  1.00  0.00     0.143 C 
ATOM      9  C   UNL     1      -7.041   4.472   5.309  1.00  0.00     0.034 C 
ENDROOT
BRANCH   1  10
ATOM     10  C   UNL     1      -5.837   1.194   1.232  1.00  0.00     0.246 C 
ATOM     11  O   UNL     1      -5.258   0.115   1.395  1.00  0.00    -0.272 OA
BRANCH  10  12
ATOM     12  C   UNL     1      -6.979   1.351   0.187  1.00  0.00     0.174 C 
BRANCH  12  13
ATOM     13  N   UNL     1      -6.683   2.467  -0.711  1.00  0.00    -0.342 N 
ATOM     14  C   UNL     1      -6.224   2.342  -2.003  1.00  0.00     0.249 C 
ATOM     15  O   UNL     1      -6.037   1.267  -2.559  1.00  0.00    -0.272 OA
ATOM     16  H   UNL     1      -6.641   3.414  -0.341  1.00  0.00     0.164 HD
BRANCH  14  17
ATOM     17  C   UNL     1      -5.989   3.705  -2.687  1.00  0.00     0.207 C 
BRANCH  17  18
ATOM     18  C   UNL     1      -5.160   4.622  -1.782  1.00  0.00     0.077 C 
BRANCH  18  19
ATOM     19  C   UNL     1      -3.676   4.453  -2.019  1.00  0.00    -0.043 A 
ATOM     20  C   UNL     1      -1.387   4.636  -1.237  1.00  0.00     0.083 A 
ATOM     21  C   UNL     1      -2.758   4.746  -0.999  1.00  0.00     0.028 A 
ATOM     22  C   UNL     1      -0.926   4.236  -2.492  1.00  0.00     0.134 A 
ATOM     23  C   UNL     1      -1.825   3.943  -3.511  1.00  0.00     0.048 A 
ATOM     24  C   UNL     1      -3.197   4.054  -3.276  1.00  0.00     0.008 A 
ATOM     25  Cl  UNL     1      -0.274   5.000   0.029  1.00  0.00    -0.080 Cl
BRANCH  22  26
ATOM     26  O   UNL     1       0.408   4.124  -2.775  1.00  0.00    -0.506 OA
ATOM     27  H   UNL     1       0.523   4.411  -3.700  1.00  0.00     0.293 HD
ENDBRANCH  22  26
ENDBRANCH  18  19
ENDBRANCH  17  18
BRANCH  17  28
ATOM     28  O   UNL     1      -7.235   4.347  -3.002  1.00  0.00    -0.383 OA
ATOM     29  H   UNL     1      -7.446   4.092  -3.929  1.00  0.00     0.211 HD
ENDBRANCH  17  28
ENDBRANCH  14  17
ENDBRANCH  12  13
BRANCH  12  30
ATOM     30  C   UNL     1      -8.380   1.474   0.843  1.00  0.00     0.018 C 
ATOM     31  C   UNL     1      -8.728   0.202   1.632  1.00  0.00     0.010 C 
BRANCH  30  32
ATOM     32  C   UNL     1      -9.511   1.803  -0.163  1.00  0.00     0.002 C 
ATOM     33  C   UNL     1     -10.783   0.981  -0.003  1.00  0.00     0.004 C 
ENDBRANCH  30  32
ENDBRANCH  12  30
ENDBRANCH  10  12
ENDBRANCH   1  10
BRANCH   5  34
ATOM     34  C   UNL     1      -3.011   2.455   2.323  1.00  0.00     0.242 C 
ATOM     35  O   UNL     1      -1.887   2.924   2.138  1.00  0.00    -0.273 OA
ATOM     36  N   UNL     1      -3.224   1.322   3.075  1.00  0.00    -0.354 N 
ATOM     37  H   UNL     1      -4.160   0.913   3.092  1.00  0.00     0.163 HD
BRANCH  36  38
ATOM     38  C   UNL     1      -2.197   0.750   3.920  1.00  0.00     0.116 C 
BRANCH  38  39
ATOM     39  C   UNL     1      -1.768  -0.608   3.368  1.00  0.00     0.023 C 
BRANCH  39  40
ATOM     40  C   UNL     1      -0.258  -0.713   3.190  1.00  0.00     0.026 C 
BRANCH  40  41
ATOM     41  C   UNL     1       0.440   0.540   3.719  1.00  0.00     0.146 C 
BRANCH  41  42
ATOM     42  N   UNL     1       1.071   1.255   2.617  1.00  0.00    -0.254 NA
ATOM     43  C   UNL     1       2.325   1.111   2.405  1.00  0.00     0.185 C 
ATOM     44  N   UNL     1       3.234   0.367   3.061  1.00  0.00    -0.370 N 
ATOM     45  N   UNL     1       2.888   1.782   1.387  1.00  0.00    -0.370 N 
ATOM     46  H   UNL     1       4.218   0.537   2.942  1.00  0.00     0.159 HD
ATOM     47  H   UNL     1       2.975  -0.216   3.851  1.00  0.00     0.159 HD
ATOM     48  H   UNL     1       2.270   2.361   0.835  1.00  0.00     0.159 HD
ATOM     49  H   UNL     1       3.791   1.547   1.014  1.00  0.00     0.159 HD
ENDBRANCH  41  42
ENDBRANCH  40  41
ENDBRANCH  39  40
ENDBRANCH  38  39
ENDBRANCH  36  38
ENDBRANCH   5  34
BRANCH   8  50
ATOM     50  O   UNL     1      -5.530   2.890   6.324  1.00  0.00    -0.245 OA
BRANCH  50  51
ATOM     51  S   UNL     1      -5.323   1.685   7.398  1.00  0.00     0.397 S 
ATOM     52  O   UNL     1      -4.182   0.903   6.977  1.00  0.00    -0.169 OA
ATOM     53  O   UNL     1      -6.601   1.069   7.689  1.00  0.00    -0.169 OA
BRANCH  51  54
ATOM     54  O   UNL     1      -4.846   2.484   8.710  1.00  0.00    -0.264 OA
ATOM     55  H   UNL     1      -4.938   1.880   9.475  1.00  0.00     0.236 HD
ENDBRANCH  51  54
ENDBRANCH  50  51
ENDBRANCH   8  50
TORSDOF 19
ENDMDL
MODEL 46
REMARK VINA RESULT:    -6.307      5.614      9.198
REMARK INTER + INTRA:         -17.270
REMARK INTER:                 -12.866
REMARK INTRA:                  -4.405
REMARK UNBOUND:                -4.511
REMARK SMILES CC[C@@H](C)[C@@H](NC(=O)[C@@H](O)Cc1ccc(O)c(Cl)c1)C(=O)N1[C@H](C(=O)NCCCCN=C(N)N)C[C@H]2CC[C@H](OS(=O)(=O)O)C[C@@H]21
REMARK SMILES IDX 22 1 36 2 46 3 35 4 23 5 45 6 37 7 39 8 38 9 20 10 21 11
REMARK SMILES IDX 5 12 6 13 7 14 8 15 9 17 11 18 12 19 17 20 19 21 15 22 14 23
REMARK SMILES IDX 13 24 18 25 16 26 10 28 3 30 4 31 2 32 1 33 24 34 25 35
REMARK SMILES IDX 26 36 27 38 28 39 29 40 30 41 31 42 32 43 33 44 34 45 40 50
REMARK SMILES IDX 41 51 42 52 43 53 44 54
REMARK H PARENT 6 16 16 27 10 29 26 37 33 46 33 47 34 48 34 49 44 55
ROOT
ATOM      1  N   UNL     1      -6.305   2.634  -2.116  1.00  0.00    -0.326 N 
ATOM      2  C   UNL     1      -5.613   4.352  -0.663  1.00  0.00     0.014 C 
ATOM      3  C   UNL     1      -6.434   3.061  -0.720  1.00  0.00     0.091 C 
ATOM      4  C   UNL     1      -5.851   4.961  -2.037  1.00  0.00     0.041 C 
ATOM      5  C   UNL     1      -5.680   3.712  -2.921  1.00  0.00     0.175 C 
ATOM      6  C   UNL     1      -5.932   2.121   0.375  1.00  0.00     0.059 C 
ATOM      7  C   UNL     1      -5.953   5.157   0.576  1.00  0.00     0.008 C 
ATOM      8  C   UNL     1      -5.408   2.852   1.630  1.00  0.00     0.143 C 
ATOM      9  C   UNL     1      -6.063   4.236   1.809  1.00  0.00     0.034 C 
ENDROOT
BRANCH   1  10
ATOM     10  C   UNL     1      -6.850   1.538  -2.763  1.00  0.00     0.246 C 
ATOM     11  O   UNL     1      -6.119   0.585  -3.052  1.00  0.00    -0.272 OA
BRANCH  10  12
ATOM     12  C   UNL     1      -8.375   1.511  -3.073  1.00  0.00     0.174 C 
BRANCH  12  13
ATOM     13  N   UNL     1      -8.969   2.812  -2.769  1.00  0.00    -0.342 N 
ATOM     14  C   UNL     1      -9.830   3.500  -3.595  1.00  0.00     0.249 C 
ATOM     15  O   UNL     1     -10.219   3.079  -4.677  1.00  0.00    -0.272 OA
ATOM     16  H   UNL     1      -8.619   3.354  -1.983  1.00  0.00     0.164 HD
BRANCH  14  17
ATOM     17  C   UNL     1     -10.270   4.855  -3.000  1.00  0.00     0.207 C 
BRANCH  17  18
ATOM     18  C   UNL     1     -11.533   4.681  -2.151  1.00  0.00     0.077 C 
BRANCH  18  19
ATOM     19  C   UNL     1     -11.204   4.298  -0.725  1.00  0.00    -0.043 A 
ATOM     20  C   UNL     1     -11.833   3.248   1.369  1.00  0.00     0.083 A 
ATOM     21  C   UNL     1     -12.119   3.557   0.038  1.00  0.00     0.028 A 
ATOM     22  C   UNL     1     -10.636   3.676   1.943  1.00  0.00     0.134 A 
ATOM     23  C   UNL     1      -9.720   4.410   1.198  1.00  0.00     0.048 A 
ATOM     24  C   UNL     1     -10.004   4.723  -0.133  1.00  0.00     0.008 A 
ATOM     25  Cl  UNL     1     -12.970   2.337   2.291  1.00  0.00    -0.080 Cl
BRANCH  22  26
ATOM     26  O   UNL     1     -10.316   3.405   3.246  1.00  0.00    -0.506 OA
ATOM     27  H   UNL     1     -10.528   4.207   3.759  1.00  0.00     0.293 HD
ENDBRANCH  22  26
ENDBRANCH  18  19
ENDBRANCH  17  18
BRANCH  17  28
ATOM     28  O   UNL     1     -10.521   5.817  -4.037  1.00  0.00    -0.383 OA
ATOM     29  H   UNL     1     -10.554   6.694  -3.591  1.00  0.00     0.211 HD
ENDBRANCH  17  28
ENDBRANCH  14  17
ENDBRANCH  12  13
BRANCH  12  30
ATOM     30  C   UNL     1      -9.111   0.343  -2.362  1.00  0.00     0.018 C 
ATOM     31  C   UNL     1      -9.971  -0.449  -3.359  1.00  0.00     0.010 C 
BRANCH  30  32
ATOM     32  C   UNL     1      -9.972   0.794  -1.157  1.00  0.00     0.002 C 
ATOM     33  C   UNL     1      -9.299   0.679   0.204  1.00  0.00     0.004 C 
ENDBRANCH  30  32
ENDBRANCH  12  30
ENDBRANCH  10  12
ENDBRANCH   1  10
BRANCH   5  34
ATOM     34  C   UNL     1      -4.184   3.402  -3.190  1.00  0.00     0.242 C 
ATOM     35  O   UNL     1      -3.789   2.276  -3.494  1.00  0.00    -0.273 OA
ATOM     36  N   UNL     1      -3.324   4.463  -3.011  1.00  0.00    -0.354 N 
ATOM     37  H   UNL     1      -3.696   5.339  -2.643  1.00  0.00     0.163 HD
BRANCH  36  38
ATOM     38  C   UNL     1      -1.937   4.412  -3.423  1.00  0.00     0.116 C 
BRANCH  38  39
ATOM     39  C   UNL     1      -1.034   4.780  -2.248  1.00  0.00     0.023 C 
BRANCH  39  40
ATOM     40  C   UNL     1      -1.623   4.360  -0.906  1.00  0.00     0.026 C 
BRANCH  40  41
ATOM     41  C   UNL     1      -0.515   4.023   0.092  1.00  0.00     0.146 C 
BRANCH  41  42
ATOM     42  N   UNL     1       0.352   2.992  -0.466  1.00  0.00    -0.254 NA
ATOM     43  C   UNL     1       0.765   2.040   0.283  1.00  0.00     0.185 C 
ATOM     44  N   UNL     1       0.528   1.797   1.585  1.00  0.00    -0.370 N 
ATOM     45  N   UNL     1       1.567   1.103  -0.249  1.00  0.00    -0.370 N 
ATOM     46  H   UNL     1       1.108   1.158   2.101  1.00  0.00     0.159 HD
ATOM     47  H   UNL     1      -0.071   2.401   2.139  1.00  0.00     0.159 HD
ATOM     48  H   UNL     1       1.789   1.206  -1.230  1.00  0.00     0.159 HD
ATOM     49  H   UNL     1       1.736   0.217   0.193  1.00  0.00     0.159 HD
ENDBRANCH  41  42
ENDBRANCH  40  41
ENDBRANCH  39  40
ENDBRANCH  38  39
ENDBRANCH  36  38
ENDBRANCH   5  34
BRANCH   8  50
ATOM     50  O   UNL     1      -3.994   3.028   1.539  1.00  0.00    -0.245 OA
BRANCH  50  51
ATOM     51  S   UNL     1      -3.002   1.896   2.156  1.00  0.00     0.397 S 
ATOM     52  O   UNL     1      -2.102   2.546   3.081  1.00  0.00    -0.169 OA
ATOM     53  O   UNL     1      -2.513   1.045   1.091  1.00  0.00    -0.169 OA
BRANCH  51  54
ATOM     54  O   UNL     1      -4.008   1.027   3.062  1.00  0.00    -0.264 OA
ATOM     55  H   UNL     1      -3.855   1.272   3.997  1.00  0.00     0.236 HD
ENDBRANCH  51  54
ENDBRANCH  50  51
ENDBRANCH   8  50
TORSDOF 19
ENDMDL
MODEL 47
REMARK VINA RESULT:    -6.304      3.767      7.409
REMARK INTER + INTRA:         -17.263
REMARK INTER:                 -14.305
REMARK INTRA:                  -2.958
REMARK UNBOUND:                -4.511
REMARK SMILES CC[C@@H](C)[C@@H](NC(=O)[C@@H](O)Cc1ccc(O)c(Cl)c1)C(=O)N1[C@H](C(=O)NCCCCN=C(N)N)C[C@H]2CC[C@H](OS(=O)(=O)O)C[C@@H]21
REMARK SMILES IDX 22 1 36 2 46 3 35 4 23 5 45 6 37 7 39 8 38 9 20 10 21 11
REMARK SMILES IDX 5 12 6 13 7 14 8 15 9 17 11 18 12 19 17 20 19 21 15 22 14 23
REMARK SMILES IDX 13 24 18 25 16 26 10 28 3 30 4 31 2 32 1 33 24 34 25 35
REMARK SMILES IDX 26 36 27 38 28 39 29 40 30 41 31 42 32 43 33 44 34 45 40 50
REMARK SMILES IDX 41 51 42 52 43 53 44 54
REMARK H PARENT 6 16 16 27 10 29 26 37 33 46 33 47 34 48 34 49 44 55
ROOT
ATOM      1  N   UNL     1      -1.616  -0.596   4.735  1.00  0.00    -0.326 N 
ATOM      2  C   UNL     1      -1.748  -0.877   7.069  1.00  0.00     0.014 C 
ATOM      3  C   UNL     1      -0.754  -0.727   5.913  1.00  0.00     0.091 C 
ATOM      4  C   UNL     1      -2.885  -1.662   6.433  1.00  0.00     0.041 C 
ATOM      5  C   UNL     1      -3.021  -0.909   5.096  1.00  0.00     0.175 C 
ATOM      6  C   UNL     1       0.201   0.419   6.243  1.00  0.00     0.059 C 
ATOM      7  C   UNL     1      -1.063  -1.429   8.304  1.00  0.00     0.008 C 
ATOM      8  C   UNL     1       0.478   0.581   7.753  1.00  0.00     0.143 C 
ATOM      9  C   UNL     1       0.303  -0.745   8.521  1.00  0.00     0.034 C 
ENDROOT
BRANCH   1  10
ATOM     10  C   UNL     1      -1.279  -0.450   3.400  1.00  0.00     0.246 C 
ATOM     11  O   UNL     1      -1.583  -1.344   2.603  1.00  0.00    -0.272 OA
BRANCH  10  12
ATOM     12  C   UNL     1      -0.566   0.849   2.926  1.00  0.00     0.174 C 
BRANCH  12  13
ATOM     13  N   UNL     1      -1.543   1.924   2.764  1.00  0.00    -0.342 N 
ATOM     14  C   UNL     1      -2.548   1.943   1.822  1.00  0.00     0.249 C 
ATOM     15  O   UNL     1      -2.753   1.036   1.025  1.00  0.00    -0.272 OA
ATOM     16  H   UNL     1      -1.405   2.808   3.246  1.00  0.00     0.164 HD
BRANCH  14  17
ATOM     17  C   UNL     1      -3.406   3.224   1.892  1.00  0.00     0.207 C 
BRANCH  17  18
ATOM     18  C   UNL     1      -2.573   4.448   1.500  1.00  0.00     0.077 C 
BRANCH  18  19
ATOM     19  C   UNL     1      -2.147   4.397   0.050  1.00  0.00    -0.043 A 
ATOM     20  C   UNL     1      -0.394   4.360  -1.627  1.00  0.00     0.083 A 
ATOM     21  C   UNL     1      -0.785   4.357  -0.288  1.00  0.00     0.028 A 
ATOM     22  C   UNL     1      -1.358   4.404  -2.635  1.00  0.00     0.134 A 
ATOM     23  C   UNL     1      -2.710   4.444  -2.316  1.00  0.00     0.048 A 
ATOM     24  C   UNL     1      -3.104   4.443  -0.976  1.00  0.00     0.008 A 
ATOM     25  Cl  UNL     1       1.284   4.310  -2.022  1.00  0.00    -0.080 Cl
BRANCH  22  26
ATOM     26  O   UNL     1      -1.023   4.419  -3.962  1.00  0.00    -0.506 OA
ATOM     27  H   UNL     1      -0.124   4.048  -4.029  1.00  0.00     0.293 HD
ENDBRANCH  22  26
ENDBRANCH  18  19
ENDBRANCH  17  18
BRANCH  17  28
ATOM     28  O   UNL     1      -3.943   3.416   3.211  1.00  0.00    -0.383 OA
ATOM     29  H   UNL     1      -4.699   4.037   3.108  1.00  0.00     0.211 HD
ENDBRANCH  17  28
ENDBRANCH  14  17
ENDBRANCH  12  13
BRANCH  12  30
ATOM     30  C   UNL     1       0.293   0.631   1.651  1.00  0.00     0.018 C 
ATOM     31  C   UNL     1       1.076  -0.689   1.739  1.00  0.00     0.010 C 
BRANCH  30  32
ATOM     32  C   UNL     1       1.257   1.802   1.343  1.00  0.00     0.002 C 
ATOM     33  C   UNL     1       2.727   1.531   1.637  1.00  0.00     0.004 C 
ENDBRANCH  30  32
ENDBRANCH  12  30
ENDBRANCH  10  12
ENDBRANCH   1  10
BRANCH   5  34
ATOM     34  C   UNL     1      -3.852   0.392   5.255  1.00  0.00     0.242 C 
ATOM     35  O   UNL     1      -3.335   1.509   5.234  1.00  0.00    -0.273 OA
ATOM     36  N   UNL     1      -5.198   0.205   5.473  1.00  0.00    -0.354 N 
ATOM     37  H   UNL     1      -5.548  -0.746   5.599  1.00  0.00     0.163 HD
BRANCH  36  38
ATOM     38  C   UNL     1      -6.149   1.297   5.428  1.00  0.00     0.116 C 
BRANCH  38  39
ATOM     39  C   UNL     1      -7.099   1.108   4.248  1.00  0.00     0.023 C 
BRANCH  39  40
ATOM     40  C   UNL     1      -7.675   2.428   3.747  1.00  0.00     0.026 C 
BRANCH  40  41
ATOM     41  C   UNL     1      -8.084   2.318   2.278  1.00  0.00     0.146 C 
BRANCH  41  42
ATOM     42  N   UNL     1      -7.421   3.359   1.503  1.00  0.00    -0.254 NA
ATOM     43  C   UNL     1      -7.217   3.183   0.251  1.00  0.00     0.185 C 
ATOM     44  N   UNL     1      -7.524   2.137  -0.537  1.00  0.00    -0.370 N 
ATOM     45  N   UNL     1      -6.600   4.152  -0.444  1.00  0.00    -0.370 N 
ATOM     46  H   UNL     1      -7.090   2.029  -1.438  1.00  0.00     0.159 HD
ATOM     47  H   UNL     1      -8.006   1.320  -0.175  1.00  0.00     0.159 HD
ATOM     48  H   UNL     1      -6.342   4.981   0.074  1.00  0.00     0.159 HD
ATOM     49  H   UNL     1      -6.616   4.196  -1.448  1.00  0.00     0.159 HD
ENDBRANCH  41  42
ENDBRANCH  40  41
ENDBRANCH  39  40
ENDBRANCH  38  39
ENDBRANCH  36  38
ENDBRANCH   5  34
BRANCH   8  50
ATOM     50  O   UNL     1      -0.410   1.549   8.313  1.00  0.00    -0.245 OA
BRANCH  50  51
ATOM     51  S   UNL     1      -0.275   3.110   7.875  1.00  0.00     0.397 S 
ATOM     52  O   UNL     1      -1.238   3.364   6.828  1.00  0.00    -0.169 OA
ATOM     53  O   UNL     1       1.124   3.453   7.721  1.00  0.00    -0.169 OA
BRANCH  51  54
ATOM     54  O   UNL     1      -0.832   3.873   9.177  1.00  0.00    -0.264 OA
ATOM     55  H   UNL     1      -0.085   3.984   9.800  1.00  0.00     0.236 HD
ENDBRANCH  51  54
ENDBRANCH  50  51
ENDBRANCH   8  50
TORSDOF 19
ENDMDL
MODEL 48
REMARK VINA RESULT:    -6.286      4.617      7.886
REMARK INTER + INTRA:         -17.227
REMARK INTER:                 -13.536
REMARK INTRA:                  -3.691
REMARK UNBOUND:                -4.511
REMARK SMILES CC[C@@H](C)[C@@H](NC(=O)[C@@H](O)Cc1ccc(O)c(Cl)c1)C(=O)N1[C@H](C(=O)NCCCCN=C(N)N)C[C@H]2CC[C@H](OS(=O)(=O)O)C[C@@H]21
REMARK SMILES IDX 22 1 36 2 46 3 35 4 23 5 45 6 37 7 39 8 38 9 20 10 21 11
REMARK SMILES IDX 5 12 6 13 7 14 8 15 9 17 11 18 12 19 17 20 19 21 15 22 14 23
REMARK SMILES IDX 13 24 18 25 16 26 10 28 3 30 4 31 2 32 1 33 24 34 25 35
REMARK SMILES IDX 26 36 27 38 28 39 29 40 30 41 31 42 32 43 33 44 34 45 40 50
REMARK SMILES IDX 41 51 42 52 43 53 44 54
REMARK H PARENT 6 16 16 27 10 29 26 37 33 46 33 47 34 48 34 49 44 55
ROOT
ATOM      1  N   UNL     1      -3.463   3.213  -0.532  1.00  0.00    -0.326 N 
ATOM      2  C   UNL     1      -1.320   3.814  -1.296  1.00  0.00     0.014 C 
ATOM      3  C   UNL     1      -2.054   3.138  -0.135  1.00  0.00     0.091 C 
ATOM      4  C   UNL     1      -2.296   4.899  -1.724  1.00  0.00     0.041 C 
ATOM      5  C   UNL     1      -3.613   4.101  -1.711  1.00  0.00     0.175 C 
ATOM      6  C   UNL     1      -1.437   1.759   0.089  1.00  0.00     0.059 C 
ATOM      7  C   UNL     1       0.091   4.199  -0.895  1.00  0.00     0.008 C 
ATOM      8  C   UNL     1       0.069   1.690  -0.242  1.00  0.00     0.143 C 
ATOM      9  C   UNL     1       0.758   3.062  -0.093  1.00  0.00     0.034 C 
ENDROOT
BRANCH   1  10
ATOM     10  C   UNL     1      -4.597   2.780   0.135  1.00  0.00     0.246 C 
ATOM     11  O   UNL     1      -4.817   1.567   0.221  1.00  0.00    -0.272 OA
BRANCH  10  12
ATOM     12  C   UNL     1      -5.544   3.823   0.795  1.00  0.00     0.174 C 
BRANCH  12  13
ATOM     13  N   UNL     1      -5.363   3.812   2.247  1.00  0.00    -0.342 N 
ATOM     14  C   UNL     1      -4.388   4.507   2.927  1.00  0.00     0.249 C 
ATOM     15  O   UNL     1      -3.572   5.242   2.386  1.00  0.00    -0.272 OA
ATOM     16  H   UNL     1      -5.863   3.129   2.811  1.00  0.00     0.164 HD
BRANCH  14  17
ATOM     17  C   UNL     1      -4.447   4.276   4.452  1.00  0.00     0.207 C 
BRANCH  17  18
ATOM     18  C   UNL     1      -5.773   4.791   5.021  1.00  0.00     0.077 C 
BRANCH  18  19
ATOM     19  C   UNL     1      -6.643   3.663   5.528  1.00  0.00    -0.043 A 
ATOM     20  C   UNL     1      -6.866   1.500   6.604  1.00  0.00     0.083 A 
ATOM     21  C   UNL     1      -6.066   2.563   6.181  1.00  0.00     0.028 A 
ATOM     22  C   UNL     1      -8.243   1.529   6.377  1.00  0.00     0.134 A 
ATOM     23  C   UNL     1      -8.827   2.613   5.731  1.00  0.00     0.048 A 
ATOM     24  C   UNL     1      -8.029   3.677   5.305  1.00  0.00     0.008 A 
ATOM     25  Cl  UNL     1      -6.139   0.157   7.404  1.00  0.00    -0.080 Cl
BRANCH  22  26
ATOM     26  O   UNL     1      -9.066   0.506   6.764  1.00  0.00    -0.506 OA
ATOM     27  H   UNL     1      -9.820   0.505   6.146  1.00  0.00     0.293 HD
ENDBRANCH  22  26
ENDBRANCH  18  19
ENDBRANCH  17  18
BRANCH  17  28
ATOM     28  O   UNL     1      -3.356   4.933   5.117  1.00  0.00    -0.383 OA
ATOM     29  H   UNL     1      -3.470   4.745   6.076  1.00  0.00     0.211 HD
ENDBRANCH  17  28
ENDBRANCH  14  17
ENDBRANCH  12  13
BRANCH  12  30
ATOM     30  C   UNL     1      -7.028   3.632   0.382  1.00  0.00     0.018 C 
ATOM     31  C   UNL     1      -7.297   4.259  -0.995  1.00  0.00     0.010 C 
BRANCH  30  32
ATOM     32  C   UNL     1      -8.038   4.179   1.421  1.00  0.00     0.002 C 
ATOM     33  C   UNL     1      -9.287   4.826   0.836  1.00  0.00     0.004 C 
ENDBRANCH  30  32
ENDBRANCH  12  30
ENDBRANCH  10  12
ENDBRANCH   1  10
BRANCH   5  34
ATOM     34  C   UNL     1      -3.790   3.267  -3.008  1.00  0.00     0.242 C 
ATOM     35  O   UNL     1      -3.521   2.067  -3.061  1.00  0.00    -0.273 OA
ATOM     36  N   UNL     1      -4.216   3.978  -4.108  1.00  0.00    -0.354 N 
ATOM     37  H   UNL     1      -4.307   4.992  -4.032  1.00  0.00     0.163 HD
BRANCH  36  38
ATOM     38  C   UNL     1      -4.638   3.329  -5.332  1.00  0.00     0.116 C 
BRANCH  38  39
ATOM     39  C   UNL     1      -6.092   3.685  -5.633  1.00  0.00     0.023 C 
BRANCH  39  40
ATOM     40  C   UNL     1      -7.003   3.483  -4.427  1.00  0.00     0.026 C 
BRANCH  40  41
ATOM     41  C   UNL     1      -7.582   2.068  -4.416  1.00  0.00     0.146 C 
BRANCH  41  42
ATOM     42  N   UNL     1      -7.253   1.411  -3.158  1.00  0.00    -0.254 NA
ATOM     43  C   UNL     1      -6.286   0.573  -3.116  1.00  0.00     0.185 C 
ATOM     44  N   UNL     1      -5.456   0.158  -4.091  1.00  0.00    -0.370 N 
ATOM     45  N   UNL     1      -6.001  -0.025  -1.947  1.00  0.00    -0.370 N 
ATOM     46  H   UNL     1      -4.907  -0.677  -3.976  1.00  0.00     0.159 HD
ATOM     47  H   UNL     1      -5.523   0.521  -5.037  1.00  0.00     0.159 HD
ATOM     48  H   UNL     1      -6.574   0.238  -1.157  1.00  0.00     0.159 HD
ATOM     49  H   UNL     1      -5.132  -0.500  -1.776  1.00  0.00     0.159 HD
ENDBRANCH  41  42
ENDBRANCH  40  41
ENDBRANCH  39  40
ENDBRANCH  38  39
ENDBRANCH  36  38
ENDBRANCH   5  34
BRANCH   8  50
ATOM     50  O   UNL     1       0.256   1.232  -1.582  1.00  0.00    -0.245 OA
BRANCH  50  51
ATOM     51  S   UNL     1       1.449   0.177  -1.910  1.00  0.00     0.397 S 
ATOM     52  O   UNL     1       2.030  -0.245  -0.656  1.00  0.00    -0.169 OA
ATOM     53  O   UNL     1       2.266   0.688  -2.992  1.00  0.00    -0.169 OA
BRANCH  51  54
ATOM     54  O   UNL     1       0.631  -1.092  -2.463  1.00  0.00    -0.264 OA
ATOM     55  H   UNL     1       0.201  -1.526  -1.698  1.00  0.00     0.236 HD
ENDBRANCH  51  54
ENDBRANCH  50  51
ENDBRANCH   8  50
TORSDOF 19
ENDMDL
MODEL 49
REMARK VINA RESULT:    -6.103      4.604      8.606
REMARK INTER + INTRA:         -16.858
REMARK INTER:                 -14.612
REMARK INTRA:                  -2.247
REMARK UNBOUND:                -4.511
REMARK SMILES CC[C@@H](C)[C@@H](NC(=O)[C@@H](O)Cc1ccc(O)c(Cl)c1)C(=O)N1[C@H](C(=O)NCCCCN=C(N)N)C[C@H]2CC[C@H](OS(=O)(=O)O)C[C@@H]21
REMARK SMILES IDX 22 1 36 2 46 3 35 4 23 5 45 6 37 7 39 8 38 9 20 10 21 11
REMARK SMILES IDX 5 12 6 13 7 14 8 15 9 17 11 18 12 19 17 20 19 21 15 22 14 23
REMARK SMILES IDX 13 24 18 25 16 26 10 28 3 30 4 31 2 32 1 33 24 34 25 35
REMARK SMILES IDX 26 36 27 38 28 39 29 40 30 41 31 42 32 43 33 44 34 45 40 50
REMARK SMILES IDX 41 51 42 52 43 53 44 54
REMARK H PARENT 6 16 16 27 10 29 26 37 33 46 33 47 34 48 34 49 44 55
ROOT
ATOM      1  N   UNL     1      -2.702  -0.174   5.075  1.00  0.00    -0.326 N 
ATOM      2  C   UNL     1      -1.440  -0.203   7.063  1.00  0.00     0.014 C 
ATOM      3  C   UNL     1      -1.389   0.223   5.593  1.00  0.00     0.091 C 
ATOM      4  C   UNL     1      -2.277  -1.472   7.015  1.00  0.00     0.041 C 
ATOM      5  C   UNL     1      -3.406  -1.018   6.071  1.00  0.00     0.175 C 
ATOM      6  C   UNL     1      -1.002   1.700   5.531  1.00  0.00     0.059 C 
ATOM      7  C   UNL     1      -0.049  -0.252   7.662  1.00  0.00     0.008 C 
ATOM      8  C   UNL     1      -0.067   2.145   6.677  1.00  0.00     0.143 C 
ATOM      9  C   UNL     1       0.776   0.976   7.224  1.00  0.00     0.034 C 
ENDROOT
BRANCH   1  10
ATOM     10  C   UNL     1      -3.224  -0.057   3.799  1.00  0.00     0.246 C 
ATOM     11  O   UNL     1      -2.910  -0.891   2.942  1.00  0.00    -0.272 OA
BRANCH  10  12
ATOM     12  C   UNL     1      -4.227   1.090   3.482  1.00  0.00     0.174 C 
BRANCH  12  13
ATOM     13  N   UNL     1      -4.088   1.502   2.085  1.00  0.00    -0.342 N 
ATOM     14  C   UNL     1      -4.883   1.065   1.050  1.00  0.00     0.249 C 
ATOM     15  O   UNL     1      -5.824   0.294   1.190  1.00  0.00    -0.272 OA
ATOM     16  H   UNL     1      -3.259   2.013   1.791  1.00  0.00     0.164 HD
BRANCH  14  17
ATOM     17  C   UNL     1      -4.474   1.669  -0.311  1.00  0.00     0.207 C 
BRANCH  17  18
ATOM     18  C   UNL     1      -4.132   3.154  -0.156  1.00  0.00     0.077 C 
BRANCH  18  19
ATOM     19  C   UNL     1      -2.689   3.439  -0.508  1.00  0.00    -0.043 A 
ATOM     20  C   UNL     1      -0.323   3.009  -0.189  1.00  0.00     0.083 A 
ATOM     21  C   UNL     1      -1.655   2.710   0.100  1.00  0.00     0.028 A 
ATOM     22  C   UNL     1      -0.016   4.035  -1.084  1.00  0.00     0.134 A 
ATOM     23  C   UNL     1      -1.030   4.764  -1.693  1.00  0.00     0.048 A 
ATOM     24  C   UNL     1      -2.365   4.469  -1.404  1.00  0.00     0.008 A 
ATOM     25  Cl  UNL     1       0.933   2.103   0.568  1.00  0.00    -0.080 Cl
BRANCH  22  26
ATOM     26  O   UNL     1       1.274   4.371  -1.391  1.00  0.00    -0.506 OA
ATOM     27  H   UNL     1       1.601   4.927  -0.659  1.00  0.00     0.293 HD
ENDBRANCH  22  26
ENDBRANCH  18  19
ENDBRANCH  17  18
BRANCH  17  28
ATOM     28  O   UNL     1      -5.523   1.519  -1.280  1.00  0.00    -0.383 OA
ATOM     29  H   UNL     1      -6.301   1.172  -0.787  1.00  0.00     0.211 HD
ENDBRANCH  17  28
ENDBRANCH  14  17
ENDBRANCH  12  13
BRANCH  12  30
ATOM     30  C   UNL     1      -4.104   2.283   4.467  1.00  0.00     0.018 C 
ATOM     31  C   UNL     1      -5.490   2.749   4.937  1.00  0.00     0.010 C 
BRANCH  30  32
ATOM     32  C   UNL     1      -3.306   3.481   3.895  1.00  0.00     0.002 C 
ATOM     33  C   UNL     1      -4.046   4.812   3.887  1.00  0.00     0.004 C 
ENDBRANCH  30  32
ENDBRANCH  12  30
ENDBRANCH  10  12
ENDBRANCH   1  10
BRANCH   5  34
ATOM     34  C   UNL     1      -4.486  -0.196   6.825  1.00  0.00     0.242 C 
ATOM     35  O   UNL     1      -4.200   0.756   7.550  1.00  0.00    -0.273 OA
ATOM     36  N   UNL     1      -5.778  -0.643   6.666  1.00  0.00    -0.354 N 
ATOM     37  H   UNL     1      -5.939  -1.509   6.151  1.00  0.00     0.163 HD
BRANCH  36  38
ATOM     38  C   UNL     1      -6.922   0.123   7.116  1.00  0.00     0.116 C 
BRANCH  38  39
ATOM     39  C   UNL     1      -7.987   0.155   6.023  1.00  0.00     0.023 C 
BRANCH  39  40
ATOM     40  C   UNL     1      -9.256  -0.590   6.424  1.00  0.00     0.026 C 
BRANCH  40  41
ATOM     41  C   UNL     1     -10.330  -0.451   5.345  1.00  0.00     0.146 C 
BRANCH  41  42
ATOM     42  N   UNL     1     -10.426  -1.688   4.582  1.00  0.00    -0.254 NA
ATOM     43  C   UNL     1     -11.536  -2.325   4.545  1.00  0.00     0.185 C 
ATOM     44  N   UNL     1     -12.717  -2.040   5.123  1.00  0.00    -0.370 N 
ATOM     45  N   UNL     1     -11.602  -3.466   3.840  1.00  0.00    -0.370 N 
ATOM     46  H   UNL     1     -13.428  -2.745   5.212  1.00  0.00     0.159 HD
ATOM     47  H   UNL     1     -12.848  -1.203   5.683  1.00  0.00     0.159 HD
ATOM     48  H   UNL     1     -10.756  -3.750   3.365  1.00  0.00     0.159 HD
ATOM     49  H   UNL     1     -12.472  -3.888   3.569  1.00  0.00     0.159 HD
ENDBRANCH  41  42
ENDBRANCH  40  41
ENDBRANCH  39  40
ENDBRANCH  38  39
ENDBRANCH  36  38
ENDBRANCH   5  34
BRANCH   8  50
ATOM     50  O   UNL     1      -0.833   2.693   7.750  1.00  0.00    -0.245 OA
BRANCH  50  51
ATOM     51  S   UNL     1      -0.795   4.295   8.028  1.00  0.00     0.397 S 
ATOM     52  O   UNL     1      -1.869   4.905   7.277  1.00  0.00    -0.169 OA
ATOM     53  O   UNL     1       0.568   4.773   7.927  1.00  0.00    -0.169 OA
BRANCH  51  54
ATOM     54  O   UNL     1      -1.237   4.379   9.571  1.00  0.00    -0.264 OA
ATOM     55  H   UNL     1      -0.553   3.924  10.103  1.00  0.00     0.236 HD
ENDBRANCH  51  54
ENDBRANCH  50  51
ENDBRANCH   8  50
TORSDOF 19
ENDMDL
MODEL 50
REMARK VINA RESULT:    -6.020      4.398      7.419
REMARK INTER + INTRA:         -16.689
REMARK INTER:                 -12.474
REMARK INTRA:                  -4.215
REMARK UNBOUND:                -4.511
REMARK SMILES CC[C@@H](C)[C@@H](NC(=O)[C@@H](O)Cc1ccc(O)c(Cl)c1)C(=O)N1[C@H](C(=O)NCCCCN=C(N)N)C[C@H]2CC[C@H](OS(=O)(=O)O)C[C@@H]21
REMARK SMILES IDX 22 1 36 2 46 3 35 4 23 5 45 6 37 7 39 8 38 9 20 10 21 11
REMARK SMILES IDX 5 12 6 13 7 14 8 15 9 17 11 18 12 19 17 20 19 21 15 22 14 23
REMARK SMILES IDX 13 24 18 25 16 26 10 28 3 30 4 31 2 32 1 33 24 34 25 35
REMARK SMILES IDX 26 36 27 38 28 39 29 40 30 41 31 42 32 43 33 44 34 45 40 50
REMARK SMILES IDX 41 51 42 52 43 53 44 54
REMARK H PARENT 6 16 16 27 10 29 26 37 33 46 33 47 34 48 34 49 44 55
ROOT
ATOM      1  N   UNL     1      -6.457   3.070   0.403  1.00  0.00    -0.326 N 
ATOM      2  C   UNL     1      -5.641   1.763  -1.377  1.00  0.00     0.014 C 
ATOM      3  C   UNL     1      -6.923   2.364  -0.795  1.00  0.00     0.091 C 
ATOM      4  C   UNL     1      -4.834   1.425  -0.133  1.00  0.00     0.041 C 
ATOM      5  C   UNL     1      -5.046   2.711   0.687  1.00  0.00     0.175 C 
ATOM      6  C   UNL     1      -7.617   3.173  -1.888  1.00  0.00     0.059 C 
ATOM      7  C   UNL     1      -5.960   0.668  -2.376  1.00  0.00     0.008 C 
ATOM      8  C   UNL     1      -7.399   2.612  -3.310  1.00  0.00     0.143 C 
ATOM      9  C   UNL     1      -7.122   1.095  -3.298  1.00  0.00     0.034 C 
ENDROOT
BRANCH   1  10
ATOM     10  C   UNL     1      -7.174   3.788   1.345  1.00  0.00     0.246 C 
ATOM     11  O   UNL     1      -7.372   4.993   1.159  1.00  0.00    -0.272 OA
BRANCH  10  12
ATOM     12  C   UNL     1      -7.750   3.056   2.592  1.00  0.00     0.174 C 
BRANCH  12  13
ATOM     13  N   UNL     1      -6.660   2.640   3.473  1.00  0.00    -0.342 N 
ATOM     14  C   UNL     1      -6.148   3.392   4.507  1.00  0.00     0.249 C 
ATOM     15  O   UNL     1      -6.575   4.496   4.823  1.00  0.00    -0.272 OA
ATOM     16  H   UNL     1      -6.105   1.821   3.237  1.00  0.00     0.164 HD
BRANCH  14  17
ATOM     17  C   UNL     1      -4.990   2.685   5.242  1.00  0.00     0.207 C 
BRANCH  17  18
ATOM     18  C   UNL     1      -5.260   1.181   5.346  1.00  0.00     0.077 C 
BRANCH  18  19
ATOM     19  C   UNL     1      -4.157   0.366   4.708  1.00  0.00    -0.043 A 
ATOM     20  C   UNL     1      -2.117  -0.931   4.907  1.00  0.00     0.083 A 
ATOM     21  C   UNL     1      -3.160  -0.222   5.502  1.00  0.00     0.028 A 
ATOM     22  C   UNL     1      -2.061  -1.056   3.518  1.00  0.00     0.134 A 
ATOM     23  C   UNL     1      -3.041  -0.479   2.719  1.00  0.00     0.048 A 
ATOM     24  C   UNL     1      -4.086   0.233   3.312  1.00  0.00     0.008 A 
ATOM     25  Cl  UNL     1      -0.901  -1.645   5.900  1.00  0.00    -0.080 Cl
BRANCH  22  26
ATOM     26  O   UNL     1      -1.051  -1.733   2.888  1.00  0.00    -0.506 OA
ATOM     27  H   UNL     1      -0.341  -1.086   2.723  1.00  0.00     0.293 HD
ENDBRANCH  22  26
ENDBRANCH  18  19
ENDBRANCH  17  18
BRANCH  17  28
ATOM     28  O   UNL     1      -4.805   3.228   6.559  1.00  0.00    -0.383 OA
ATOM     29  H   UNL     1      -5.113   4.161   6.514  1.00  0.00     0.211 HD
ENDBRANCH  17  28
ENDBRANCH  14  17
ENDBRANCH  12  13
BRANCH  12  30
ATOM     30  C   UNL     1      -8.689   1.879   2.215  1.00  0.00     0.018 C 
ATOM     31  C   UNL     1      -9.915   2.385   1.439  1.00  0.00     0.010 C 
BRANCH  30  32
ATOM     32  C   UNL     1      -9.141   1.031   3.430  1.00  0.00     0.002 C 
ATOM     33  C   UNL     1      -9.930   1.785   4.492  1.00  0.00     0.004 C 
ENDBRANCH  30  32
ENDBRANCH  12  30
ENDBRANCH  10  12
ENDBRANCH   1  10
BRANCH   5  34
ATOM     34  C   UNL     1      -4.088   3.844   0.232  1.00  0.00     0.242 C 
ATOM     35  O   UNL     1      -4.473   4.802  -0.437  1.00  0.00    -0.273 OA
ATOM     36  N   UNL     1      -2.768   3.671   0.584  1.00  0.00    -0.354 N 
ATOM     37  H   UNL     1      -2.489   2.798   1.034  1.00  0.00     0.163 HD
BRANCH  36  38
ATOM     38  C   UNL     1      -1.783   4.722   0.432  1.00  0.00     0.116 C 
BRANCH  38  39
ATOM     39  C   UNL     1      -0.425   4.115   0.087  1.00  0.00     0.023 C 
BRANCH  39  40
ATOM     40  C   UNL     1      -0.019   4.379  -1.358  1.00  0.00     0.026 C 
BRANCH  40  41
ATOM     41  C   UNL     1      -0.636   3.340  -2.294  1.00  0.00     0.146 C 
BRANCH  41  42
ATOM     42  N   UNL     1      -1.088   3.987  -3.519  1.00  0.00    -0.254 NA
ATOM     43  C   UNL     1      -2.270   3.760  -3.956  1.00  0.00     0.185 C 
ATOM     44  N   UNL     1      -3.242   2.977  -3.454  1.00  0.00    -0.370 N 
ATOM     45  N   UNL     1      -2.666   4.363  -5.089  1.00  0.00    -0.370 N 
ATOM     46  H   UNL     1      -4.024   2.702  -4.024  1.00  0.00     0.159 HD
ATOM     47  H   UNL     1      -3.116   2.457  -2.591  1.00  0.00     0.159 HD
ATOM     48  H   UNL     1      -1.994   4.978  -5.528  1.00  0.00     0.159 HD
ATOM     49  H   UNL     1      -3.630   4.426  -5.363  1.00  0.00     0.159 HD
ENDBRANCH  41  42
ENDBRANCH  40  41
ENDBRANCH  39  40
ENDBRANCH  38  39
ENDBRANCH  36  38
ENDBRANCH   5  34
BRANCH   8  50
ATOM     50  O   UNL     1      -6.295   3.269  -3.933  1.00  0.00    -0.245 OA
BRANCH  50  51
ATOM     51  S   UNL     1      -6.143   3.226  -5.551  1.00  0.00     0.397 S 
ATOM     52  O   UNL     1      -7.465   3.086  -6.120  1.00  0.00    -0.169 OA
ATOM     53  O   UNL     1      -5.062   2.333  -5.914  1.00  0.00    -0.169 OA
BRANCH  51  54
ATOM     54  O   UNL     1      -5.679   4.728  -5.886  1.00  0.00    -0.264 OA
ATOM     55  H   UNL     1      -6.206   5.041  -6.649  1.00  0.00     0.236 HD
ENDBRANCH  51  54
ENDBRANCH  50  51
ENDBRANCH   8  50
TORSDOF 19
ENDMDL
