MODEL 1
REMARK VINA RESULT:    -7.244      0.000      0.000
REMARK INTER + INTRA:         -27.794
REMARK INTER:                 -21.644
REMARK INTRA:                  -6.151
REMARK UNBOUND:                -6.151
REMARK SMILES C=C1C(=O)N[C@H](C)C(=O)N[C@@H](CC(C)C)C(=O)N[C@@H](C(=O)O)[C@H](C)C(=O)N[C@@H](CCCN=C(N)N)C(=O)N[C@@H](/C=C/C(C)=C/[C@H](C)[C@H](Cc2ccccc2)OC)[C@H](C)C(=O)N[C@@H](C(=O)O)CCC(=O)N1C
REMARK SMILES IDX 39 1 38 2 37 3 36 4 28 6 27 7 25 8 26 9 23 11 24 12 19 13
REMARK SMILES IDX 18 14 16 15 17 16 11 18 10 19 8 20 9 21 12 24 13 25 14 26
REMARK SMILES IDX 15 27 20 28 21 29 22 30 29 32 30 33 31 34 32 35 33 36 34 37
REMARK SMILES IDX 35 38 57 43 58 44 59 45 60 46 61 47 62 49 66 50 67 51 68 52
REMARK SMILES IDX 69 53 70 54 71 55 2 56 1 57 3 58 4 59 5 60 6 62 7 63 63 65
REMARK SMILES IDX 64 66 65 67 40 69 41 70 42 71 44 72 43 73 45 74 46 75 47 76
REMARK SMILES IDX 55 77 56 78 48 79 49 80 50 81 54 82 51 83 53 84 52 85
REMARK H PARENT 38 5 27 10 18 17 10 22 22 31 34 39 34 40 35 41 35 42 61 48
REMARK H PARENT 5 61 65 68
REMARK Flexibility Score:  369.900
ROOT
ATOM      1  C   UNL     1       4.229   2.566  11.473  1.00  0.00     0.117 C 
ENDROOT
BRANCH   1   2
ATOM      2  N   UNL     1       5.556   2.444  10.870  1.00  0.00    -0.347 N 
ATOM      3  O   UNL     1       4.968   2.960   8.711  1.00  0.00    -0.273 OA
ATOM      4  C   UNL     1       5.836   2.741   9.550  1.00  0.00     0.243 C 
ATOM      5  H   UNL     1       6.339   2.175  11.447  1.00  0.00     0.164 HD
BRANCH   4   6
ATOM      6  C   UNL     1       7.337   2.610   9.187  1.00  0.00     0.171 C 
BRANCH   6   7
ATOM      7  N   UNL     1       8.142   2.381  10.397  1.00  0.00    -0.344 N 
ATOM      8  C   UNL     1       9.373   2.981  10.547  1.00  0.00     0.226 C 
ATOM      9  O   UNL     1       9.864   3.703   9.688  1.00  0.00    -0.275 OA
ATOM     10  H   UNL     1       7.799   1.737  11.099  1.00  0.00     0.164 HD
BRANCH   8  11
ATOM     11  C   UNL     1      10.054   2.690  11.873  1.00  0.00     0.109 C 
ATOM     12  C   UNL     1       9.070   2.895  13.025  1.00  0.00     0.021 C 
BRANCH  11  13
ATOM     13  C   UNL     1      10.716   1.299  11.825  1.00  0.00     0.204 C 
BRANCH  13  14
ATOM     14  N   UNL     1      10.972   0.856  10.451  1.00  0.00    -0.340 N 
ATOM     15  C   UNL     1      10.350  -0.237   9.888  1.00  0.00     0.243 C 
ATOM     16  O   UNL     1       9.489  -0.884  10.481  1.00  0.00    -0.273 OA
ATOM     17  H   UNL     1      11.779   1.253   9.961  1.00  0.00     0.164 HD
BRANCH  15  18
ATOM     18  C   UNL     1      10.928  -0.636   8.508  1.00  0.00     0.171 C 
BRANCH  18  19
ATOM     19  N   UNL     1      12.378  -0.726   8.672  1.00  0.00    -0.343 N 
ATOM     20  C   UNL     1      13.250  -0.277   7.700  1.00  0.00     0.242 CG0
ATOM     21  O   UNL     1      12.851   0.096   6.599  1.00  0.00    -0.273 OA
ATOM     22  H   UNL     1      12.758  -1.134   9.518  1.00  0.00     0.164 HD
ATOM     23  G   UNL     1      14.741  -0.382   8.084  1.00  0.00     0.000 G0
ENDBRANCH  18  19
BRANCH  18  24
ATOM     24  C   UNL     1      10.332  -1.968   8.036  1.00  0.00     0.038 C 
BRANCH  24  25
ATOM     25  C   UNL     1       9.155  -1.832   7.047  1.00  0.00    -0.015 C 
ATOM     26  C   UNL     1       7.887  -2.523   7.548  1.00  0.00     0.007 C 
ATOM     27  C   UNL     1       9.556  -2.414   5.688  1.00  0.00     0.007 C 
ENDBRANCH  24  25
ENDBRANCH  18  24
ENDBRANCH  15  18
ENDBRANCH  13  14
BRANCH  13  28
ATOM     28  C   UNL     1      12.049   1.238  12.577  1.00  0.00     0.327 C 
ATOM     29  O   UNL     1      12.346   1.877  13.575  1.00  0.00    -0.250 OA
BRANCH  28  30
ATOM     30  O   UNL     1      12.970   0.470  11.960  1.00  0.00    -0.480 OA
ATOM     31  H   UNL     1      13.827   0.804  12.296  1.00  0.00     0.296 HD
ENDBRANCH  28  30
ENDBRANCH  13  28
ENDBRANCH  11  13
ENDBRANCH   8  11
ENDBRANCH   6   7
BRANCH   6  32
ATOM     32  C   UNL     1       7.515   1.462   8.186  1.00  0.00     0.037 C 
BRANCH  32  33
ATOM     33  C   UNL     1       8.426   1.852   7.014  1.00  0.00     0.026 C 
BRANCH  33  34
ATOM     34  C   UNL     1       7.673   2.599   5.911  1.00  0.00     0.146 C 
BRANCH  34  35
ATOM     35  N   UNL     1       8.034   4.009   5.969  1.00  0.00    -0.254 NA
ATOM     36  C   UNL     1       7.115   4.868   6.207  1.00  0.00     0.185 C 
ATOM     37  N   UNL     1       7.437   6.170   6.267  1.00  0.00    -0.370 N 
ATOM     38  N   UNL     1       5.802   4.665   6.420  1.00  0.00    -0.370 N 
ATOM     39  H   UNL     1       8.411   6.404   6.128  1.00  0.00     0.159 HD
ATOM     40  H   UNL     1       6.817   6.880   6.617  1.00  0.00     0.159 HD
ATOM     41  H   UNL     1       5.156   5.436   6.458  1.00  0.00     0.159 HD
ATOM     42  H   UNL     1       5.416   3.735   6.388  1.00  0.00     0.159 HD
ENDBRANCH  34  35
ENDBRANCH  33  34
ENDBRANCH  32  33
ENDBRANCH   6  32
ENDBRANCH   4   6
ENDBRANCH   1   2
BRANCH   1  43
ATOM     43  C   UNL     1       4.258   3.735  12.500  1.00  0.00     0.102 C 
ATOM     44  C   UNL     1       2.913   3.956  13.213  1.00  0.00     0.020 C 
BRANCH  43  45
ATOM     45  C   UNL     1       4.846   5.003  11.875  1.00  0.00     0.225 C 
ATOM     46  O   UNL     1       6.009   5.358  12.046  1.00  0.00    -0.275 OA
ATOM     47  N   UNL     1       3.957   5.785  11.174  1.00  0.00    -0.342 N 
ATOM     48  H   UNL     1       3.055   5.408  10.916  1.00  0.00     0.164 HD
BRANCH  47  49
ATOM     49  C   UNL     1       4.386   7.009  10.491  1.00  0.00     0.192 C 
BRANCH  49  50
ATOM     50  C   UNL     1       3.260   8.045  10.537  1.00  0.00     0.047 C 
BRANCH  50  51
ATOM     51  C   UNL     1       2.383   7.896  11.788  1.00  0.00     0.103 C 
BRANCH  51  52
ATOM     52  C   UNL     1       0.941   8.331  11.533  1.00  0.00     0.226 C 
ATOM     53  O   UNL     1       0.619   8.754  10.421  1.00  0.00    -0.275 OA
BRANCH  52  54
ATOM     54  N   UNL     1       0.033   8.143  12.591  1.00  0.00    -0.311 N 
ATOM     55  C   UNL     1       0.478   7.605  13.883  1.00  0.00     0.153 C 
BRANCH  54  56
ATOM     56  C   UNL     1      -1.327   8.468  12.455  1.00  0.00     0.102 C 
ATOM     57  C   UNL     1      -2.144   7.978  11.509  1.00  0.00     0.043 C 
BRANCH  56  58
ATOM     58  C   UNL     1      -2.003   9.398  13.436  1.00  0.00     0.268 C 
ATOM     59  O   UNL     1      -2.397  10.517  13.135  1.00  0.00    -0.268 OA
ATOM     60  N   UNL     1      -2.189   8.834  14.675  1.00  0.00    -0.339 N 
ATOM     61  H   UNL     1      -1.824   7.905  14.847  1.00  0.00     0.164 HD
BRANCH  60  62
ATOM     62  C   UNL     1      -2.880   9.537  15.755  1.00  0.00     0.168 CG0
ATOM     63  C   UNL     1      -1.939   9.803  16.924  1.00  0.00     0.041 C 
ATOM     64  G   UNL     1      -4.099   8.710  16.213  1.00  0.00     0.000 G0
ENDBRANCH  60  62
ENDBRANCH  56  58
ENDBRANCH  54  56
ENDBRANCH  52  54
ENDBRANCH  51  52
ENDBRANCH  50  51
ENDBRANCH  49  50
BRANCH  49  65
ATOM     65  C   UNL     1       4.768   6.738   9.028  1.00  0.00     0.326 C 
ATOM     66  O   UNL     1       5.632   7.331   8.397  1.00  0.00    -0.250 OA
BRANCH  65  67
ATOM     67  O   UNL     1       4.020   5.794   8.415  1.00  0.00    -0.480 OA
ATOM     68  H   UNL     1       3.573   5.335   9.159  1.00  0.00     0.296 HD
ENDBRANCH  65  67
ENDBRANCH  49  65
ENDBRANCH  47  49
ENDBRANCH  43  45
ENDBRANCH   1  43
BRANCH   1  69
ATOM     69  C   UNL     1       3.851   1.177  11.953  1.00  0.00    -0.001 C 
ATOM     70  C   UNL     1       2.619   0.716  12.232  1.00  0.00     0.001 C 
BRANCH  70  71
ATOM     71  C   UNL     1       2.265  -0.634  12.674  1.00  0.00    -0.055 C 
ATOM     72  C   UNL     1       1.196  -0.768  13.488  1.00  0.00    -0.018 C 
ATOM     73  C   UNL     1       3.112  -1.779  12.183  1.00  0.00     0.044 C 
BRANCH  72  74
ATOM     74  C   UNL     1       0.600  -2.030  14.094  1.00  0.00     0.038 C 
ATOM     75  C   UNL     1      -0.898  -1.771  14.295  1.00  0.00     0.015 C 
BRANCH  74  76
ATOM     76  C   UNL     1       1.382  -2.379  15.395  1.00  0.00     0.128 C 
BRANCH  76  77
ATOM     77  O   UNL     1       2.227  -1.278  15.770  1.00  0.00    -0.381 OA
ATOM     78  C   UNL     1       3.470  -1.677  16.330  1.00  0.00     0.195 C 
ENDBRANCH  76  77
BRANCH  76  79
ATOM     79  C   UNL     1       0.483  -2.868  16.558  1.00  0.00     0.068 C 
BRANCH  79  80
ATOM     80  C   UNL     1       0.604  -4.310  16.987  1.00  0.00    -0.045 A 
ATOM     81  C   UNL     1       1.232  -4.655  18.192  1.00  0.00     0.004 A 
ATOM     82  C   UNL     1       0.112  -5.336  16.166  1.00  0.00     0.004 A 
ATOM     83  C   UNL     1       1.352  -5.992  18.575  1.00  0.00     0.000 A 
ATOM     84  C   UNL     1       0.234  -6.673  16.550  1.00  0.00     0.000 A 
ATOM     85  C   UNL     1       0.852  -7.001  17.754  1.00  0.00     0.000 A 
ENDBRANCH  79  80
ENDBRANCH  76  79
ENDBRANCH  74  76
ENDBRANCH  72  74
ENDBRANCH  70  71
ENDBRANCH   1  69
TORSDOF 17
ENDMDL
MODEL 2
REMARK VINA RESULT:    -6.989      4.615      9.130
REMARK INTER + INTRA:         -27.030
REMARK INTER:                 -18.802
REMARK INTRA:                  -8.228
REMARK UNBOUND:                -6.151
REMARK SMILES C=C1C(=O)N[C@H](C)C(=O)N[C@@H](CC(C)C)C(=O)N[C@@H](C(=O)O)[C@H](C)C(=O)N[C@@H](CCCN=C(N)N)C(=O)N[C@@H](/C=C/C(C)=C/[C@H](C)[C@H](Cc2ccccc2)OC)[C@H](C)C(=O)N[C@@H](C(=O)O)CCC(=O)N1C
REMARK SMILES IDX 39 1 38 2 37 3 36 4 28 6 27 7 25 8 26 9 23 11 24 12 19 13
REMARK SMILES IDX 18 14 16 15 17 16 11 18 10 19 8 20 9 21 12 24 13 25 14 26
REMARK SMILES IDX 15 27 20 28 21 29 22 30 29 32 30 33 31 34 32 35 33 36 34 37
REMARK SMILES IDX 35 38 57 43 58 44 59 45 60 46 61 47 62 49 66 50 67 51 68 52
REMARK SMILES IDX 69 53 70 54 71 55 2 56 1 57 3 58 4 59 5 60 6 62 7 63 63 65
REMARK SMILES IDX 64 66 65 67 40 69 41 70 42 71 44 72 43 73 45 74 46 75 47 76
REMARK SMILES IDX 55 77 56 78 48 79 49 80 50 81 54 82 51 83 53 84 52 85
REMARK H PARENT 38 5 27 10 18 17 10 22 22 31 34 39 34 40 35 41 35 42 61 48
REMARK H PARENT 5 61 65 68
REMARK Flexibility Score:  369.900
ROOT
ATOM      1  C   UNL     1       2.372   2.397  12.775  1.00  0.00     0.117 C 
ENDROOT
BRANCH   1   2
ATOM      2  N   UNL     1       3.493   2.685  11.880  1.00  0.00    -0.347 N 
ATOM      3  O   UNL     1       2.392   2.376   9.890  1.00  0.00    -0.273 OA
ATOM      4  C   UNL     1       3.389   2.741  10.504  1.00  0.00     0.243 C 
ATOM      5  H   UNL     1       4.395   2.908  12.273  1.00  0.00     0.164 HD
BRANCH   4   6
ATOM      6  C   UNL     1       4.705   3.152   9.795  1.00  0.00     0.171 C 
BRANCH   6   7
ATOM      7  N   UNL     1       4.995   4.574  10.034  1.00  0.00    -0.344 N 
ATOM      8  C   UNL     1       4.297   5.556   9.366  1.00  0.00     0.226 C 
ATOM      9  O   UNL     1       3.430   5.302   8.538  1.00  0.00    -0.275 OA
ATOM     10  H   UNL     1       5.751   4.822  10.661  1.00  0.00     0.164 HD
BRANCH   8  11
ATOM     11  C   UNL     1       4.675   6.973   9.762  1.00  0.00     0.109 C 
ATOM     12  C   UNL     1       5.586   6.950  10.989  1.00  0.00     0.021 C 
BRANCH  11  13
ATOM     13  C   UNL     1       5.248   7.720   8.541  1.00  0.00     0.204 C 
BRANCH  13  14
ATOM     14  N   UNL     1       5.787   6.800   7.535  1.00  0.00    -0.340 N 
ATOM     15  C   UNL     1       7.136   6.679   7.278  1.00  0.00     0.243 C 
ATOM     16  O   UNL     1       7.988   7.291   7.918  1.00  0.00    -0.273 OA
ATOM     17  H   UNL     1       5.133   6.379   6.869  1.00  0.00     0.164 HD
BRANCH  15  18
ATOM     18  C   UNL     1       7.453   5.807   6.038  1.00  0.00     0.171 C 
BRANCH  18  19
ATOM     19  N   UNL     1       7.957   6.713   5.007  1.00  0.00    -0.343 N 
ATOM     20  C   UNL     1       7.106   7.418   4.178  1.00  0.00     0.242 CG0
ATOM     21  O   UNL     1       5.894   7.217   4.178  1.00  0.00    -0.273 OA
ATOM     22  H   UNL     1       8.957   6.825   4.890  1.00  0.00     0.164 HD
ATOM     23  G   UNL     1       7.818   8.382   3.207  1.00  0.00     0.000 G0
ENDBRANCH  18  19
BRANCH  18  24
ATOM     24  C   UNL     1       8.482   4.724   6.386  1.00  0.00     0.038 C 
BRANCH  24  25
ATOM     25  C   UNL     1       7.991   3.673   7.405  1.00  0.00    -0.015 C 
ATOM     26  C   UNL     1       9.112   2.745   7.872  1.00  0.00     0.007 C 
ATOM     27  C   UNL     1       6.861   2.846   6.787  1.00  0.00     0.007 C 
ENDBRANCH  24  25
ENDBRANCH  18  24
ENDBRANCH  15  18
ENDBRANCH  13  14
BRANCH  13  28
ATOM     28  C   UNL     1       4.218   8.609   7.839  1.00  0.00     0.327 C 
ATOM     29  O   UNL     1       3.980   8.631   6.641  1.00  0.00    -0.250 OA
BRANCH  28  30
ATOM     30  O   UNL     1       3.634   9.498   8.667  1.00  0.00    -0.480 OA
ATOM     31  H   UNL     1       4.041  10.356   8.426  1.00  0.00     0.296 HD
ENDBRANCH  28  30
ENDBRANCH  13  28
ENDBRANCH  11  13
ENDBRANCH   8  11
ENDBRANCH   6   7
BRANCH   6  32
ATOM     32  C   UNL     1       5.848   2.267  10.305  1.00  0.00     0.037 C 
BRANCH  32  33
ATOM     33  C   UNL     1       6.930   3.078  11.030  1.00  0.00     0.026 C 
BRANCH  33  34
ATOM     34  C   UNL     1       7.690   2.248  12.065  1.00  0.00     0.146 C 
BRANCH  34  35
ATOM     35  N   UNL     1       8.969   2.890  12.336  1.00  0.00    -0.254 NA
ATOM     36  C   UNL     1       9.074   3.636  13.372  1.00  0.00     0.185 C 
ATOM     37  N   UNL     1      10.249   4.229  13.634  1.00  0.00    -0.370 N 
ATOM     38  N   UNL     1       8.142   3.939  14.293  1.00  0.00    -0.370 N 
ATOM     39  H   UNL     1      11.006   4.041  12.989  1.00  0.00     0.159 HD
ATOM     40  H   UNL     1      10.461   4.682  14.506  1.00  0.00     0.159 HD
ATOM     41  H   UNL     1       8.307   4.651  14.986  1.00  0.00     0.159 HD
ATOM     42  H   UNL     1       7.205   3.576  14.213  1.00  0.00     0.159 HD
ENDBRANCH  34  35
ENDBRANCH  33  34
ENDBRANCH  32  33
ENDBRANCH   6  32
ENDBRANCH   4   6
ENDBRANCH   1   2
BRANCH   1  43
ATOM     43  C   UNL     1       2.684   3.007  14.172  1.00  0.00     0.102 C 
ATOM     44  C   UNL     1       2.373   4.511  14.266  1.00  0.00     0.020 C 
BRANCH  43  45
ATOM     45  C   UNL     1       4.096   2.635  14.632  1.00  0.00     0.225 C 
ATOM     46  O   UNL     1       5.112   3.109  14.131  1.00  0.00    -0.275 OA
ATOM     47  N   UNL     1       4.167   1.651  15.592  1.00  0.00    -0.342 N 
ATOM     48  H   UNL     1       3.333   1.384  16.097  1.00  0.00     0.164 HD
BRANCH  47  49
ATOM     49  C   UNL     1       5.450   1.219  16.153  1.00  0.00     0.192 C 
BRANCH  49  50
ATOM     50  C   UNL     1       5.306  -0.186  16.744  1.00  0.00     0.047 C 
BRANCH  50  51
ATOM     51  C   UNL     1       4.508  -1.124  15.827  1.00  0.00     0.103 C 
BRANCH  51  52
ATOM     52  C   UNL     1       4.867  -2.591  16.055  1.00  0.00     0.226 C 
ATOM     53  O   UNL     1       4.007  -3.373  16.464  1.00  0.00    -0.275 OA
BRANCH  52  54
ATOM     54  N   UNL     1       6.173  -2.979  15.701  1.00  0.00    -0.311 N 
ATOM     55  C   UNL     1       6.600  -3.004  14.296  1.00  0.00     0.153 C 
BRANCH  54  56
ATOM     56  C   UNL     1       7.116  -3.349  16.675  1.00  0.00     0.102 C 
ATOM     57  C   UNL     1       7.984  -2.510  17.263  1.00  0.00     0.043 C 
BRANCH  56  58
ATOM     58  C   UNL     1       7.190  -4.771  17.180  1.00  0.00     0.268 C 
ATOM     59  O   UNL     1       6.362  -5.256  17.938  1.00  0.00    -0.268 OA
ATOM     60  N   UNL     1       8.242  -5.479  16.648  1.00  0.00    -0.339 N 
ATOM     61  H   UNL     1       8.890  -5.001  16.034  1.00  0.00     0.164 HD
BRANCH  60  62
ATOM     62  C   UNL     1       8.464  -6.891  16.954  1.00  0.00     0.168 CG0
ATOM     63  C   UNL     1       8.469  -7.732  15.683  1.00  0.00     0.041 C 
ATOM     64  G   UNL     1       7.377  -7.386  17.931  1.00  0.00     0.000 G0
ENDBRANCH  60  62
ENDBRANCH  56  58
ENDBRANCH  54  56
ENDBRANCH  52  54
ENDBRANCH  51  52
ENDBRANCH  50  51
ENDBRANCH  49  50
BRANCH  49  65
ATOM     65  C   UNL     1       5.945   2.181  17.244  1.00  0.00     0.326 C 
ATOM     66  O   UNL     1       5.557   2.201  18.403  1.00  0.00    -0.250 OA
BRANCH  65  67
ATOM     67  O   UNL     1       6.844   3.097  16.822  1.00  0.00    -0.480 OA
ATOM     68  H   UNL     1       6.312   3.917  16.728  1.00  0.00     0.296 HD
ENDBRANCH  65  67
ENDBRANCH  49  65
ENDBRANCH  47  49
ENDBRANCH  43  45
ENDBRANCH   1  43
BRANCH   1  69
ATOM     69  C   UNL     1       2.117   0.904  12.667  1.00  0.00    -0.001 C 
ATOM     70  C   UNL     1       1.686   0.077  13.636  1.00  0.00     0.001 C 
BRANCH  70  71
ATOM     71  C   UNL     1       1.422  -1.358  13.514  1.00  0.00    -0.055 C 
ATOM     72  C   UNL     1       0.280  -1.835  14.053  1.00  0.00    -0.018 C 
ATOM     73  C   UNL     1       2.440  -2.200  12.789  1.00  0.00     0.044 C 
BRANCH  72  74
ATOM     74  C   UNL     1      -0.252  -3.260  14.077  1.00  0.00     0.038 C 
ATOM     75  C   UNL     1      -1.766  -3.175  14.304  1.00  0.00     0.015 C 
BRANCH  74  76
ATOM     76  C   UNL     1       0.526  -4.067  15.159  1.00  0.00     0.128 C 
BRANCH  76  77
ATOM     77  O   UNL     1      -0.162  -3.989  16.419  1.00  0.00    -0.381 OA
ATOM     78  C   UNL     1       0.671  -3.599  17.502  1.00  0.00     0.195 C 
ENDBRANCH  76  77
BRANCH  76  79
ATOM     79  C   UNL     1       0.853  -5.523  14.744  1.00  0.00     0.068 C 
BRANCH  79  80
ATOM     80  C   UNL     1       2.280  -5.995  14.884  1.00  0.00    -0.045 A 
ATOM     81  C   UNL     1       3.246  -5.671  13.922  1.00  0.00     0.004 A 
ATOM     82  C   UNL     1       2.657  -6.794  15.974  1.00  0.00     0.004 A 
ATOM     83  C   UNL     1       4.561  -6.123  14.052  1.00  0.00     0.000 A 
ATOM     84  C   UNL     1       3.972  -7.247  16.103  1.00  0.00     0.000 A 
ATOM     85  C   UNL     1       4.924  -6.909  15.143  1.00  0.00     0.000 A 
ENDBRANCH  79  80
ENDBRANCH  76  79
ENDBRANCH  74  76
ENDBRANCH  72  74
ENDBRANCH  70  71
ENDBRANCH   1  69
TORSDOF 17
ENDMDL
MODEL 3
REMARK VINA RESULT:    -6.978      4.417      9.613
REMARK INTER + INTRA:         -26.997
REMARK INTER:                 -19.050
REMARK INTRA:                  -7.947
REMARK UNBOUND:                -6.151
REMARK SMILES C=C1C(=O)N[C@H](C)C(=O)N[C@@H](CC(C)C)C(=O)N[C@@H](C(=O)O)[C@H](C)C(=O)N[C@@H](CCCN=C(N)N)C(=O)N[C@@H](/C=C/C(C)=C/[C@H](C)[C@H](Cc2ccccc2)OC)[C@H](C)C(=O)N[C@@H](C(=O)O)CCC(=O)N1C
REMARK SMILES IDX 39 1 38 2 37 3 36 4 28 6 27 7 25 8 26 9 23 11 24 12 19 13
REMARK SMILES IDX 18 14 16 15 17 16 11 18 10 19 8 20 9 21 12 24 13 25 14 26
REMARK SMILES IDX 15 27 20 28 21 29 22 30 29 32 30 33 31 34 32 35 33 36 34 37
REMARK SMILES IDX 35 38 57 43 58 44 59 45 60 46 61 47 62 49 66 50 67 51 68 52
REMARK SMILES IDX 69 53 70 54 71 55 2 56 1 57 3 58 4 59 5 60 6 62 7 63 63 65
REMARK SMILES IDX 64 66 65 67 40 69 41 70 42 71 44 72 43 73 45 74 46 75 47 76
REMARK SMILES IDX 55 77 56 78 48 79 49 80 50 81 54 82 51 83 53 84 52 85
REMARK H PARENT 38 5 27 10 18 17 10 22 22 31 34 39 34 40 35 41 35 42 61 48
REMARK H PARENT 5 61 65 68
REMARK Flexibility Score:  369.900
ROOT
ATOM      1  C   UNL     1       2.687   2.221  12.387  1.00  0.00     0.117 C 
ENDROOT
BRANCH   1   2
ATOM      2  N   UNL     1       3.914   2.287  11.592  1.00  0.00    -0.347 N 
ATOM      3  O   UNL     1       3.060   3.430   9.793  1.00  0.00    -0.273 OA
ATOM      4  C   UNL     1       4.024   2.969  10.395  1.00  0.00     0.243 C 
ATOM      5  H   UNL     1       4.756   1.858  11.945  1.00  0.00     0.164 HD
BRANCH   4   6
ATOM      6  C   UNL     1       5.454   2.956   9.799  1.00  0.00     0.171 C 
BRANCH   6   7
ATOM      7  N   UNL     1       6.019   4.314   9.787  1.00  0.00    -0.344 N 
ATOM      8  C   UNL     1       5.924   5.105   8.662  1.00  0.00     0.226 C 
ATOM      9  O   UNL     1       5.395   4.718   7.627  1.00  0.00    -0.275 OA
ATOM     10  H   UNL     1       6.523   4.644  10.601  1.00  0.00     0.164 HD
BRANCH   8  11
ATOM     11  C   UNL     1       6.506   6.498   8.825  1.00  0.00     0.109 C 
ATOM     12  C   UNL     1       7.458   6.809   7.671  1.00  0.00     0.021 C 
BRANCH  11  13
ATOM     13  C   UNL     1       5.367   7.519   9.019  1.00  0.00     0.204 C 
BRANCH  13  14
ATOM     14  N   UNL     1       4.677   7.821   7.761  1.00  0.00    -0.340 N 
ATOM     15  C   UNL     1       4.705   9.067   7.173  1.00  0.00     0.243 C 
ATOM     16  O   UNL     1       5.362   9.999   7.631  1.00  0.00    -0.273 OA
ATOM     17  H   UNL     1       3.995   7.142   7.412  1.00  0.00     0.164 HD
BRANCH  15  18
ATOM     18  C   UNL     1       3.739   9.205   5.970  1.00  0.00     0.171 C 
BRANCH  18  19
ATOM     19  N   UNL     1       3.465  10.632   5.815  1.00  0.00    -0.343 N 
ATOM     20  C   UNL     1       2.415  11.248   6.470  1.00  0.00     0.242 CG0
ATOM     21  O   UNL     1       1.586  10.602   7.106  1.00  0.00    -0.273 OA
ATOM     22  H   UNL     1       4.054  11.189   5.207  1.00  0.00     0.164 HD
ATOM     23  G   UNL     1       2.332  12.772   6.246  1.00  0.00     0.000 G0
ENDBRANCH  18  19
BRANCH  18  24
ATOM     24  C   UNL     1       4.365   8.612   4.702  1.00  0.00     0.038 C 
BRANCH  24  25
ATOM     25  C   UNL     1       5.873   8.896   4.534  1.00  0.00    -0.015 C 
ATOM     26  C   UNL     1       6.152   9.972   3.484  1.00  0.00     0.007 C 
ATOM     27  C   UNL     1       6.601   7.605   4.155  1.00  0.00     0.007 C 
ENDBRANCH  24  25
ENDBRANCH  18  24
ENDBRANCH  15  18
ENDBRANCH  13  14
BRANCH  13  28
ATOM     28  C   UNL     1       4.304   7.056  10.020  1.00  0.00     0.327 C 
ATOM     29  O   UNL     1       3.112   6.917   9.796  1.00  0.00    -0.250 OA
BRANCH  28  30
ATOM     30  O   UNL     1       4.785   6.909  11.272  1.00  0.00    -0.480 OA
ATOM     31  H   UNL     1       5.735   7.135  11.193  1.00  0.00     0.296 HD
ENDBRANCH  28  30
ENDBRANCH  13  28
ENDBRANCH  11  13
ENDBRANCH   8  11
ENDBRANCH   6   7
BRANCH   6  32
ATOM     32  C   UNL     1       6.333   2.005  10.621  1.00  0.00     0.037 C 
BRANCH  32  33
ATOM     33  C   UNL     1       7.614   2.687  11.121  1.00  0.00     0.026 C 
BRANCH  33  34
ATOM     34  C   UNL     1       8.832   2.346  10.261  1.00  0.00     0.146 C 
BRANCH  34  35
ATOM     35  N   UNL     1       8.466   2.469   8.857  1.00  0.00    -0.254 NA
ATOM     36  C   UNL     1       9.066   3.345   8.140  1.00  0.00     0.185 C 
ATOM     37  N   UNL     1       8.740   3.464   6.844  1.00  0.00    -0.370 N 
ATOM     38  N   UNL     1      10.027   4.215   8.498  1.00  0.00    -0.370 N 
ATOM     39  H   UNL     1       8.029   2.834   6.495  1.00  0.00     0.159 HD
ATOM     40  H   UNL     1       9.277   3.997   6.182  1.00  0.00     0.159 HD
ATOM     41  H   UNL     1      10.322   4.950   7.876  1.00  0.00     0.159 HD
ATOM     42  H   UNL     1      10.360   4.248   9.449  1.00  0.00     0.159 HD
ENDBRANCH  34  35
ENDBRANCH  33  34
ENDBRANCH  32  33
ENDBRANCH   6  32
ENDBRANCH   4   6
ENDBRANCH   1   2
BRANCH   1  43
ATOM     43  C   UNL     1       2.965   2.857  13.780  1.00  0.00     0.102 C 
ATOM     44  C   UNL     1       2.405   4.282  13.924  1.00  0.00     0.020 C 
BRANCH  43  45
ATOM     45  C   UNL     1       4.443   2.728  14.158  1.00  0.00     0.225 C 
ATOM     46  O   UNL     1       5.317   3.463  13.707  1.00  0.00    -0.275 OA
ATOM     47  N   UNL     1       4.756   1.665  14.975  1.00  0.00    -0.342 N 
ATOM     48  H   UNL     1       4.018   1.169  15.454  1.00  0.00     0.164 HD
BRANCH  47  49
ATOM     49  C   UNL     1       6.125   1.439  15.447  1.00  0.00     0.192 C 
BRANCH  49  50
ATOM     50  C   UNL     1       6.338  -0.055  15.708  1.00  0.00     0.047 C 
BRANCH  50  51
ATOM     51  C   UNL     1       5.059  -0.873  15.487  1.00  0.00     0.103 C 
BRANCH  51  52
ATOM     52  C   UNL     1       5.361  -2.338  15.180  1.00  0.00     0.226 C 
ATOM     53  O   UNL     1       5.528  -2.695  14.013  1.00  0.00    -0.275 OA
BRANCH  52  54
ATOM     54  N   UNL     1       5.506  -3.193  16.289  1.00  0.00    -0.311 N 
ATOM     55  C   UNL     1       4.332  -3.691  17.018  1.00  0.00     0.153 C 
BRANCH  54  56
ATOM     56  C   UNL     1       6.773  -3.606  16.734  1.00  0.00     0.102 C 
ATOM     57  C   UNL     1       7.501  -2.977  17.671  1.00  0.00     0.043 C 
BRANCH  56  58
ATOM     58  C   UNL     1       7.410  -4.867  16.197  1.00  0.00     0.268 C 
ATOM     59  O   UNL     1       7.599  -5.864  16.880  1.00  0.00    -0.268 OA
ATOM     60  N   UNL     1       7.693  -4.799  14.854  1.00  0.00    -0.339 N 
ATOM     61  H   UNL     1       7.516  -3.931  14.362  1.00  0.00     0.164 HD
BRANCH  60  62
ATOM     62  C   UNL     1       8.256  -5.931  14.118  1.00  0.00     0.168 CG0
ATOM     63  C   UNL     1       7.811  -5.912  12.661  1.00  0.00     0.041 C 
ATOM     64  G   UNL     1       7.837  -7.250  14.800  1.00  0.00     0.000 G0
ENDBRANCH  60  62
ENDBRANCH  56  58
ENDBRANCH  54  56
ENDBRANCH  52  54
ENDBRANCH  51  52
ENDBRANCH  50  51
ENDBRANCH  49  50
BRANCH  49  65
ATOM     65  C   UNL     1       6.418   2.227  16.733  1.00  0.00     0.326 C 
ATOM     66  O   UNL     1       6.518   1.748  17.853  1.00  0.00    -0.250 OA
BRANCH  65  67
ATOM     67  O   UNL     1       6.510   3.565  16.566  1.00  0.00    -0.480 OA
ATOM     68  H   UNL     1       7.461   3.752  16.719  1.00  0.00     0.296 HD
ENDBRANCH  65  67
ENDBRANCH  49  65
ENDBRANCH  47  49
ENDBRANCH  43  45
ENDBRANCH   1  43
BRANCH   1  69
ATOM     69  C   UNL     1       2.216   0.780  12.319  1.00  0.00    -0.001 C 
ATOM     70  C   UNL     1       2.039  -0.071  13.345  1.00  0.00     0.001 C 
BRANCH  70  71
ATOM     71  C   UNL     1       1.562  -1.453  13.270  1.00  0.00    -0.055 C 
ATOM     72  C   UNL     1       0.429  -1.764  13.934  1.00  0.00    -0.018 C 
ATOM     73  C   UNL     1       2.366  -2.429  12.449  1.00  0.00     0.044 C 
BRANCH  72  74
ATOM     74  C   UNL     1      -0.294  -3.100  14.032  1.00  0.00     0.038 C 
ATOM     75  C   UNL     1      -1.762  -2.797  14.354  1.00  0.00     0.015 C 
BRANCH  74  76
ATOM     76  C   UNL     1       0.435  -3.988  15.083  1.00  0.00     0.128 C 
BRANCH  76  77
ATOM     77  O   UNL     1      -0.272  -3.948  16.334  1.00  0.00    -0.381 OA
ATOM     78  C   UNL     1       0.486  -3.393  17.401  1.00  0.00     0.195 C 
ENDBRANCH  76  77
BRANCH  76  79
ATOM     79  C   UNL     1       0.716  -5.433  14.599  1.00  0.00     0.068 C 
BRANCH  79  80
ATOM     80  C   UNL     1       2.077  -6.021  14.881  1.00  0.00    -0.045 A 
ATOM     81  C   UNL     1       2.297  -6.828  16.005  1.00  0.00     0.004 A 
ATOM     82  C   UNL     1       3.157  -5.742  14.030  1.00  0.00     0.004 A 
ATOM     83  C   UNL     1       3.563  -7.356  16.266  1.00  0.00     0.000 A 
ATOM     84  C   UNL     1       4.423  -6.270  14.292  1.00  0.00     0.000 A 
ATOM     85  C   UNL     1       4.626  -7.078  15.409  1.00  0.00     0.000 A 
ENDBRANCH  79  80
ENDBRANCH  76  79
ENDBRANCH  74  76
ENDBRANCH  72  74
ENDBRANCH  70  71
ENDBRANCH   1  69
TORSDOF 17
ENDMDL
MODEL 4
REMARK VINA RESULT:    -6.975      4.056      6.312
REMARK INTER + INTRA:         -26.990
REMARK INTER:                 -20.242
REMARK INTRA:                  -6.749
REMARK UNBOUND:                -6.151
REMARK SMILES C=C1C(=O)N[C@H](C)C(=O)N[C@@H](CC(C)C)C(=O)N[C@@H](C(=O)O)[C@H](C)C(=O)N[C@@H](CCCN=C(N)N)C(=O)N[C@@H](/C=C/C(C)=C/[C@H](C)[C@H](Cc2ccccc2)OC)[C@H](C)C(=O)N[C@@H](C(=O)O)CCC(=O)N1C
REMARK SMILES IDX 39 1 38 2 37 3 36 4 28 6 27 7 25 8 26 9 23 11 24 12 19 13
REMARK SMILES IDX 18 14 16 15 17 16 11 18 10 19 8 20 9 21 12 24 13 25 14 26
REMARK SMILES IDX 15 27 20 28 21 29 22 30 29 32 30 33 31 34 32 35 33 36 34 37
REMARK SMILES IDX 35 38 57 43 58 44 59 45 60 46 61 47 62 49 66 50 67 51 68 52
REMARK SMILES IDX 69 53 70 54 71 55 2 56 1 57 3 58 4 59 5 60 6 62 7 63 63 65
REMARK SMILES IDX 64 66 65 67 40 69 41 70 42 71 44 72 43 73 45 74 46 75 47 76
REMARK SMILES IDX 55 77 56 78 48 79 49 80 50 81 54 82 51 83 53 84 52 85
REMARK H PARENT 38 5 27 10 18 17 10 22 22 31 34 39 34 40 35 41 35 42 61 48
REMARK H PARENT 5 61 65 68
REMARK Flexibility Score:  369.900
ROOT
ATOM      1  C   UNL     1       5.303   3.117   9.868  1.00  0.00     0.117 C 
ENDROOT
BRANCH   1   2
ATOM      2  N   UNL     1       6.648   2.618  10.159  1.00  0.00    -0.347 N 
ATOM      3  O   UNL     1       6.663   0.871   8.670  1.00  0.00    -0.273 OA
ATOM      4  C   UNL     1       7.257   1.588   9.469  1.00  0.00     0.243 C 
ATOM      5  H   UNL     1       7.201   3.073  10.870  1.00  0.00     0.164 HD
BRANCH   4   6
ATOM      6  C   UNL     1       8.714   1.312   9.918  1.00  0.00     0.171 C 
BRANCH   6   7
ATOM      7  N   UNL     1       9.546   0.938   8.763  1.00  0.00    -0.344 N 
ATOM      8  C   UNL     1      10.332  -0.193   8.801  1.00  0.00     0.226 C 
ATOM      9  O   UNL     1      10.397  -0.920   9.785  1.00  0.00    -0.275 OA
ATOM     10  H   UNL     1       9.571   1.550   7.957  1.00  0.00     0.164 HD
BRANCH   8  11
ATOM     11  C   UNL     1      11.088  -0.472   7.514  1.00  0.00     0.109 C 
ATOM     12  C   UNL     1      12.593  -0.488   7.780  1.00  0.00     0.021 C 
BRANCH  11  13
ATOM     13  C   UNL     1      10.534  -1.748   6.850  1.00  0.00     0.204 C 
BRANCH  13  14
ATOM     14  N   UNL     1      10.650  -2.920   7.723  1.00  0.00    -0.340 N 
ATOM     15  C   UNL     1      10.650  -4.213   7.246  1.00  0.00     0.243 C 
ATOM     16  O   UNL     1      10.613  -4.473   6.045  1.00  0.00    -0.273 OA
ATOM     17  H   UNL     1      10.531  -2.782   8.731  1.00  0.00     0.164 HD
BRANCH  15  18
ATOM     18  C   UNL     1      10.572  -5.284   8.361  1.00  0.00     0.171 C 
BRANCH  18  19
ATOM     19  N   UNL     1      11.950  -5.624   8.711  1.00  0.00    -0.343 N 
ATOM     20  C   UNL     1      12.632  -6.644   8.076  1.00  0.00     0.242 CG0
ATOM     21  O   UNL     1      12.072  -7.398   7.284  1.00  0.00    -0.273 OA
ATOM     22  H   UNL     1      12.420  -5.105   9.443  1.00  0.00     0.164 HD
ATOM     23  G   UNL     1      14.099  -6.804   8.524  1.00  0.00     0.000 G0
ENDBRANCH  18  19
BRANCH  18  24
ATOM     24  C   UNL     1       9.800  -4.749   9.573  1.00  0.00     0.038 C 
BRANCH  24  25
ATOM     25  C   UNL     1       8.596  -5.613  10.004  1.00  0.00    -0.015 C 
ATOM     26  C   UNL     1       8.450  -5.699  11.523  1.00  0.00     0.007 C 
ATOM     27  C   UNL     1       8.738  -7.021   9.419  1.00  0.00     0.007 C 
ENDBRANCH  24  25
ENDBRANCH  18  24
ENDBRANCH  15  18
ENDBRANCH  13  14
BRANCH  13  28
ATOM     28  C   UNL     1       9.061  -1.627   6.446  1.00  0.00     0.327 C 
ATOM     29  O   UNL     1       8.137  -2.305   6.871  1.00  0.00    -0.250 OA
BRANCH  28  30
ATOM     30  O   UNL     1       8.857  -0.744   5.448  1.00  0.00    -0.480 OA
ATOM     31  H   UNL     1       8.194  -0.121   5.809  1.00  0.00     0.296 HD
ENDBRANCH  28  30
ENDBRANCH  13  28
ENDBRANCH  11  13
ENDBRANCH   8  11
ENDBRANCH   6   7
BRANCH   6  32
ATOM     32  C   UNL     1       9.271   2.560  10.613  1.00  0.00     0.037 C 
BRANCH  32  33
ATOM     33  C   UNL     1       9.573   2.311  12.097  1.00  0.00     0.026 C 
BRANCH  33  34
ATOM     34  C   UNL     1      10.317   3.479  12.747  1.00  0.00     0.146 C 
BRANCH  34  35
ATOM     35  N   UNL     1      10.055   3.463  14.179  1.00  0.00    -0.254 NA
ATOM     36  C   UNL     1       8.975   3.997  14.613  1.00  0.00     0.185 C 
ATOM     37  N   UNL     1       8.721   3.983  15.931  1.00  0.00    -0.370 N 
ATOM     38  N   UNL     1       7.995   4.603  13.919  1.00  0.00    -0.370 N 
ATOM     39  H   UNL     1       9.410   3.533  16.521  1.00  0.00     0.159 HD
ATOM     40  H   UNL     1       7.829   4.221  16.328  1.00  0.00     0.159 HD
ATOM     41  H   UNL     1       7.260   5.108  14.388  1.00  0.00     0.159 HD
ATOM     42  H   UNL     1       8.060   4.700  12.918  1.00  0.00     0.159 HD
ENDBRANCH  34  35
ENDBRANCH  33  34
ENDBRANCH  32  33
ENDBRANCH   6  32
ENDBRANCH   4   6
ENDBRANCH   1   2
BRANCH   1  43
ATOM     43  C   UNL     1       5.424   4.556   9.288  1.00  0.00     0.102 C 
ATOM     44  C   UNL     1       4.163   5.022   8.540  1.00  0.00     0.020 C 
BRANCH  43  45
ATOM     45  C   UNL     1       6.719   4.719   8.486  1.00  0.00     0.225 C 
ATOM     46  O   UNL     1       7.751   5.178   8.966  1.00  0.00    -0.275 OA
ATOM     47  N   UNL     1       6.631   4.403   7.150  1.00  0.00    -0.342 N 
ATOM     48  H   UNL     1       5.831   3.890   6.808  1.00  0.00     0.164 HD
BRANCH  47  49
ATOM     49  C   UNL     1       7.799   4.477   6.267  1.00  0.00     0.192 C 
BRANCH  49  50
ATOM     50  C   UNL     1       7.638   5.651   5.297  1.00  0.00     0.047 C 
BRANCH  50  51
ATOM     51  C   UNL     1       6.522   6.612   5.728  1.00  0.00     0.103 C 
BRANCH  51  52
ATOM     52  C   UNL     1       7.059   8.005   6.052  1.00  0.00     0.226 C 
ATOM     53  O   UNL     1       7.240   8.816   5.141  1.00  0.00    -0.275 OA
BRANCH  52  54
ATOM     54  N   UNL     1       7.245   8.304   7.414  1.00  0.00    -0.311 N 
ATOM     55  C   UNL     1       8.588   8.320   8.008  1.00  0.00     0.153 C 
BRANCH  54  56
ATOM     56  C   UNL     1       6.159   8.604   8.253  1.00  0.00     0.102 C 
ATOM     57  C   UNL     1       6.079   8.277   9.554  1.00  0.00     0.043 C 
BRANCH  56  58
ATOM     58  C   UNL     1       4.974   9.387   7.738  1.00  0.00     0.268 C 
ATOM     59  O   UNL     1       3.817   9.009   7.862  1.00  0.00    -0.268 OA
ATOM     60  N   UNL     1       5.325  10.592   7.179  1.00  0.00    -0.339 N 
ATOM     61  H   UNL     1       6.308  10.827   7.105  1.00  0.00     0.164 HD
BRANCH  60  62
ATOM     62  C   UNL     1       4.329  11.536   6.674  1.00  0.00     0.168 CG0
ATOM     63  C   UNL     1       4.515  12.914   7.298  1.00  0.00     0.041 C 
ATOM     64  G   UNL     1       2.913  10.995   6.957  1.00  0.00     0.000 G0
ENDBRANCH  60  62
ENDBRANCH  56  58
ENDBRANCH  54  56
ENDBRANCH  52  54
ENDBRANCH  51  52
ENDBRANCH  50  51
ENDBRANCH  49  50
BRANCH  49  65
ATOM     65  C   UNL     1       7.988   3.179   5.467  1.00  0.00     0.326 C 
ATOM     66  O   UNL     1       7.988   3.088   4.248  1.00  0.00    -0.250 OA
BRANCH  65  67
ATOM     67  O   UNL     1       8.105   2.064   6.222  1.00  0.00    -0.480 OA
ATOM     68  H   UNL     1       7.993   2.393   7.140  1.00  0.00     0.296 HD
ENDBRANCH  65  67
ENDBRANCH  49  65
ENDBRANCH  47  49
ENDBRANCH  43  45
ENDBRANCH   1  43
BRANCH   1  69
ATOM     69  C   UNL     1       4.489   2.901  11.130  1.00  0.00    -0.001 C 
ATOM     70  C   UNL     1       4.234   1.734  11.749  1.00  0.00     0.001 C 
BRANCH  70  71
ATOM     71  C   UNL     1       3.464   1.541  12.979  1.00  0.00    -0.055 C 
ATOM     72  C   UNL     1       3.769   0.475  13.749  1.00  0.00    -0.018 C 
ATOM     73  C   UNL     1       2.392   2.548  13.303  1.00  0.00     0.044 C 
BRANCH  72  74
ATOM     74  C   UNL     1       3.148   0.029  15.065  1.00  0.00     0.038 C 
ATOM     75  C   UNL     1       4.238   0.136  16.139  1.00  0.00     0.015 C 
BRANCH  74  76
ATOM     76  C   UNL     1       2.553  -1.398  14.880  1.00  0.00     0.128 C 
BRANCH  76  77
ATOM     77  O   UNL     1       1.117  -1.329  14.844  1.00  0.00    -0.381 OA
ATOM     78  C   UNL     1       0.569  -1.509  13.545  1.00  0.00     0.195 C 
ENDBRANCH  76  77
BRANCH  76  79
ATOM     79  C   UNL     1       3.146  -2.177  13.679  1.00  0.00     0.068 C 
BRANCH  79  80
ATOM     80  C   UNL     1       3.628  -3.587  13.920  1.00  0.00    -0.045 A 
ATOM     81  C   UNL     1       2.734  -4.665  13.920  1.00  0.00     0.004 A 
ATOM     82  C   UNL     1       4.985  -3.836  14.177  1.00  0.00     0.004 A 
ATOM     83  C   UNL     1       3.185  -5.965  14.157  1.00  0.00     0.000 A 
ATOM     84  C   UNL     1       5.435  -5.137  14.415  1.00  0.00     0.000 A 
ATOM     85  C   UNL     1       4.536  -6.201  14.403  1.00  0.00     0.000 A 
ENDBRANCH  79  80
ENDBRANCH  76  79
ENDBRANCH  74  76
ENDBRANCH  72  74
ENDBRANCH  70  71
ENDBRANCH   1  69
TORSDOF 17
ENDMDL
MODEL 5
REMARK VINA RESULT:    -6.814      4.574     11.324
REMARK INTER + INTRA:         -26.510
REMARK INTER:                 -19.598
REMARK INTRA:                  -6.911
REMARK UNBOUND:                -6.151
REMARK SMILES C=C1C(=O)N[C@H](C)C(=O)N[C@@H](CC(C)C)C(=O)N[C@@H](C(=O)O)[C@H](C)C(=O)N[C@@H](CCCN=C(N)N)C(=O)N[C@@H](/C=C/C(C)=C/[C@H](C)[C@H](Cc2ccccc2)OC)[C@H](C)C(=O)N[C@@H](C(=O)O)CCC(=O)N1C
REMARK SMILES IDX 39 1 38 2 37 3 36 4 28 6 27 7 25 8 26 9 23 11 24 12 19 13
REMARK SMILES IDX 18 14 16 15 17 16 11 18 10 19 8 20 9 21 12 24 13 25 14 26
REMARK SMILES IDX 15 27 20 28 21 29 22 30 29 32 30 33 31 34 32 35 33 36 34 37
REMARK SMILES IDX 35 38 57 43 58 44 59 45 60 46 61 47 62 49 66 50 67 51 68 52
REMARK SMILES IDX 69 53 70 54 71 55 2 56 1 57 3 58 4 59 5 60 6 62 7 63 63 65
REMARK SMILES IDX 64 66 65 67 40 69 41 70 42 71 44 72 43 73 45 74 46 75 47 76
REMARK SMILES IDX 55 77 56 78 48 79 49 80 50 81 54 82 51 83 53 84 52 85
REMARK H PARENT 38 5 27 10 18 17 10 22 22 31 34 39 34 40 35 41 35 42 61 48
REMARK H PARENT 5 61 65 68
REMARK Flexibility Score:  369.900
ROOT
ATOM      1  C   UNL     1      10.703  -0.434  12.129  1.00  0.00     0.117 C 
ENDROOT
BRANCH   1   2
ATOM      2  N   UNL     1      10.050   0.765  11.600  1.00  0.00    -0.347 N 
ATOM      3  O   UNL     1      11.330   2.326  12.692  1.00  0.00    -0.273 OA
ATOM      4  C   UNL     1      10.477   2.054  11.854  1.00  0.00     0.243 C 
ATOM      5  H   UNL     1       9.269   0.665  10.970  1.00  0.00     0.164 HD
BRANCH   4   6
ATOM      6  C   UNL     1       9.664   3.139  11.103  1.00  0.00     0.171 C 
BRANCH   6   7
ATOM      7  N   UNL     1       9.300   2.669   9.757  1.00  0.00    -0.344 N 
ATOM      8  C   UNL     1       9.516   3.465   8.653  1.00  0.00     0.226 C 
ATOM      9  O   UNL     1       9.992   4.591   8.733  1.00  0.00    -0.275 OA
ATOM     10  H   UNL     1       8.842   1.772   9.657  1.00  0.00     0.164 HD
BRANCH   8  11
ATOM     11  C   UNL     1       9.139   2.817   7.332  1.00  0.00     0.109 C 
ATOM     12  C   UNL     1       9.290   1.299   7.428  1.00  0.00     0.021 C 
BRANCH  11  13
ATOM     13  C   UNL     1       7.743   3.303   6.893  1.00  0.00     0.204 C 
BRANCH  13  14
ATOM     14  N   UNL     1       7.451   4.655   7.380  1.00  0.00    -0.340 N 
ATOM     15  C   UNL     1       6.251   4.997   7.965  1.00  0.00     0.243 C 
ATOM     16  O   UNL     1       5.361   4.175   8.176  1.00  0.00    -0.273 OA
ATOM     17  H   UNL     1       8.081   5.412   7.101  1.00  0.00     0.164 HD
BRANCH  15  18
ATOM     18  C   UNL     1       6.093   6.518   8.208  1.00  0.00     0.171 C 
BRANCH  18  19
ATOM     19  N   UNL     1       6.680   7.190   7.051  1.00  0.00    -0.343 N 
ATOM     20  C   UNL     1       7.637   8.177   7.191  1.00  0.00     0.242 CG0
ATOM     21  O   UNL     1       7.941   8.628   8.292  1.00  0.00    -0.273 OA
ATOM     22  H   UNL     1       6.377   6.933   6.119  1.00  0.00     0.164 HD
ATOM     23  G   UNL     1       8.197   8.714   5.857  1.00  0.00     0.000 G0
ENDBRANCH  18  19
BRANCH  18  24
ATOM     24  C   UNL     1       4.614   6.887   8.382  1.00  0.00     0.038 C 
BRANCH  24  25
ATOM     25  C   UNL     1       4.350   8.040   9.373  1.00  0.00    -0.015 C 
ATOM     26  C   UNL     1       4.413   9.413   8.704  1.00  0.00     0.007 C 
ATOM     27  C   UNL     1       5.365   7.978  10.518  1.00  0.00     0.007 C 
ENDBRANCH  24  25
ENDBRANCH  18  24
ENDBRANCH  15  18
ENDBRANCH  13  14
BRANCH  13  28
ATOM     28  C   UNL     1       7.560   3.319   5.373  1.00  0.00     0.327 C 
ATOM     29  O   UNL     1       8.006   4.153   4.599  1.00  0.00    -0.250 OA
BRANCH  28  30
ATOM     30  O   UNL     1       6.728   2.354   4.930  1.00  0.00    -0.480 OA
ATOM     31  H   UNL     1       7.091   2.106   4.054  1.00  0.00     0.296 HD
ENDBRANCH  28  30
ENDBRANCH  13  28
ENDBRANCH  11  13
ENDBRANCH   8  11
ENDBRANCH   6   7
BRANCH   6  32
ATOM     32  C   UNL     1       8.414   3.485  11.919  1.00  0.00     0.037 C 
BRANCH  32  33
ATOM     33  C   UNL     1       7.119   3.193  11.147  1.00  0.00     0.026 C 
BRANCH  33  34
ATOM     34  C   UNL     1       6.008   2.657  12.050  1.00  0.00     0.146 C 
BRANCH  34  35
ATOM     35  N   UNL     1       4.726   3.136  11.552  1.00  0.00    -0.254 NA
ATOM     36  C   UNL     1       3.928   2.297  11.002  1.00  0.00     0.185 C 
ATOM     37  N   UNL     1       2.742   2.726  10.543  1.00  0.00    -0.370 N 
ATOM     38  N   UNL     1       4.098   0.979  10.799  1.00  0.00    -0.370 N 
ATOM     39  H   UNL     1       2.536   3.709  10.669  1.00  0.00     0.159 HD
ATOM     40  H   UNL     1       1.999   2.110  10.262  1.00  0.00     0.159 HD
ATOM     41  H   UNL     1       3.456   0.452  10.229  1.00  0.00     0.159 HD
ATOM     42  H   UNL     1       4.952   0.522  11.079  1.00  0.00     0.159 HD
ENDBRANCH  34  35
ENDBRANCH  33  34
ENDBRANCH  32  33
ENDBRANCH   6  32
ENDBRANCH   4   6
ENDBRANCH   1   2
BRANCH   1  43
ATOM     43  C   UNL     1      11.266  -1.258  10.935  1.00  0.00     0.102 C 
ATOM     44  C   UNL     1      12.383  -0.535  10.164  1.00  0.00     0.020 C 
BRANCH  43  45
ATOM     45  C   UNL     1      10.134  -1.780  10.045  1.00  0.00     0.225 C 
ATOM     46  O   UNL     1       9.139  -1.118   9.768  1.00  0.00    -0.275 OA
ATOM     47  N   UNL     1      10.254  -3.091   9.642  1.00  0.00    -0.342 N 
ATOM     48  H   UNL     1      11.139  -3.568   9.748  1.00  0.00     0.164 HD
BRANCH  47  49
ATOM     49  C   UNL     1       9.265  -3.714   8.758  1.00  0.00     0.192 C 
BRANCH  49  50
ATOM     50  C   UNL     1       9.409  -5.237   8.816  1.00  0.00     0.047 C 
BRANCH  50  51
ATOM     51  C   UNL     1      10.310  -5.692   9.973  1.00  0.00     0.103 C 
BRANCH  51  52
ATOM     52  C   UNL     1      10.458  -7.211  10.020  1.00  0.00     0.226 C 
ATOM     53  O   UNL     1      10.975  -7.804   9.071  1.00  0.00    -0.275 OA
BRANCH  52  54
ATOM     54  N   UNL     1      10.051  -7.844  11.210  1.00  0.00    -0.311 N 
ATOM     55  C   UNL     1      10.866  -7.759  12.429  1.00  0.00     0.153 C 
BRANCH  54  56
ATOM     56  C   UNL     1       8.852  -8.572  11.278  1.00  0.00     0.102 C 
ATOM     57  C   UNL     1       7.624  -8.029  11.318  1.00  0.00     0.043 C 
BRANCH  56  58
ATOM     58  C   UNL     1       8.861 -10.083  11.266  1.00  0.00     0.268 C 
ATOM     59  O   UNL     1       9.845 -10.744  10.965  1.00  0.00    -0.268 OA
ATOM     60  N   UNL     1       7.676 -10.634  11.691  1.00  0.00    -0.339 N 
ATOM     61  H   UNL     1       6.904 -10.017  11.913  1.00  0.00     0.164 HD
BRANCH  60  62
ATOM     62  C   UNL     1       7.489 -12.079  11.816  1.00  0.00     0.168 CG0
ATOM     63  C   UNL     1       6.899 -12.666  10.540  1.00  0.00     0.041 C 
ATOM     64  G   UNL     1       6.581 -12.379  13.027  1.00  0.00     0.000 G0
ENDBRANCH  60  62
ENDBRANCH  56  58
ENDBRANCH  54  56
ENDBRANCH  52  54
ENDBRANCH  51  52
ENDBRANCH  50  51
ENDBRANCH  49  50
BRANCH  49  65
ATOM     65  C   UNL     1       9.427  -3.242   7.304  1.00  0.00     0.326 C 
ATOM     66  O   UNL     1      10.272  -3.644   6.517  1.00  0.00    -0.250 OA
BRANCH  65  67
ATOM     67  O   UNL     1       8.576  -2.262   6.931  1.00  0.00    -0.480 OA
ATOM     68  H   UNL     1       8.170  -1.973   7.777  1.00  0.00     0.296 HD
ENDBRANCH  65  67
ENDBRANCH  49  65
ENDBRANCH  47  49
ENDBRANCH  43  45
ENDBRANCH   1  43
BRANCH   1  69
ATOM     69  C   UNL     1       9.700  -1.086  13.063  1.00  0.00    -0.001 C 
ATOM     70  C   UNL     1       8.536  -0.573  13.498  1.00  0.00     0.001 C 
BRANCH  70  71
ATOM     71  C   UNL     1       7.566  -1.220  14.383  1.00  0.00    -0.055 C 
ATOM     72  C   UNL     1       6.273  -1.232  13.995  1.00  0.00    -0.018 C 
ATOM     73  C   UNL     1       8.079  -1.835  15.659  1.00  0.00     0.044 C 
BRANCH  72  74
ATOM     74  C   UNL     1       5.062  -1.827  14.699  1.00  0.00     0.038 C 
ATOM     75  C   UNL     1       5.058  -3.331  14.401  1.00  0.00     0.015 C 
BRANCH  74  76
ATOM     76  C   UNL     1       3.786  -1.066  14.231  1.00  0.00     0.128 C 
BRANCH  76  77
ATOM     77  O   UNL     1       4.136   0.264  13.809  1.00  0.00    -0.381 OA
ATOM     78  C   UNL     1       3.538   1.287  14.593  1.00  0.00     0.195 C 
ENDBRANCH  76  77
BRANCH  76  79
ATOM     79  C   UNL     1       2.949  -1.830  13.174  1.00  0.00     0.068 C 
BRANCH  79  80
ATOM     80  C   UNL     1       1.577  -2.315  13.576  1.00  0.00    -0.045 A 
ATOM     81  C   UNL     1       1.261  -3.680  13.559  1.00  0.00     0.004 A 
ATOM     82  C   UNL     1       0.583  -1.398  13.947  1.00  0.00     0.004 A 
ATOM     83  C   UNL     1      -0.014  -4.120  13.918  1.00  0.00     0.000 A 
ATOM     84  C   UNL     1      -0.693  -1.839  14.305  1.00  0.00     0.000 A 
ATOM     85  C   UNL     1      -0.991  -3.200  14.292  1.00  0.00     0.000 A 
ENDBRANCH  79  80
ENDBRANCH  76  79
ENDBRANCH  74  76
ENDBRANCH  72  74
ENDBRANCH  70  71
ENDBRANCH   1  69
TORSDOF 17
ENDMDL
MODEL 6
REMARK VINA RESULT:    -6.791      4.448      9.982
REMARK INTER + INTRA:         -26.440
REMARK INTER:                 -19.420
REMARK INTRA:                  -7.020
REMARK UNBOUND:                -6.151
REMARK SMILES C=C1C(=O)N[C@H](C)C(=O)N[C@@H](CC(C)C)C(=O)N[C@@H](C(=O)O)[C@H](C)C(=O)N[C@@H](CCCN=C(N)N)C(=O)N[C@@H](/C=C/C(C)=C/[C@H](C)[C@H](Cc2ccccc2)OC)[C@H](C)C(=O)N[C@@H](C(=O)O)CCC(=O)N1C
REMARK SMILES IDX 39 1 38 2 37 3 36 4 28 6 27 7 25 8 26 9 23 11 24 12 19 13
REMARK SMILES IDX 18 14 16 15 17 16 11 18 10 19 8 20 9 21 12 24 13 25 14 26
REMARK SMILES IDX 15 27 20 28 21 29 22 30 29 32 30 33 31 34 32 35 33 36 34 37
REMARK SMILES IDX 35 38 57 43 58 44 59 45 60 46 61 47 62 49 66 50 67 51 68 52
REMARK SMILES IDX 69 53 70 54 71 55 2 56 1 57 3 58 4 59 5 60 6 62 7 63 63 65
REMARK SMILES IDX 64 66 65 67 40 69 41 70 42 71 44 72 43 73 45 74 46 75 47 76
REMARK SMILES IDX 55 77 56 78 48 79 49 80 50 81 54 82 51 83 53 84 52 85
REMARK H PARENT 38 5 27 10 18 17 10 22 22 31 34 39 34 40 35 41 35 42 61 48
REMARK H PARENT 5 61 65 68
REMARK Flexibility Score:  369.900
ROOT
ATOM      1  C   UNL     1       9.630   0.861  11.994  1.00  0.00     0.117 C 
ENDROOT
BRANCH   1   2
ATOM      2  N   UNL     1       8.357   0.366  12.521  1.00  0.00    -0.347 N 
ATOM      3  O   UNL     1       9.017   0.064  14.699  1.00  0.00    -0.273 OA
ATOM      4  C   UNL     1       8.127   0.093  13.856  1.00  0.00     0.243 C 
ATOM      5  H   UNL     1       7.572   0.258  11.897  1.00  0.00     0.164 HD
BRANCH   4   6
ATOM      6  C   UNL     1       6.669  -0.335  14.162  1.00  0.00     0.171 C 
BRANCH   6   7
ATOM      7  N   UNL     1       6.592  -1.790  14.362  1.00  0.00    -0.344 N 
ATOM      8  C   UNL     1       5.428  -2.476  14.091  1.00  0.00     0.226 C 
ATOM      9  O   UNL     1       4.409  -1.919  13.700  1.00  0.00    -0.275 OA
ATOM     10  H   UNL     1       7.392  -2.276  14.749  1.00  0.00     0.164 HD
BRANCH   8  11
ATOM     11  C   UNL     1       5.524  -3.978  14.296  1.00  0.00     0.109 C 
ATOM     12  C   UNL     1       6.988  -4.398  14.424  1.00  0.00     0.021 C 
BRANCH  11  13
ATOM     13  C   UNL     1       4.622  -4.403  15.472  1.00  0.00     0.204 C 
BRANCH  13  14
ATOM     14  N   UNL     1       3.202  -4.178  15.187  1.00  0.00    -0.340 N 
ATOM     15  C   UNL     1       2.293  -3.811  16.156  1.00  0.00     0.243 C 
ATOM     16  O   UNL     1       2.622  -3.587  17.320  1.00  0.00    -0.273 OA
ATOM     17  H   UNL     1       2.837  -4.492  14.284  1.00  0.00     0.164 HD
BRANCH  15  18
ATOM     18  C   UNL     1       0.824  -3.835  15.667  1.00  0.00     0.171 C 
BRANCH  18  19
ATOM     19  N   UNL     1       0.182  -4.970  16.327  1.00  0.00    -0.343 N 
ATOM     20  C   UNL     1       0.488  -6.276  15.995  1.00  0.00     0.242 CG0
ATOM     21  O   UNL     1       1.214  -6.543  15.040  1.00  0.00    -0.273 OA
ATOM     22  H   UNL     1      -0.513  -4.800  17.046  1.00  0.00     0.164 HD
ATOM     23  G   UNL     1      -0.231  -7.337  16.852  1.00  0.00     0.000 G0
ENDBRANCH  18  19
BRANCH  18  24
ATOM     24  C   UNL     1       0.119  -2.516  16.006  1.00  0.00     0.038 C 
BRANCH  24  25
ATOM     25  C   UNL     1      -0.526  -1.802  14.799  1.00  0.00    -0.015 C 
ATOM     26  C   UNL     1      -1.777  -2.520  14.294  1.00  0.00     0.007 C 
ATOM     27  C   UNL     1       0.495  -1.686  13.664  1.00  0.00     0.007 C 
ENDBRANCH  24  25
ENDBRANCH  18  24
ENDBRANCH  15  18
ENDBRANCH  13  14
BRANCH  13  28
ATOM     28  C   UNL     1       4.781  -5.878  15.852  1.00  0.00     0.327 C 
ATOM     29  O   UNL     1       5.371  -6.313  16.829  1.00  0.00    -0.250 OA
BRANCH  28  30
ATOM     30  O   UNL     1       4.291  -6.720  14.919  1.00  0.00    -0.480 OA
ATOM     31  H   UNL     1       4.465  -7.612  15.285  1.00  0.00     0.296 HD
ENDBRANCH  28  30
ENDBRANCH  13  28
ENDBRANCH  11  13
ENDBRANCH   8  11
ENDBRANCH   6   7
BRANCH   6  32
ATOM     32  C   UNL     1       6.175   0.416  15.403  1.00  0.00     0.037 C 
BRANCH  32  33
ATOM     33  C   UNL     1       5.735   1.850  15.076  1.00  0.00     0.026 C 
BRANCH  33  34
ATOM     34  C   UNL     1       4.255   2.091  15.379  1.00  0.00     0.146 C 
BRANCH  34  35
ATOM     35  N   UNL     1       3.457   1.536  14.294  1.00  0.00    -0.254 NA
ATOM     36  C   UNL     1       2.724   2.328  13.604  1.00  0.00     0.185 C 
ATOM     37  N   UNL     1       1.988   1.828  12.599  1.00  0.00    -0.370 N 
ATOM     38  N   UNL     1       2.564   3.657  13.731  1.00  0.00    -0.370 N 
ATOM     39  H   UNL     1       2.063   0.833  12.433  1.00  0.00     0.159 HD
ATOM     40  H   UNL     1       1.529   2.398  11.909  1.00  0.00     0.159 HD
ATOM     41  H   UNL     1       1.851   4.147  13.216  1.00  0.00     0.159 HD
ATOM     42  H   UNL     1       3.045   4.165  14.457  1.00  0.00     0.159 HD
ENDBRANCH  34  35
ENDBRANCH  33  34
ENDBRANCH  32  33
ENDBRANCH   6  32
ENDBRANCH   4   6
ENDBRANCH   1   2
BRANCH   1  43
ATOM     43  C   UNL     1       9.445   2.346  11.567  1.00  0.00     0.102 C 
ATOM     44  C   UNL     1       9.546   3.337  12.739  1.00  0.00     0.020 C 
BRANCH  43  45
ATOM     45  C   UNL     1       8.186   2.520  10.712  1.00  0.00     0.225 C 
ATOM     46  O   UNL     1       7.861   1.732   9.829  1.00  0.00    -0.275 OA
ATOM     47  N   UNL     1       7.476   3.679  10.932  1.00  0.00    -0.342 N 
ATOM     48  H   UNL     1       7.667   4.233  11.755  1.00  0.00     0.164 HD
BRANCH  47  49
ATOM     49  C   UNL     1       6.231   3.962  10.213  1.00  0.00     0.192 C 
BRANCH  49  50
ATOM     50  C   UNL     1       6.359   5.294   9.469  1.00  0.00     0.047 C 
BRANCH  50  51
ATOM     51  C   UNL     1       5.715   5.247   8.076  1.00  0.00     0.103 C 
BRANCH  51  52
ATOM     52  C   UNL     1       4.577   6.256   7.937  1.00  0.00     0.226 C 
ATOM     53  O   UNL     1       3.489   6.027   8.469  1.00  0.00    -0.275 OA
BRANCH  52  54
ATOM     54  N   UNL     1       4.877   7.449   7.253  1.00  0.00    -0.311 N 
ATOM     55  C   UNL     1       4.595   7.589   5.818  1.00  0.00     0.153 C 
BRANCH  54  56
ATOM     56  C   UNL     1       5.450   8.548   7.914  1.00  0.00     0.102 C 
ATOM     57  C   UNL     1       5.207   8.889   9.190  1.00  0.00     0.043 C 
BRANCH  56  58
ATOM     58  C   UNL     1       6.457   9.433   7.218  1.00  0.00     0.268 C 
ATOM     59  O   UNL     1       7.612   9.092   7.002  1.00  0.00    -0.268 OA
ATOM     60  N   UNL     1       5.925  10.627   6.795  1.00  0.00    -0.339 N 
ATOM     61  H   UNL     1       4.961  10.839   7.022  1.00  0.00     0.164 HD
BRANCH  60  62
ATOM     62  C   UNL     1       6.709  11.607   6.044  1.00  0.00     0.168 CG0
ATOM     63  C   UNL     1       6.590  11.368   4.544  1.00  0.00     0.041 C 
ATOM     64  G   UNL     1       8.184  11.541   6.492  1.00  0.00     0.000 G0
ENDBRANCH  60  62
ENDBRANCH  56  58
ENDBRANCH  54  56
ENDBRANCH  52  54
ENDBRANCH  51  52
ENDBRANCH  50  51
ENDBRANCH  49  50
BRANCH  49  65
ATOM     65  C   UNL     1       5.028   4.026  11.166  1.00  0.00     0.326 C 
ATOM     66  O   UNL     1       3.866   3.798  10.861  1.00  0.00    -0.250 OA
BRANCH  65  67
ATOM     67  O   UNL     1       5.324   4.424  12.423  1.00  0.00    -0.480 OA
ATOM     68  H   UNL     1       5.951   5.167  12.288  1.00  0.00     0.296 HD
ENDBRANCH  65  67
ENDBRANCH  49  65
ENDBRANCH  47  49
ENDBRANCH  43  45
ENDBRANCH   1  43
BRANCH   1  69
ATOM     69  C   UNL     1      10.080  -0.150  10.955  1.00  0.00    -0.001 C 
ATOM     70  C   UNL     1      10.864   0.071   9.885  1.00  0.00     0.001 C 
BRANCH  70  71
ATOM     71  C   UNL     1      11.310  -0.917   8.902  1.00  0.00    -0.055 C 
ATOM     72  C   UNL     1      10.431  -1.872   8.529  1.00  0.00    -0.018 C 
ATOM     73  C   UNL     1      12.714  -0.795   8.369  1.00  0.00     0.044 C 
BRANCH  72  74
ATOM     74  C   UNL     1      10.611  -3.012   7.537  1.00  0.00     0.038 C 
ATOM     75  C   UNL     1       9.561  -2.824   6.435  1.00  0.00     0.015 C 
BRANCH  74  76
ATOM     76  C   UNL     1      10.517  -4.364   8.305  1.00  0.00     0.128 C 
BRANCH  76  77
ATOM     77  O   UNL     1      11.667  -5.175   8.014  1.00  0.00    -0.381 OA
ATOM     78  C   UNL     1      11.386  -6.278   7.161  1.00  0.00     0.195 C 
ENDBRANCH  76  77
BRANCH  76  79
ATOM     79  C   UNL     1      10.263  -4.207   9.826  1.00  0.00     0.068 C 
BRANCH  79  80
ATOM     80  C   UNL     1       9.460  -5.278  10.523  1.00  0.00    -0.045 A 
ATOM     81  C   UNL     1       9.804  -5.717  11.808  1.00  0.00     0.004 A 
ATOM     82  C   UNL     1       8.367  -5.875   9.877  1.00  0.00     0.004 A 
ATOM     83  C   UNL     1       9.065  -6.718  12.441  1.00  0.00     0.000 A 
ATOM     84  C   UNL     1       7.628  -6.877  10.510  1.00  0.00     0.000 A 
ATOM     85  C   UNL     1       7.976  -7.297  11.792  1.00  0.00     0.000 A 
ENDBRANCH  79  80
ENDBRANCH  76  79
ENDBRANCH  74  76
ENDBRANCH  72  74
ENDBRANCH  70  71
ENDBRANCH   1  69
TORSDOF 17
ENDMDL
MODEL 7
REMARK VINA RESULT:    -6.747      4.710      8.461
REMARK INTER + INTRA:         -26.307
REMARK INTER:                 -19.661
REMARK INTRA:                  -6.646
REMARK UNBOUND:                -6.151
REMARK SMILES C=C1C(=O)N[C@H](C)C(=O)N[C@@H](CC(C)C)C(=O)N[C@@H](C(=O)O)[C@H](C)C(=O)N[C@@H](CCCN=C(N)N)C(=O)N[C@@H](/C=C/C(C)=C/[C@H](C)[C@H](Cc2ccccc2)OC)[C@H](C)C(=O)N[C@@H](C(=O)O)CCC(=O)N1C
REMARK SMILES IDX 39 1 38 2 37 3 36 4 28 6 27 7 25 8 26 9 23 11 24 12 19 13
REMARK SMILES IDX 18 14 16 15 17 16 11 18 10 19 8 20 9 21 12 24 13 25 14 26
REMARK SMILES IDX 15 27 20 28 21 29 22 30 29 32 30 33 31 34 32 35 33 36 34 37
REMARK SMILES IDX 35 38 57 43 58 44 59 45 60 46 61 47 62 49 66 50 67 51 68 52
REMARK SMILES IDX 69 53 70 54 71 55 2 56 1 57 3 58 4 59 5 60 6 62 7 63 63 65
REMARK SMILES IDX 64 66 65 67 40 69 41 70 42 71 44 72 43 73 45 74 46 75 47 76
REMARK SMILES IDX 55 77 56 78 48 79 49 80 50 81 54 82 51 83 53 84 52 85
REMARK H PARENT 38 5 27 10 18 17 10 22 22 31 34 39 34 40 35 41 35 42 61 48
REMARK H PARENT 5 61 65 68
REMARK Flexibility Score:  369.900
ROOT
ATOM      1  C   UNL     1       2.570   2.152  12.530  1.00  0.00     0.117 C 
ENDROOT
BRANCH   1   2
ATOM      2  N   UNL     1       3.834   2.184  11.794  1.00  0.00    -0.347 N 
ATOM      3  O   UNL     1       3.031   3.067   9.833  1.00  0.00    -0.273 OA
ATOM      4  C   UNL     1       3.980   2.726  10.532  1.00  0.00     0.243 C 
ATOM      5  H   UNL     1       4.672   1.839  12.236  1.00  0.00     0.164 HD
BRANCH   4   6
ATOM      6  C   UNL     1       5.440   2.712  10.013  1.00  0.00     0.171 C 
BRANCH   6   7
ATOM      7  N   UNL     1       5.565   3.544   8.805  1.00  0.00    -0.344 N 
ATOM      8  C   UNL     1       6.426   3.186   7.791  1.00  0.00     0.226 C 
ATOM      9  O   UNL     1       7.136   2.189   7.849  1.00  0.00    -0.275 OA
ATOM     10  H   UNL     1       5.045   4.411   8.751  1.00  0.00     0.164 HD
BRANCH   8  11
ATOM     11  C   UNL     1       6.401   4.116   6.591  1.00  0.00     0.109 C 
ATOM     12  C   UNL     1       5.449   5.284   6.851  1.00  0.00     0.021 C 
BRANCH  11  13
ATOM     13  C   UNL     1       7.839   4.524   6.216  1.00  0.00     0.204 C 
BRANCH  13  14
ATOM     14  N   UNL     1       7.873   5.739   5.397  1.00  0.00    -0.340 N 
ATOM     15  C   UNL     1       8.167   5.726   4.050  1.00  0.00     0.243 C 
ATOM     16  O   UNL     1       8.363   4.685   3.427  1.00  0.00    -0.273 OA
ATOM     17  H   UNL     1       7.870   6.643   5.877  1.00  0.00     0.164 HD
BRANCH  15  18
ATOM     18  C   UNL     1       8.348   7.139   3.443  1.00  0.00     0.171 C 
BRANCH  18  19
ATOM     19  N   UNL     1       9.472   7.054   2.512  1.00  0.00    -0.343 N 
ATOM     20  C   UNL     1      10.424   8.051   2.426  1.00  0.00     0.242 CG0
ATOM     21  O   UNL     1      10.299   9.114   3.029  1.00  0.00    -0.273 OA
ATOM     22  H   UNL     1       9.556   6.245   1.907  1.00  0.00     0.164 HD
ATOM     23  G   UNL     1      11.576   7.748   1.445  1.00  0.00     0.000 G0
ENDBRANCH  18  19
BRANCH  18  24
ATOM     24  C   UNL     1       7.065   7.593   2.736  1.00  0.00     0.038 C 
BRANCH  24  25
ATOM     25  C   UNL     1       6.149   8.501   3.583  1.00  0.00    -0.015 C 
ATOM     26  C   UNL     1       6.880   9.122   4.774  1.00  0.00     0.007 C 
ATOM     27  C   UNL     1       4.945   7.697   4.080  1.00  0.00     0.007 C 
ENDBRANCH  24  25
ENDBRANCH  18  24
ENDBRANCH  15  18
ENDBRANCH  13  14
BRANCH  13  28
ATOM     28  C   UNL     1       8.733   4.774   7.435  1.00  0.00     0.327 C 
ATOM     29  O   UNL     1       8.690   5.744   8.176  1.00  0.00    -0.250 OA
BRANCH  28  30
ATOM     30  O   UNL     1       9.704   3.848   7.577  1.00  0.00    -0.480 OA
ATOM     31  H   UNL     1       9.831   3.492   6.674  1.00  0.00     0.296 HD
ENDBRANCH  28  30
ENDBRANCH  13  28
ENDBRANCH  11  13
ENDBRANCH   8  11
ENDBRANCH   6   7
BRANCH   6  32
ATOM     32  C   UNL     1       6.373   3.212  11.121  1.00  0.00     0.037 C 
BRANCH  32  33
ATOM     33  C   UNL     1       6.670   4.713  10.995  1.00  0.00     0.026 C 
BRANCH  33  34
ATOM     34  C   UNL     1       5.573   5.581  11.613  1.00  0.00     0.146 C 
BRANCH  34  35
ATOM     35  N   UNL     1       5.508   6.843  10.889  1.00  0.00    -0.254 NA
ATOM     36  C   UNL     1       4.526   7.044  10.091  1.00  0.00     0.185 C 
ATOM     37  N   UNL     1       4.454   8.206   9.423  1.00  0.00    -0.370 N 
ATOM     38  N   UNL     1       3.494   6.232   9.800  1.00  0.00    -0.370 N 
ATOM     39  H   UNL     1       5.191   8.877   9.598  1.00  0.00     0.159 HD
ATOM     40  H   UNL     1       3.637   8.508   8.921  1.00  0.00     0.159 HD
ATOM     41  H   UNL     1       2.858   6.447   9.050  1.00  0.00     0.159 HD
ATOM     42  H   UNL     1       3.428   5.317  10.218  1.00  0.00     0.159 HD
ENDBRANCH  34  35
ENDBRANCH  33  34
ENDBRANCH  32  33
ENDBRANCH   6  32
ENDBRANCH   4   6
ENDBRANCH   1   2
BRANCH   1  43
ATOM     43  C   UNL     1       2.780   2.847  13.906  1.00  0.00     0.102 C 
ATOM     44  C   UNL     1       2.421   4.343  13.897  1.00  0.00     0.020 C 
BRANCH  43  45
ATOM     45  C   UNL     1       4.173   2.546  14.467  1.00  0.00     0.225 C 
ATOM     46  O   UNL     1       5.192   3.103  14.067  1.00  0.00    -0.275 OA
ATOM     47  N   UNL     1       4.231   1.533  15.397  1.00  0.00    -0.342 N 
ATOM     48  H   UNL     1       3.380   1.195  15.822  1.00  0.00     0.164 HD
BRANCH  47  49
ATOM     49  C   UNL     1       5.492   1.160  16.045  1.00  0.00     0.192 C 
BRANCH  49  50
ATOM     50  C   UNL     1       5.528  -0.354  16.266  1.00  0.00     0.047 C 
BRANCH  50  51
ATOM     51  C   UNL     1       5.299  -1.138  14.966  1.00  0.00     0.103 C 
BRANCH  51  52
ATOM     52  C   UNL     1       6.613  -1.530  14.294  1.00  0.00     0.226 C 
ATOM     53  O   UNL     1       7.256  -0.684  13.671  1.00  0.00    -0.275 OA
BRANCH  52  54
ATOM     54  N   UNL     1       7.052  -2.852  14.500  1.00  0.00    -0.311 N 
ATOM     55  C   UNL     1       8.453  -3.228  14.266  1.00  0.00     0.153 C 
BRANCH  54  56
ATOM     56  C   UNL     1       6.173  -3.855  14.939  1.00  0.00     0.102 C 
ATOM     57  C   UNL     1       5.343  -4.552  14.145  1.00  0.00     0.043 C 
BRANCH  56  58
ATOM     58  C   UNL     1       6.132  -4.268  16.392  1.00  0.00     0.268 C 
ATOM     59  O   UNL     1       7.071  -4.808  16.961  1.00  0.00    -0.268 OA
ATOM     60  N   UNL     1       4.961  -3.916  17.020  1.00  0.00    -0.339 N 
ATOM     61  H   UNL     1       4.227  -3.481  16.475  1.00  0.00     0.164 HD
BRANCH  60  62
ATOM     62  C   UNL     1       4.736  -4.165  18.444  1.00  0.00     0.168 CG0
ATOM     63  C   UNL     1       4.075  -2.965  19.111  1.00  0.00     0.041 C 
ATOM     64  G   UNL     1       6.077  -4.500  19.128  1.00  0.00     0.000 G0
ENDBRANCH  60  62
ENDBRANCH  56  58
ENDBRANCH  54  56
ENDBRANCH  52  54
ENDBRANCH  51  52
ENDBRANCH  50  51
ENDBRANCH  49  50
BRANCH  49  65
ATOM     65  C   UNL     1       5.669   1.875  17.394  1.00  0.00     0.326 C 
ATOM     66  O   UNL     1       5.009   2.828  17.785  1.00  0.00    -0.250 OA
BRANCH  65  67
ATOM     67  O   UNL     1       6.687   1.410  18.150  1.00  0.00    -0.480 OA
ATOM     68  H   UNL     1       7.372   1.165  17.491  1.00  0.00     0.296 HD
ENDBRANCH  65  67
ENDBRANCH  49  65
ENDBRANCH  47  49
ENDBRANCH  43  45
ENDBRANCH   1  43
BRANCH   1  69
ATOM     69  C   UNL     1       2.099   0.709  12.502  1.00  0.00    -0.001 C 
ATOM     70  C   UNL     1       1.988  -0.134  13.543  1.00  0.00     0.001 C 
BRANCH  70  71
ATOM     71  C   UNL     1       1.513  -1.519  13.507  1.00  0.00    -0.055 C 
ATOM     72  C   UNL     1       0.338  -1.795  14.112  1.00  0.00    -0.018 C 
ATOM     73  C   UNL     1       2.363  -2.535  12.790  1.00  0.00     0.044 C 
BRANCH  72  74
ATOM     74  C   UNL     1      -0.395  -3.123  14.231  1.00  0.00     0.038 C 
ATOM     75  C   UNL     1      -1.842  -2.807  14.629  1.00  0.00     0.015 C 
BRANCH  74  76
ATOM     76  C   UNL     1       0.375  -4.033  15.233  1.00  0.00     0.128 C 
BRANCH  76  77
ATOM     77  O   UNL     1      -0.184  -3.895  16.550  1.00  0.00    -0.381 OA
ATOM     78  C   UNL     1       0.713  -3.326  17.494  1.00  0.00     0.195 C 
ENDBRANCH  76  77
BRANCH  76  79
ATOM     79  C   UNL     1       0.489  -5.511  14.782  1.00  0.00     0.068 C 
BRANCH  79  80
ATOM     80  C   UNL     1       1.343  -6.439  15.611  1.00  0.00    -0.045 A 
ATOM     81  C   UNL     1       0.767  -7.311  16.544  1.00  0.00     0.004 A 
ATOM     82  C   UNL     1       2.740  -6.422  15.477  1.00  0.00     0.004 A 
ATOM     83  C   UNL     1       1.565  -8.156  17.317  1.00  0.00     0.000 A 
ATOM     84  C   UNL     1       3.538  -7.268  16.251  1.00  0.00     0.000 A 
ATOM     85  C   UNL     1       2.950  -8.135  17.169  1.00  0.00     0.000 A 
ENDBRANCH  79  80
ENDBRANCH  76  79
ENDBRANCH  74  76
ENDBRANCH  72  74
ENDBRANCH  70  71
ENDBRANCH   1  69
TORSDOF 17
ENDMDL
MODEL 8
REMARK VINA RESULT:    -6.737      3.496      5.632
REMARK INTER + INTRA:         -26.278
REMARK INTER:                 -21.565
REMARK INTRA:                  -4.713
REMARK UNBOUND:                -6.151
REMARK SMILES C=C1C(=O)N[C@H](C)C(=O)N[C@@H](CC(C)C)C(=O)N[C@@H](C(=O)O)[C@H](C)C(=O)N[C@@H](CCCN=C(N)N)C(=O)N[C@@H](/C=C/C(C)=C/[C@H](C)[C@H](Cc2ccccc2)OC)[C@H](C)C(=O)N[C@@H](C(=O)O)CCC(=O)N1C
REMARK SMILES IDX 39 1 38 2 37 3 36 4 28 6 27 7 25 8 26 9 23 11 24 12 19 13
REMARK SMILES IDX 18 14 16 15 17 16 11 18 10 19 8 20 9 21 12 24 13 25 14 26
REMARK SMILES IDX 15 27 20 28 21 29 22 30 29 32 30 33 31 34 32 35 33 36 34 37
REMARK SMILES IDX 35 38 57 43 58 44 59 45 60 46 61 47 62 49 66 50 67 51 68 52
REMARK SMILES IDX 69 53 70 54 71 55 2 56 1 57 3 58 4 59 5 60 6 62 7 63 63 65
REMARK SMILES IDX 64 66 65 67 40 69 41 70 42 71 44 72 43 73 45 74 46 75 47 76
REMARK SMILES IDX 55 77 56 78 48 79 49 80 50 81 54 82 51 83 53 84 52 85
REMARK H PARENT 38 5 27 10 18 17 10 22 22 31 34 39 34 40 35 41 35 42 61 48
REMARK H PARENT 5 61 65 68
REMARK Flexibility Score:  369.900
ROOT
ATOM      1  C   UNL     1       4.769   2.147  11.874  1.00  0.00     0.117 C 
ENDROOT
BRANCH   1   2
ATOM      2  N   UNL     1       6.220   2.107  11.691  1.00  0.00    -0.347 N 
ATOM      3  O   UNL     1       6.240   1.676   9.437  1.00  0.00    -0.273 OA
ATOM      4  C   UNL     1       6.841   1.965  10.466  1.00  0.00     0.243 C 
ATOM      5  H   UNL     1       6.823   2.239  12.490  1.00  0.00     0.164 HD
BRANCH   4   6
ATOM      6  C   UNL     1       8.388   2.042  10.538  1.00  0.00     0.171 C 
BRANCH   6   7
ATOM      7  N   UNL     1       8.994   1.184   9.508  1.00  0.00    -0.344 N 
ATOM      8  C   UNL     1       9.466  -0.071   9.827  1.00  0.00     0.226 C 
ATOM      9  O   UNL     1       9.427  -0.522  10.966  1.00  0.00    -0.275 OA
ATOM     10  H   UNL     1       9.105   1.547   8.570  1.00  0.00     0.164 HD
BRANCH   8  11
ATOM     11  C   UNL     1      10.011  -0.853   8.645  1.00  0.00     0.109 C 
ATOM     12  C   UNL     1      10.340   0.096   7.492  1.00  0.00     0.021 C 
BRANCH  11  13
ATOM     13  C   UNL     1      11.183  -1.744   9.105  1.00  0.00     0.204 C 
BRANCH  13  14
ATOM     14  N   UNL     1      11.168  -3.056   8.451  1.00  0.00    -0.340 N 
ATOM     15  C   UNL     1      11.670  -4.194   9.044  1.00  0.00     0.243 C 
ATOM     16  O   UNL     1      12.111  -4.200  10.192  1.00  0.00    -0.273 OA
ATOM     17  H   UNL     1      10.958  -3.091   7.449  1.00  0.00     0.164 HD
BRANCH  15  18
ATOM     18  C   UNL     1      11.738  -5.411   8.090  1.00  0.00     0.171 C 
BRANCH  18  19
ATOM     19  N   UNL     1      12.923  -6.177   8.471  1.00  0.00    -0.343 N 
ATOM     20  C   UNL     1      13.445  -7.165   7.659  1.00  0.00     0.242 CG0
ATOM     21  O   UNL     1      12.863  -7.537   6.643  1.00  0.00    -0.273 OA
ATOM     22  H   UNL     1      13.375  -5.985   9.358  1.00  0.00     0.164 HD
ATOM     23  G   UNL     1      14.743  -7.807   8.191  1.00  0.00     0.000 G0
ENDBRANCH  18  19
BRANCH  18  24
ATOM     24  C   UNL     1      10.463  -6.257   8.200  1.00  0.00     0.038 C 
BRANCH  24  25
ATOM     25  C   UNL     1       9.997  -6.536   9.644  1.00  0.00    -0.015 C 
ATOM     26  C   UNL     1      10.183  -7.999  10.047  1.00  0.00     0.007 C 
ATOM     27  C   UNL     1       8.525  -6.142   9.795  1.00  0.00     0.007 C 
ENDBRANCH  24  25
ENDBRANCH  18  24
ENDBRANCH  15  18
ENDBRANCH  13  14
BRANCH  13  28
ATOM     28  C   UNL     1      12.556  -1.120   8.840  1.00  0.00     0.327 C 
ATOM     29  O   UNL     1      13.310  -1.397   7.920  1.00  0.00    -0.250 OA
BRANCH  28  30
ATOM     30  O   UNL     1      12.948  -0.272   9.813  1.00  0.00    -0.480 OA
ATOM     31  H   UNL     1      13.830  -0.605  10.081  1.00  0.00     0.296 HD
ENDBRANCH  28  30
ENDBRANCH  13  28
ENDBRANCH  11  13
ENDBRANCH   8  11
ENDBRANCH   6   7
BRANCH   6  32
ATOM     32  C   UNL     1       8.828   3.499  10.365  1.00  0.00     0.037 C 
BRANCH  32  33
ATOM     33  C   UNL     1       9.588   3.723   9.050  1.00  0.00     0.026 C 
BRANCH  33  34
ATOM     34  C   UNL     1       8.674   4.193   7.919  1.00  0.00     0.146 C 
BRANCH  34  35
ATOM     35  N   UNL     1       8.829   3.293   6.784  1.00  0.00    -0.254 NA
ATOM     36  C   UNL     1       7.778   2.806   6.238  1.00  0.00     0.185 C 
ATOM     37  N   UNL     1       7.910   1.979   5.188  1.00  0.00    -0.370 N 
ATOM     38  N   UNL     1       6.488   3.001   6.564  1.00  0.00    -0.370 N 
ATOM     39  H   UNL     1       8.853   1.791   4.875  1.00  0.00     0.159 HD
ATOM     40  H   UNL     1       7.142   1.698   4.603  1.00  0.00     0.159 HD
ATOM     41  H   UNL     1       5.756   2.451   6.146  1.00  0.00     0.159 HD
ATOM     42  H   UNL     1       6.240   3.588   7.345  1.00  0.00     0.159 HD
ENDBRANCH  34  35
ENDBRANCH  33  34
ENDBRANCH  32  33
ENDBRANCH   6  32
ENDBRANCH   4   6
ENDBRANCH   1   2
BRANCH   1  43
ATOM     43  C   UNL     1       4.363   3.588  12.298  1.00  0.00     0.102 C 
ATOM     44  C   UNL     1       3.134   3.631  13.222  1.00  0.00     0.020 C 
BRANCH  43  45
ATOM     45  C   UNL     1       4.256   4.510  11.080  1.00  0.00     0.225 C 
ATOM     46  O   UNL     1       4.043   4.098   9.943  1.00  0.00    -0.275 OA
ATOM     47  N   UNL     1       4.509   5.841  11.320  1.00  0.00    -0.342 N 
ATOM     48  H   UNL     1       4.531   6.183  12.271  1.00  0.00     0.164 HD
BRANCH  47  49
ATOM     49  C   UNL     1       4.409   6.845  10.256  1.00  0.00     0.192 C 
BRANCH  49  50
ATOM     50  C   UNL     1       5.722   7.625  10.159  1.00  0.00     0.047 C 
BRANCH  50  51
ATOM     51  C   UNL     1       5.709   8.647   9.014  1.00  0.00     0.103 C 
BRANCH  51  52
ATOM     52  C   UNL     1       6.967   8.559   8.153  1.00  0.00     0.226 C 
ATOM     53  O   UNL     1       8.074   8.726   8.670  1.00  0.00    -0.275 OA
BRANCH  52  54
ATOM     54  N   UNL     1       6.780   8.209   6.803  1.00  0.00    -0.311 N 
ATOM     55  C   UNL     1       7.343   6.966   6.258  1.00  0.00     0.153 C 
BRANCH  54  56
ATOM     56  C   UNL     1       6.045   9.028   5.929  1.00  0.00     0.102 C 
ATOM     57  C   UNL     1       6.488  10.181   5.402  1.00  0.00     0.043 C 
BRANCH  56  58
ATOM     58  C   UNL     1       4.663   8.626   5.469  1.00  0.00     0.268 C 
ATOM     59  O   UNL     1       3.863   8.041   6.185  1.00  0.00    -0.268 OA
ATOM     60  N   UNL     1       4.377   9.044   4.191  1.00  0.00    -0.339 N 
ATOM     61  H   UNL     1       5.100   9.515   3.659  1.00  0.00     0.164 HD
BRANCH  60  62
ATOM     62  C   UNL     1       3.073   8.816   3.570  1.00  0.00     0.168 CG0
ATOM     63  C   UNL     1       3.110   7.603   2.649  1.00  0.00     0.041 C 
ATOM     64  G   UNL     1       2.642  10.078   2.794  1.00  0.00     0.000 G0
ENDBRANCH  60  62
ENDBRANCH  56  58
ENDBRANCH  54  56
ENDBRANCH  52  54
ENDBRANCH  51  52
ENDBRANCH  50  51
ENDBRANCH  49  50
BRANCH  49  65
ATOM     65  C   UNL     1       3.252   7.825  10.508  1.00  0.00     0.326 C 
ATOM     66  O   UNL     1       2.957   8.774   9.797  1.00  0.00    -0.250 OA
BRANCH  65  67
ATOM     67  O   UNL     1       2.570   7.609  11.655  1.00  0.00    -0.480 OA
ATOM     68  H   UNL     1       3.275   7.421  12.312  1.00  0.00     0.296 HD
ENDBRANCH  65  67
ENDBRANCH  49  65
ENDBRANCH  47  49
ENDBRANCH  43  45
ENDBRANCH   1  43
BRANCH   1  69
ATOM     69  C   UNL     1       4.425   0.989  12.793  1.00  0.00    -0.001 C 
ATOM     70  C   UNL     1       3.463   0.065  12.618  1.00  0.00     0.001 C 
BRANCH  70  71
ATOM     71  C   UNL     1       3.155  -1.062  13.501  1.00  0.00    -0.055 C 
ATOM     72  C   UNL     1       2.123  -1.862  13.160  1.00  0.00    -0.018 C 
ATOM     73  C   UNL     1       4.016  -1.253  14.722  1.00  0.00     0.044 C 
BRANCH  72  74
ATOM     74  C   UNL     1       1.582  -3.092  13.874  1.00  0.00     0.038 C 
ATOM     75  C   UNL     1       1.230  -4.124  12.795  1.00  0.00     0.015 C 
BRANCH  74  76
ATOM     76  C   UNL     1       0.390  -2.662  14.779  1.00  0.00     0.128 C 
BRANCH  76  77
ATOM     77  O   UNL     1      -0.408  -1.675  14.104  1.00  0.00    -0.381 OA
ATOM     78  C   UNL     1      -1.762  -2.065  13.920  1.00  0.00     0.195 C 
ENDBRANCH  76  77
BRANCH  76  79
ATOM     79  C   UNL     1      -0.451  -3.846  15.318  1.00  0.00     0.068 C 
BRANCH  79  80
ATOM     80  C   UNL     1       0.195  -4.774  16.319  1.00  0.00    -0.045 A 
ATOM     81  C   UNL     1       0.116  -6.165  16.170  1.00  0.00     0.004 A 
ATOM     82  C   UNL     1       0.864  -4.253  17.437  1.00  0.00     0.004 A 
ATOM     83  C   UNL     1       0.704  -7.017  17.108  1.00  0.00     0.000 A 
ATOM     84  C   UNL     1       1.451  -5.106  18.375  1.00  0.00     0.000 A 
ATOM     85  C   UNL     1       1.372  -6.487  18.209  1.00  0.00     0.000 A 
ENDBRANCH  79  80
ENDBRANCH  76  79
ENDBRANCH  74  76
ENDBRANCH  72  74
ENDBRANCH  70  71
ENDBRANCH   1  69
TORSDOF 17
ENDMDL
MODEL 9
REMARK VINA RESULT:    -6.681      1.740      2.472
REMARK INTER + INTRA:         -26.110
REMARK INTER:                 -19.392
REMARK INTRA:                  -6.718
REMARK UNBOUND:                -6.151
REMARK SMILES C=C1C(=O)N[C@H](C)C(=O)N[C@@H](CC(C)C)C(=O)N[C@@H](C(=O)O)[C@H](C)C(=O)N[C@@H](CCCN=C(N)N)C(=O)N[C@@H](/C=C/C(C)=C/[C@H](C)[C@H](Cc2ccccc2)OC)[C@H](C)C(=O)N[C@@H](C(=O)O)CCC(=O)N1C
REMARK SMILES IDX 39 1 38 2 37 3 36 4 28 6 27 7 25 8 26 9 23 11 24 12 19 13
REMARK SMILES IDX 18 14 16 15 17 16 11 18 10 19 8 20 9 21 12 24 13 25 14 26
REMARK SMILES IDX 15 27 20 28 21 29 22 30 29 32 30 33 31 34 32 35 33 36 34 37
REMARK SMILES IDX 35 38 57 43 58 44 59 45 60 46 61 47 62 49 66 50 67 51 68 52
REMARK SMILES IDX 69 53 70 54 71 55 2 56 1 57 3 58 4 59 5 60 6 62 7 63 63 65
REMARK SMILES IDX 64 66 65 67 40 69 41 70 42 71 44 72 43 73 45 74 46 75 47 76
REMARK SMILES IDX 55 77 56 78 48 79 49 80 50 81 54 82 51 83 53 84 52 85
REMARK H PARENT 38 5 27 10 18 17 10 22 22 31 34 39 34 40 35 41 35 42 61 48
REMARK H PARENT 5 61 65 68
REMARK Flexibility Score:  369.900
ROOT
ATOM      1  C   UNL     1       4.337   2.517  11.914  1.00  0.00     0.117 C 
ENDROOT
BRANCH   1   2
ATOM      2  N   UNL     1       5.604   2.496  11.181  1.00  0.00    -0.347 N 
ATOM      3  O   UNL     1       4.755   2.866   9.080  1.00  0.00    -0.273 OA
ATOM      4  C   UNL     1       5.720   2.765   9.831  1.00  0.00     0.243 C 
ATOM      5  H   UNL     1       6.463   2.327  11.682  1.00  0.00     0.164 HD
BRANCH   4   6
ATOM      6  C   UNL     1       7.183   2.763   9.319  1.00  0.00     0.171 C 
BRANCH   6   7
ATOM      7  N   UNL     1       8.116   2.517  10.429  1.00  0.00    -0.344 N 
ATOM      8  C   UNL     1       9.357   3.117  10.450  1.00  0.00     0.226 C 
ATOM      9  O   UNL     1       9.750   3.853   9.553  1.00  0.00    -0.275 OA
ATOM     10  H   UNL     1       7.854   1.862  11.155  1.00  0.00     0.164 HD
BRANCH   8  11
ATOM     11  C   UNL     1      10.180   2.808  11.688  1.00  0.00     0.109 C 
ATOM     12  C   UNL     1       9.402   3.191  12.947  1.00  0.00     0.021 C 
BRANCH  11  13
ATOM     13  C   UNL     1      10.659   1.343  11.643  1.00  0.00     0.204 C 
BRANCH  13  14
ATOM     14  N   UNL     1      10.839   0.863  10.269  1.00  0.00    -0.340 N 
ATOM     15  C   UNL     1      10.057  -0.127   9.714  1.00  0.00     0.243 C 
ATOM     16  O   UNL     1       9.113  -0.637  10.314  1.00  0.00    -0.273 OA
ATOM     17  H   UNL     1      11.692   1.133   9.773  1.00  0.00     0.164 HD
BRANCH  15  18
ATOM     18  C   UNL     1      10.562  -0.612   8.333  1.00  0.00     0.171 C 
BRANCH  18  19
ATOM     19  N   UNL     1      11.911  -1.135   8.540  1.00  0.00    -0.343 N 
ATOM     20  C   UNL     1      12.998  -0.645   7.843  1.00  0.00     0.242 CG0
ATOM     21  O   UNL     1      12.863   0.159   6.923  1.00  0.00    -0.273 OA
ATOM     22  H   UNL     1      12.057  -1.883   9.208  1.00  0.00     0.164 HD
ATOM     23  G   UNL     1      14.350  -1.264   8.253  1.00  0.00     0.000 G0
ENDBRANCH  18  19
BRANCH  18  24
ATOM     24  C   UNL     1       9.626  -1.683   7.760  1.00  0.00     0.038 C 
BRANCH  24  25
ATOM     25  C   UNL     1      10.180  -3.122   7.818  1.00  0.00    -0.015 C 
ATOM     26  C   UNL     1      10.239  -3.783   6.440  1.00  0.00     0.007 C 
ATOM     27  C   UNL     1       9.319  -3.968   8.759  1.00  0.00     0.007 C 
ENDBRANCH  24  25
ENDBRANCH  18  24
ENDBRANCH  15  18
ENDBRANCH  13  14
BRANCH  13  28
ATOM     28  C   UNL     1      11.984   1.118  12.378  1.00  0.00     0.327 C 
ATOM     29  O   UNL     1      12.310   1.612  13.447  1.00  0.00    -0.250 OA
BRANCH  28  30
ATOM     30  O   UNL     1      12.864   0.382  11.670  1.00  0.00    -0.480 OA
ATOM     31  H   UNL     1      13.718   0.517  12.131  1.00  0.00     0.296 HD
ENDBRANCH  28  30
ENDBRANCH  13  28
ENDBRANCH  11  13
ENDBRANCH   8  11
ENDBRANCH   6   7
BRANCH   6  32
ATOM     32  C   UNL     1       7.334   1.694   8.230  1.00  0.00     0.037 C 
BRANCH  32  33
ATOM     33  C   UNL     1       8.293   2.134   7.115  1.00  0.00     0.026 C 
BRANCH  33  34
ATOM     34  C   UNL     1       7.560   2.741   5.918  1.00  0.00     0.146 C 
BRANCH  34  35
ATOM     35  N   UNL     1       7.753   4.184   5.931  1.00  0.00    -0.254 NA
ATOM     36  C   UNL     1       6.767   4.933   6.256  1.00  0.00     0.185 C 
ATOM     37  N   UNL     1       6.935   6.264   6.276  1.00  0.00    -0.370 N 
ATOM     38  N   UNL     1       5.516   4.580   6.603  1.00  0.00    -0.370 N 
ATOM     39  H   UNL     1       7.856   6.609   6.036  1.00  0.00     0.159 HD
ATOM     40  H   UNL     1       6.273   6.903   6.683  1.00  0.00     0.159 HD
ATOM     41  H   UNL     1       4.789   5.269   6.702  1.00  0.00     0.159 HD
ATOM     42  H   UNL     1       5.242   3.610   6.616  1.00  0.00     0.159 HD
ENDBRANCH  34  35
ENDBRANCH  33  34
ENDBRANCH  32  33
ENDBRANCH   6  32
ENDBRANCH   4   6
ENDBRANCH   1   2
BRANCH   1  43
ATOM     43  C   UNL     1       4.284   3.812  12.774  1.00  0.00     0.102 C 
ATOM     44  C   UNL     1       2.911   4.059  13.423  1.00  0.00     0.020 C 
BRANCH  43  45
ATOM     45  C   UNL     1       4.828   5.013  11.995  1.00  0.00     0.225 C 
ATOM     46  O   UNL     1       6.011   5.343  12.012  1.00  0.00    -0.275 OA
ATOM     47  N   UNL     1       3.886   5.769  11.337  1.00  0.00    -0.342 N 
ATOM     48  H   UNL     1       2.953   5.404  11.208  1.00  0.00     0.164 HD
BRANCH  47  49
ATOM     49  C   UNL     1       4.265   6.927  10.522  1.00  0.00     0.192 C 
BRANCH  49  50
ATOM     50  C   UNL     1       3.309   8.089  10.802  1.00  0.00     0.047 C 
BRANCH  50  51
ATOM     51  C   UNL     1       2.142   7.677  11.711  1.00  0.00     0.103 C 
BRANCH  51  52
ATOM     52  C   UNL     1       0.834   8.353  11.306  1.00  0.00     0.226 C 
ATOM     53  O   UNL     1       0.711   8.814  10.170  1.00  0.00    -0.275 OA
BRANCH  52  54
ATOM     54  N   UNL     1      -0.201   8.337  12.260  1.00  0.00    -0.311 N 
ATOM     55  C   UNL     1       0.055   7.924  13.646  1.00  0.00     0.153 C 
BRANCH  54  56
ATOM     56  C   UNL     1      -1.511   8.720  11.926  1.00  0.00     0.102 C 
ATOM     57  C   UNL     1      -2.406   7.934  11.306  1.00  0.00     0.043 C 
BRANCH  56  58
ATOM     58  C   UNL     1      -2.038  10.086  12.298  1.00  0.00     0.268 C 
ATOM     59  O   UNL     1      -2.138  10.472  13.455  1.00  0.00    -0.268 OA
ATOM     60  N   UNL     1      -2.328  10.869  11.207  1.00  0.00    -0.339 N 
ATOM     61  H   UNL     1      -2.228  10.470  10.281  1.00  0.00     0.164 HD
BRANCH  60  62
ATOM     62  C   UNL     1      -2.793  12.249  11.339  1.00  0.00     0.168 CG0
ATOM     63  C   UNL     1      -4.312  12.325  11.261  1.00  0.00     0.041 C 
ATOM     64  G   UNL     1      -2.145  13.120  10.243  1.00  0.00     0.000 G0
ENDBRANCH  60  62
ENDBRANCH  56  58
ENDBRANCH  54  56
ENDBRANCH  52  54
ENDBRANCH  51  52
ENDBRANCH  50  51
ENDBRANCH  49  50
BRANCH  49  65
ATOM     65  C   UNL     1       4.239   6.597   9.022  1.00  0.00     0.326 C 
ATOM     66  O   UNL     1       4.806   7.232   8.144  1.00  0.00    -0.250 OA
BRANCH  65  67
ATOM     67  O   UNL     1       3.466   5.539   8.691  1.00  0.00    -0.480 OA
ATOM     68  H   UNL     1       4.104   4.796   8.631  1.00  0.00     0.296 HD
ENDBRANCH  65  67
ENDBRANCH  49  65
ENDBRANCH  47  49
ENDBRANCH  43  45
ENDBRANCH   1  43
BRANCH   1  69
ATOM     69  C   UNL     1       4.227   1.171  12.607  1.00  0.00    -0.001 C 
ATOM     70  C   UNL     1       5.043   0.669  13.551  1.00  0.00     0.001 C 
BRANCH  70  71
ATOM     71  C   UNL     1       4.914  -0.623  14.228  1.00  0.00    -0.055 C 
ATOM     72  C   UNL     1       3.709  -0.944  14.744  1.00  0.00    -0.018 C 
ATOM     73  C   UNL     1       6.133  -1.506  14.294  1.00  0.00     0.044 C 
BRANCH  72  74
ATOM     74  C   UNL     1       3.284  -2.201  15.489  1.00  0.00     0.038 C 
ATOM     75  C   UNL     1       4.090  -2.250  16.792  1.00  0.00     0.015 C 
BRANCH  74  76
ATOM     76  C   UNL     1       3.483  -3.430  14.552  1.00  0.00     0.128 C 
BRANCH  76  77
ATOM     77  O   UNL     1       3.813  -4.592  15.331  1.00  0.00    -0.381 OA
ATOM     78  C   UNL     1       3.913  -5.784  14.563  1.00  0.00     0.195 C 
ENDBRANCH  76  77
BRANCH  76  79
ATOM     79  C   UNL     1       2.304  -3.676  13.578  1.00  0.00     0.068 C 
BRANCH  79  80
ATOM     80  C   UNL     1       0.920  -3.274  14.027  1.00  0.00    -0.045 A 
ATOM     81  C   UNL     1       0.287  -2.144  13.494  1.00  0.00     0.004 A 
ATOM     82  C   UNL     1       0.253  -4.017  15.014  1.00  0.00     0.004 A 
ATOM     83  C   UNL     1      -0.988  -1.771  13.926  1.00  0.00     0.000 A 
ATOM     84  C   UNL     1      -1.021  -3.643  15.445  1.00  0.00     0.000 A 
ATOM     85  C   UNL     1      -1.642  -2.522  14.900  1.00  0.00     0.000 A 
ENDBRANCH  79  80
ENDBRANCH  76  79
ENDBRANCH  74  76
ENDBRANCH  72  74
ENDBRANCH  70  71
ENDBRANCH   1  69
TORSDOF 17
ENDMDL
MODEL 10
REMARK VINA RESULT:    -6.671      4.151     11.485
REMARK INTER + INTRA:         -26.080
REMARK INTER:                 -18.806
REMARK INTRA:                  -7.274
REMARK UNBOUND:                -6.151
REMARK SMILES C=C1C(=O)N[C@H](C)C(=O)N[C@@H](CC(C)C)C(=O)N[C@@H](C(=O)O)[C@H](C)C(=O)N[C@@H](CCCN=C(N)N)C(=O)N[C@@H](/C=C/C(C)=C/[C@H](C)[C@H](Cc2ccccc2)OC)[C@H](C)C(=O)N[C@@H](C(=O)O)CCC(=O)N1C
REMARK SMILES IDX 39 1 38 2 37 3 36 4 28 6 27 7 25 8 26 9 23 11 24 12 19 13
REMARK SMILES IDX 18 14 16 15 17 16 11 18 10 19 8 20 9 21 12 24 13 25 14 26
REMARK SMILES IDX 15 27 20 28 21 29 22 30 29 32 30 33 31 34 32 35 33 36 34 37
REMARK SMILES IDX 35 38 57 43 58 44 59 45 60 46 61 47 62 49 66 50 67 51 68 52
REMARK SMILES IDX 69 53 70 54 71 55 2 56 1 57 3 58 4 59 5 60 6 62 7 63 63 65
REMARK SMILES IDX 64 66 65 67 40 69 41 70 42 71 44 72 43 73 45 74 46 75 47 76
REMARK SMILES IDX 55 77 56 78 48 79 49 80 50 81 54 82 51 83 53 84 52 85
REMARK H PARENT 38 5 27 10 18 17 10 22 22 31 34 39 34 40 35 41 35 42 61 48
REMARK H PARENT 5 61 65 68
REMARK Flexibility Score:  369.900
ROOT
ATOM      1  C   UNL     1      10.009  -0.905  12.736  1.00  0.00     0.117 C 
ENDROOT
BRANCH   1   2
ATOM      2  N   UNL     1       8.734  -0.191  12.813  1.00  0.00    -0.347 N 
ATOM      3  O   UNL     1       9.225   1.133  14.623  1.00  0.00    -0.273 OA
ATOM      4  C   UNL     1       8.476   0.839  13.697  1.00  0.00     0.243 C 
ATOM      5  H   UNL     1       8.001  -0.416  12.157  1.00  0.00     0.164 HD
BRANCH   4   6
ATOM      6  C   UNL     1       7.078   1.483  13.513  1.00  0.00     0.171 C 
BRANCH   6   7
ATOM      7  N   UNL     1       6.915   1.974  12.136  1.00  0.00    -0.344 N 
ATOM      8  C   UNL     1       6.278   3.170  11.887  1.00  0.00     0.226 C 
ATOM      9  O   UNL     1       5.802   3.862  12.779  1.00  0.00    -0.275 OA
ATOM     10  H   UNL     1       7.235   1.397  11.368  1.00  0.00     0.164 HD
BRANCH   8  11
ATOM     11  C   UNL     1       6.238   3.565  10.421  1.00  0.00     0.109 C 
ATOM     12  C   UNL     1       6.198   2.316   9.541  1.00  0.00     0.021 C 
BRANCH  11  13
ATOM     13  C   UNL     1       5.089   4.565  10.182  1.00  0.00     0.204 C 
BRANCH  13  14
ATOM     14  N   UNL     1       5.528   5.738   9.419  1.00  0.00    -0.340 N 
ATOM     15  C   UNL     1       5.105   7.018   9.705  1.00  0.00     0.243 C 
ATOM     16  O   UNL     1       4.374   7.273  10.661  1.00  0.00    -0.273 OA
ATOM     17  H   UNL     1       6.008   5.580   8.529  1.00  0.00     0.164 HD
BRANCH  15  18
ATOM     18  C   UNL     1       5.531   8.062   8.644  1.00  0.00     0.171 C 
BRANCH  18  19
ATOM     19  N   UNL     1       4.893   9.323   9.018  1.00  0.00    -0.343 N 
ATOM     20  C   UNL     1       3.852   9.858   8.285  1.00  0.00     0.242 CG0
ATOM     21  O   UNL     1       3.502   9.369   7.213  1.00  0.00    -0.273 OA
ATOM     22  H   UNL     1       5.225   9.825   9.834  1.00  0.00     0.164 HD
ATOM     23  G   UNL     1       3.255  11.151   8.877  1.00  0.00     0.000 G0
ENDBRANCH  18  19
BRANCH  18  24
ATOM     24  C   UNL     1       7.058   8.196   8.600  1.00  0.00     0.038 C 
BRANCH  24  25
ATOM     25  C   UNL     1       7.710   7.708   7.289  1.00  0.00    -0.015 C 
ATOM     26  C   UNL     1       6.693   7.527   6.162  1.00  0.00     0.007 C 
ATOM     27  C   UNL     1       8.443   6.387   7.539  1.00  0.00     0.007 C 
ENDBRANCH  24  25
ENDBRANCH  18  24
ENDBRANCH  15  18
ENDBRANCH  13  14
BRANCH  13  28
ATOM     28  C   UNL     1       3.903   3.952   9.429  1.00  0.00     0.327 C 
ATOM     29  O   UNL     1       3.544   4.232   8.296  1.00  0.00    -0.250 OA
BRANCH  28  30
ATOM     30  O   UNL     1       3.171   3.114  10.190  1.00  0.00    -0.480 OA
ATOM     31  H   UNL     1       2.729   3.700  10.839  1.00  0.00     0.296 HD
ENDBRANCH  28  30
ENDBRANCH  13  28
ENDBRANCH  11  13
ENDBRANCH   8  11
ENDBRANCH   6   7
BRANCH   6  32
ATOM     32  C   UNL     1       6.000   0.449  13.857  1.00  0.00     0.037 C 
BRANCH  32  33
ATOM     33  C   UNL     1       5.327   0.741  15.206  1.00  0.00     0.026 C 
BRANCH  33  34
ATOM     34  C   UNL     1       4.202   1.769  15.089  1.00  0.00     0.146 C 
BRANCH  34  35
ATOM     35  N   UNL     1       3.219   1.283  14.130  1.00  0.00    -0.254 NA
ATOM     36  C   UNL     1       2.694   2.116  13.312  1.00  0.00     0.185 C 
ATOM     37  N   UNL     1       1.791   1.678  12.421  1.00  0.00    -0.370 N 
ATOM     38  N   UNL     1       2.916   3.438  13.193  1.00  0.00    -0.370 N 
ATOM     39  H   UNL     1       1.578   0.689  12.440  1.00  0.00     0.159 HD
ATOM     40  H   UNL     1       1.468   2.225  11.641  1.00  0.00     0.159 HD
ATOM     41  H   UNL     1       2.338   4.012  12.602  1.00  0.00     0.159 HD
ATOM     42  H   UNL     1       3.561   3.906  13.811  1.00  0.00     0.159 HD
ENDBRANCH  34  35
ENDBRANCH  33  34
ENDBRANCH  32  33
ENDBRANCH   6  32
ENDBRANCH   4   6
ENDBRANCH   1   2
BRANCH   1  43
ATOM     43  C   UNL     1      10.782  -0.404  11.482  1.00  0.00     0.102 C 
ATOM     44  C   UNL     1      11.522   0.925  11.710  1.00  0.00     0.020 C 
BRANCH  43  45
ATOM     45  C   UNL     1       9.882  -0.410  10.243  1.00  0.00     0.225 C 
ATOM     46  O   UNL     1       8.800   0.169  10.197  1.00  0.00    -0.275 OA
ATOM     47  N   UNL     1      10.319  -1.191   9.197  1.00  0.00    -0.342 N 
ATOM     48  H   UNL     1      11.269  -1.533   9.191  1.00  0.00     0.164 HD
BRANCH  47  49
ATOM     49  C   UNL     1       9.578  -1.264   7.935  1.00  0.00     0.192 C 
BRANCH  49  50
ATOM     50  C   UNL     1       9.768  -2.647   7.306  1.00  0.00     0.047 C 
BRANCH  50  51
ATOM     51  C   UNL     1      10.968  -3.397   7.901  1.00  0.00     0.103 C 
BRANCH  51  52
ATOM     52  C   UNL     1      10.728  -4.904   7.965  1.00  0.00     0.226 C 
ATOM     53  O   UNL     1      11.075  -5.618   7.022  1.00  0.00    -0.275 OA
BRANCH  52  54
ATOM     54  N   UNL     1      10.179  -5.401   9.162  1.00  0.00    -0.311 N 
ATOM     55  C   UNL     1       8.736  -5.320   9.423  1.00  0.00     0.153 C 
BRANCH  54  56
ATOM     56  C   UNL     1      10.986  -5.995  10.146  1.00  0.00     0.102 C 
ATOM     57  C   UNL     1      11.702  -5.323  11.063  1.00  0.00     0.043 C 
BRANCH  56  58
ATOM     58  C   UNL     1      11.072  -7.498  10.275  1.00  0.00     0.268 C 
ATOM     59  O   UNL     1      10.668  -8.268   9.413  1.00  0.00    -0.268 OA
ATOM     60  N   UNL     1      11.707  -7.907  11.423  1.00  0.00    -0.339 N 
ATOM     61  H   UNL     1      12.003  -7.206  12.092  1.00  0.00     0.164 HD
BRANCH  60  62
ATOM     62  C   UNL     1      11.953  -9.318  11.717  1.00  0.00     0.168 CG0
ATOM     63  C   UNL     1      12.168  -9.536  13.210  1.00  0.00     0.041 C 
ATOM     64  G   UNL     1      13.174  -9.808  10.912  1.00  0.00     0.000 G0
ENDBRANCH  60  62
ENDBRANCH  56  58
ENDBRANCH  54  56
ENDBRANCH  52  54
ENDBRANCH  51  52
ENDBRANCH  50  51
ENDBRANCH  49  50
BRANCH  49  65
ATOM     65  C   UNL     1      10.041  -0.186   6.942  1.00  0.00     0.326 C 
ATOM     66  O   UNL     1      10.236   0.990   7.211  1.00  0.00    -0.250 OA
BRANCH  65  67
ATOM     67  O   UNL     1      10.178  -0.615   5.668  1.00  0.00    -0.480 OA
ATOM     68  H   UNL     1      11.105  -0.382   5.444  1.00  0.00     0.296 HD
ENDBRANCH  65  67
ENDBRANCH  49  65
ENDBRANCH  47  49
ENDBRANCH  43  45
ENDBRANCH   1  43
BRANCH   1  69
ATOM     69  C   UNL     1       9.677  -2.381  12.852  1.00  0.00    -0.001 C 
ATOM     70  C   UNL     1       8.854  -2.966  13.740  1.00  0.00     0.001 C 
BRANCH  70  71
ATOM     71  C   UNL     1       8.524  -4.390  13.828  1.00  0.00    -0.055 C 
ATOM     72  C   UNL     1       7.234  -4.747  13.655  1.00  0.00    -0.018 C 
ATOM     73  C   UNL     1       9.648  -5.356  14.097  1.00  0.00     0.044 C 
BRANCH  72  74
ATOM     74  C   UNL     1       6.605  -6.133  13.689  1.00  0.00     0.038 C 
ATOM     75  C   UNL     1       6.845  -6.772  12.315  1.00  0.00     0.015 C 
BRANCH  74  76
ATOM     76  C   UNL     1       5.107  -5.994  14.092  1.00  0.00     0.128 C 
BRANCH  76  77
ATOM     77  O   UNL     1       4.753  -7.028  15.027  1.00  0.00    -0.381 OA
ATOM     78  C   UNL     1       4.706  -6.585  16.376  1.00  0.00     0.195 C 
ENDBRANCH  76  77
BRANCH  76  79
ATOM     79  C   UNL     1       4.717  -4.579  14.586  1.00  0.00     0.068 C 
BRANCH  79  80
ATOM     80  C   UNL     1       3.522  -3.912  13.950  1.00  0.00    -0.045 A 
ATOM     81  C   UNL     1       3.560  -2.561  13.582  1.00  0.00     0.004 A 
ATOM     82  C   UNL     1       2.336  -4.634  13.743  1.00  0.00     0.004 A 
ATOM     83  C   UNL     1       2.444  -1.948  13.007  1.00  0.00     0.000 A 
ATOM     84  C   UNL     1       1.222  -4.020  13.168  1.00  0.00     0.000 A 
ATOM     85  C   UNL     1       1.276  -2.678  12.799  1.00  0.00     0.000 A 
ENDBRANCH  79  80
ENDBRANCH  76  79
ENDBRANCH  74  76
ENDBRANCH  72  74
ENDBRANCH  70  71
ENDBRANCH   1  69
TORSDOF 17
ENDMDL
MODEL 11
REMARK VINA RESULT:    -6.602      7.417     13.335
REMARK INTER + INTRA:         -25.875
REMARK INTER:                 -19.510
REMARK INTRA:                  -6.365
REMARK UNBOUND:                -6.151
REMARK SMILES C=C1C(=O)N[C@H](C)C(=O)N[C@@H](CC(C)C)C(=O)N[C@@H](C(=O)O)[C@H](C)C(=O)N[C@@H](CCCN=C(N)N)C(=O)N[C@@H](/C=C/C(C)=C/[C@H](C)[C@H](Cc2ccccc2)OC)[C@H](C)C(=O)N[C@@H](C(=O)O)CCC(=O)N1C
REMARK SMILES IDX 39 1 38 2 37 3 36 4 28 6 27 7 25 8 26 9 23 11 24 12 19 13
REMARK SMILES IDX 18 14 16 15 17 16 11 18 10 19 8 20 9 21 12 24 13 25 14 26
REMARK SMILES IDX 15 27 20 28 21 29 22 30 29 32 30 33 31 34 32 35 33 36 34 37
REMARK SMILES IDX 35 38 57 43 58 44 59 45 60 46 61 47 62 49 66 50 67 51 68 52
REMARK SMILES IDX 69 53 70 54 71 55 2 56 1 57 3 58 4 59 5 60 6 62 7 63 63 65
REMARK SMILES IDX 64 66 65 67 40 69 41 70 42 71 44 72 43 73 45 74 46 75 47 76
REMARK SMILES IDX 55 77 56 78 48 79 49 80 50 81 54 82 51 83 53 84 52 85
REMARK H PARENT 38 5 27 10 18 17 10 22 22 31 34 39 34 40 35 41 35 42 61 48
REMARK H PARENT 5 61 65 68
REMARK Flexibility Score:  369.900
ROOT
ATOM      1  C   UNL     1       6.715   8.258   4.047  1.00  0.00     0.117 C 
ENDROOT
BRANCH   1   2
ATOM      2  N   UNL     1       6.990   7.026   4.786  1.00  0.00    -0.347 N 
ATOM      3  O   UNL     1       9.056   7.606   5.604  1.00  0.00    -0.273 OA
ATOM      4  C   UNL     1       8.103   6.834   5.583  1.00  0.00     0.243 C 
ATOM      5  H   UNL     1       6.316   6.276   4.766  1.00  0.00     0.164 HD
BRANCH   4   6
ATOM      6  C   UNL     1       8.111   5.473   6.325  1.00  0.00     0.171 C 
BRANCH   6   7
ATOM      7  N   UNL     1       7.040   5.430   7.333  1.00  0.00    -0.344 N 
ATOM      8  C   UNL     1       7.297   4.985   8.612  1.00  0.00     0.226 C 
ATOM      9  O   UNL     1       8.401   4.589   8.964  1.00  0.00    -0.275 OA
ATOM     10  H   UNL     1       6.099   5.685   7.061  1.00  0.00     0.164 HD
BRANCH   8  11
ATOM     11  C   UNL     1       6.103   5.052   9.548  1.00  0.00     0.109 C 
ATOM     12  C   UNL     1       5.538   6.472   9.579  1.00  0.00     0.021 C 
BRANCH  11  13
ATOM     13  C   UNL     1       5.085   3.957   9.175  1.00  0.00     0.204 C 
BRANCH  13  14
ATOM     14  N   UNL     1       4.494   3.326  10.359  1.00  0.00    -0.340 N 
ATOM     15  C   UNL     1       4.375   1.960  10.498  1.00  0.00     0.243 C 
ATOM     16  O   UNL     1       4.812   1.171   9.664  1.00  0.00    -0.273 OA
ATOM     17  H   UNL     1       3.978   3.921  11.013  1.00  0.00     0.164 HD
BRANCH  15  18
ATOM     18  C   UNL     1       3.535   1.535  11.728  1.00  0.00     0.171 C 
BRANCH  18  19
ATOM     19  N   UNL     1       2.821   2.727  12.180  1.00  0.00    -0.343 N 
ATOM     20  C   UNL     1       2.738   3.063  13.518  1.00  0.00     0.242 CG0
ATOM     21  O   UNL     1       3.144   2.308  14.398  1.00  0.00    -0.273 OA
ATOM     22  H   UNL     1       2.368   3.324  11.498  1.00  0.00     0.164 HD
ATOM     23  G   UNL     1       2.013   4.397  13.795  1.00  0.00     0.000 G0
ENDBRANCH  18  19
BRANCH  18  24
ATOM     24  C   UNL     1       2.566   0.406  11.358  1.00  0.00     0.038 C 
BRANCH  24  25
ATOM     25  C   UNL     1       2.608  -0.815  12.300  1.00  0.00    -0.015 C 
ATOM     26  C   UNL     1       1.371  -0.908  13.194  1.00  0.00     0.007 C 
ATOM     27  C   UNL     1       3.867  -0.751  13.169  1.00  0.00     0.007 C 
ENDBRANCH  24  25
ENDBRANCH  18  24
ENDBRANCH  15  18
ENDBRANCH  13  14
BRANCH  13  28
ATOM     28  C   UNL     1       3.930   4.476   8.312  1.00  0.00     0.327 C 
ATOM     29  O   UNL     1       2.772   4.629   8.671  1.00  0.00    -0.250 OA
BRANCH  28  30
ATOM     30  O   UNL     1       4.274   4.657   7.021  1.00  0.00    -0.480 OA
ATOM     31  H   UNL     1       3.459   4.440   6.522  1.00  0.00     0.296 HD
ENDBRANCH  28  30
ENDBRANCH  13  28
ENDBRANCH  11  13
ENDBRANCH   8  11
ENDBRANCH   6   7
BRANCH   6  32
ATOM     32  C   UNL     1       7.948   4.342   5.303  1.00  0.00     0.037 C 
BRANCH  32  33
ATOM     33  C   UNL     1       7.170   3.150   5.878  1.00  0.00     0.026 C 
BRANCH  33  34
ATOM     34  C   UNL     1       7.990   1.860   5.873  1.00  0.00     0.146 C 
BRANCH  34  35
ATOM     35  N   UNL     1       9.115   2.014   6.786  1.00  0.00    -0.254 NA
ATOM     36  C   UNL     1       8.942   1.742   8.026  1.00  0.00     0.185 C 
ATOM     37  N   UNL     1       9.972   1.875   8.875  1.00  0.00    -0.370 N 
ATOM     38  N   UNL     1       7.829   1.317   8.650  1.00  0.00    -0.370 N 
ATOM     39  H   UNL     1      10.851   2.182   8.477  1.00  0.00     0.159 HD
ATOM     40  H   UNL     1       9.967   1.520   9.816  1.00  0.00     0.159 HD
ATOM     41  H   UNL     1       7.780   1.271   9.655  1.00  0.00     0.159 HD
ATOM     42  H   UNL     1       6.971   1.188   8.137  1.00  0.00     0.159 HD
ENDBRANCH  34  35
ENDBRANCH  33  34
ENDBRANCH  32  33
ENDBRANCH   6  32
ENDBRANCH   4   6
ENDBRANCH   1   2
BRANCH   1  43
ATOM     43  C   UNL     1       5.298   8.765   4.441  1.00  0.00     0.102 C 
ATOM     44  C   UNL     1       5.085   8.870   5.960  1.00  0.00     0.020 C 
BRANCH  43  45
ATOM     45  C   UNL     1       4.208   7.971   3.714  1.00  0.00     0.225 C 
ATOM     46  O   UNL     1       3.878   6.834   4.038  1.00  0.00    -0.275 OA
ATOM     47  N   UNL     1       3.673   8.580   2.601  1.00  0.00    -0.342 N 
ATOM     48  H   UNL     1       3.841   9.563   2.440  1.00  0.00     0.164 HD
BRANCH  47  49
ATOM     49  C   UNL     1       2.597   7.953   1.828  1.00  0.00     0.192 C 
BRANCH  49  50
ATOM     50  C   UNL     1       2.663   8.430   0.375  1.00  0.00     0.047 C 
BRANCH  50  51
ATOM     51  C   UNL     1       2.938   7.279  -0.603  1.00  0.00     0.103 C 
BRANCH  51  52
ATOM     52  C   UNL     1       1.664   6.796  -1.293  1.00  0.00     0.226 C 
ATOM     53  O   UNL     1       0.867   6.087  -0.676  1.00  0.00    -0.275 OA
BRANCH  52  54
ATOM     54  N   UNL     1       1.443   7.268  -2.600  1.00  0.00    -0.311 N 
ATOM     55  C   UNL     1       2.443   8.098  -3.285  1.00  0.00     0.153 C 
BRANCH  54  56
ATOM     56  C   UNL     1       0.264   6.959  -3.300  1.00  0.00     0.102 C 
ATOM     57  C   UNL     1      -0.089   5.728  -3.705  1.00  0.00     0.043 C 
BRANCH  56  58
ATOM     58  C   UNL     1      -0.751   8.031  -3.620  1.00  0.00     0.268 C 
ATOM     59  O   UNL     1      -0.952   8.999  -2.899  1.00  0.00    -0.268 OA
ATOM     60  N   UNL     1      -1.374   7.841  -4.830  1.00  0.00    -0.339 N 
ATOM     61  H   UNL     1      -1.160   7.007  -5.363  1.00  0.00     0.164 HD
BRANCH  60  62
ATOM     62  C   UNL     1      -2.348   8.794  -5.363  1.00  0.00     0.168 CG0
ATOM     63  C   UNL     1      -3.771   8.364  -5.031  1.00  0.00     0.041 C 
ATOM     64  G   UNL     1      -2.159   8.927  -6.888  1.00  0.00     0.000 G0
ENDBRANCH  60  62
ENDBRANCH  56  58
ENDBRANCH  54  56
ENDBRANCH  52  54
ENDBRANCH  51  52
ENDBRANCH  50  51
ENDBRANCH  49  50
BRANCH  49  65
ATOM     65  C   UNL     1       1.214   8.286   2.410  1.00  0.00     0.326 C 
ATOM     66  O   UNL     1       0.211   7.596   2.296  1.00  0.00    -0.250 OA
BRANCH  65  67
ATOM     67  O   UNL     1       1.140   9.477   3.044  1.00  0.00    -0.480 OA
ATOM     68  H   UNL     1       1.799  10.031   2.572  1.00  0.00     0.296 HD
ENDBRANCH  65  67
ENDBRANCH  49  65
ENDBRANCH  47  49
ENDBRANCH  43  45
ENDBRANCH   1  43
BRANCH   1  69
ATOM     69  C   UNL     1       7.005   7.951   2.589  1.00  0.00    -0.001 C 
ATOM     70  C   UNL     1       7.508   6.813   2.078  1.00  0.00     0.001 C 
BRANCH  70  71
ATOM     71  C   UNL     1       7.764   6.521   0.666  1.00  0.00    -0.055 C 
ATOM     72  C   UNL     1       6.880   6.988  -0.242  1.00  0.00    -0.018 C 
ATOM     73  C   UNL     1       8.998   5.728   0.325  1.00  0.00     0.044 C 
BRANCH  72  74
ATOM     74  C   UNL     1       6.890   6.844  -1.757  1.00  0.00     0.038 C 
ATOM     75  C   UNL     1       6.312   8.140  -2.338  1.00  0.00     0.015 C 
BRANCH  74  76
ATOM     76  C   UNL     1       6.111   5.552  -2.142  1.00  0.00     0.128 C 
BRANCH  76  77
ATOM     77  O   UNL     1       4.987   5.886  -2.974  1.00  0.00    -0.381 OA
ATOM     78  C   UNL     1       5.170   5.549  -4.343  1.00  0.00     0.195 C 
ENDBRANCH  76  77
BRANCH  76  79
ATOM     79  C   UNL     1       7.000   4.440  -2.753  1.00  0.00     0.068 C 
BRANCH  79  80
ATOM     80  C   UNL     1       6.773   3.020  -2.294  1.00  0.00    -0.045 A 
ATOM     81  C   UNL     1       7.403   2.523  -1.145  1.00  0.00     0.004 A 
ATOM     82  C   UNL     1       5.942   2.163  -3.031  1.00  0.00     0.004 A 
ATOM     83  C   UNL     1       7.198   1.204  -0.735  1.00  0.00     0.000 A 
ATOM     84  C   UNL     1       5.739   0.844  -2.620  1.00  0.00     0.000 A 
ATOM     85  C   UNL     1       6.365   0.365  -1.471  1.00  0.00     0.000 A 
ENDBRANCH  79  80
ENDBRANCH  76  79
ENDBRANCH  74  76
ENDBRANCH  72  74
ENDBRANCH  70  71
ENDBRANCH   1  69
TORSDOF 17
ENDMDL
MODEL 12
REMARK VINA RESULT:    -6.519      3.083      3.752
REMARK INTER + INTRA:         -25.628
REMARK INTER:                 -19.665
REMARK INTRA:                  -5.964
REMARK UNBOUND:                -6.151
REMARK SMILES C=C1C(=O)N[C@H](C)C(=O)N[C@@H](CC(C)C)C(=O)N[C@@H](C(=O)O)[C@H](C)C(=O)N[C@@H](CCCN=C(N)N)C(=O)N[C@@H](/C=C/C(C)=C/[C@H](C)[C@H](Cc2ccccc2)OC)[C@H](C)C(=O)N[C@@H](C(=O)O)CCC(=O)N1C
REMARK SMILES IDX 39 1 38 2 37 3 36 4 28 6 27 7 25 8 26 9 23 11 24 12 19 13
REMARK SMILES IDX 18 14 16 15 17 16 11 18 10 19 8 20 9 21 12 24 13 25 14 26
REMARK SMILES IDX 15 27 20 28 21 29 22 30 29 32 30 33 31 34 32 35 33 36 34 37
REMARK SMILES IDX 35 38 57 43 58 44 59 45 60 46 61 47 62 49 66 50 67 51 68 52
REMARK SMILES IDX 69 53 70 54 71 55 2 56 1 57 3 58 4 59 5 60 6 62 7 63 63 65
REMARK SMILES IDX 64 66 65 67 40 69 41 70 42 71 44 72 43 73 45 74 46 75 47 76
REMARK SMILES IDX 55 77 56 78 48 79 49 80 50 81 54 82 51 83 53 84 52 85
REMARK H PARENT 38 5 27 10 18 17 10 22 22 31 34 39 34 40 35 41 35 42 61 48
REMARK H PARENT 5 61 65 68
REMARK Flexibility Score:  369.900
ROOT
ATOM      1  C   UNL     1       4.498   2.126  11.917  1.00  0.00     0.117 C 
ENDROOT
BRANCH   1   2
ATOM      2  N   UNL     1       5.874   1.936  11.458  1.00  0.00    -0.347 N 
ATOM      3  O   UNL     1       5.501   2.241   9.213  1.00  0.00    -0.273 OA
ATOM      4  C   UNL     1       6.282   2.100  10.148  1.00  0.00     0.243 C 
ATOM      5  H   UNL     1       6.594   1.720  12.130  1.00  0.00     0.164 HD
BRANCH   4   6
ATOM      6  C   UNL     1       7.809   1.924   9.944  1.00  0.00     0.171 C 
BRANCH   6   7
ATOM      7  N   UNL     1       8.398   1.191  11.076  1.00  0.00    -0.344 N 
ATOM      8  C   UNL     1       9.737   1.318  11.375  1.00  0.00     0.226 C 
ATOM      9  O   UNL     1      10.497   2.016  10.715  1.00  0.00    -0.275 OA
ATOM     10  H   UNL     1       7.815   0.552  11.603  1.00  0.00     0.164 HD
BRANCH   8  11
ATOM     11  C   UNL     1      10.180   0.542  12.603  1.00  0.00     0.109 C 
ATOM     12  C   UNL     1       8.961   0.018  13.362  1.00  0.00     0.021 C 
BRANCH  11  13
ATOM     13  C   UNL     1      11.204  -0.537  12.196  1.00  0.00     0.204 C 
BRANCH  13  14
ATOM     14  N   UNL     1      10.910  -1.108  10.878  1.00  0.00    -0.340 N 
ATOM     15  C   UNL     1      10.281  -2.323  10.712  1.00  0.00     0.243 C 
ATOM     16  O   UNL     1       9.868  -2.988  11.660  1.00  0.00    -0.273 OA
ATOM     17  H   UNL     1      11.357  -0.684  10.060  1.00  0.00     0.164 HD
BRANCH  15  18
ATOM     18  C   UNL     1      10.266  -2.815   9.244  1.00  0.00     0.171 C 
BRANCH  18  19
ATOM     19  N   UNL     1      10.018  -4.255   9.288  1.00  0.00    -0.343 N 
ATOM     20  C   UNL     1      10.797  -5.151   8.581  1.00  0.00     0.242 CG0
ATOM     21  O   UNL     1      11.647  -4.771   7.779  1.00  0.00    -0.273 OA
ATOM     22  H   UNL     1       9.251  -4.611   9.847  1.00  0.00     0.164 HD
ATOM     23  G   UNL     1      10.435  -6.632   8.814  1.00  0.00     0.000 G0
ENDBRANCH  18  19
BRANCH  18  24
ATOM     24  C   UNL     1       9.184  -2.084   8.439  1.00  0.00     0.038 C 
BRANCH  24  25
ATOM     25  C   UNL     1       9.646  -1.568   7.060  1.00  0.00    -0.015 C 
ATOM     26  C   UNL     1       9.461  -2.607   5.954  1.00  0.00     0.007 C 
ATOM     27  C   UNL     1      11.117  -1.150   7.133  1.00  0.00     0.007 C 
ENDBRANCH  24  25
ENDBRANCH  18  24
ENDBRANCH  15  18
ENDBRANCH  13  14
BRANCH  13  28
ATOM     28  C   UNL     1      12.644  -0.017  12.154  1.00  0.00     0.327 C 
ATOM     29  O   UNL     1      13.195   0.655  13.013  1.00  0.00    -0.250 OA
BRANCH  28  30
ATOM     30  O   UNL     1      13.264  -0.272  10.985  1.00  0.00    -0.480 OA
ATOM     31  H   UNL     1      12.849   0.349  10.351  1.00  0.00     0.296 HD
ENDBRANCH  28  30
ENDBRANCH  13  28
ENDBRANCH  11  13
ENDBRANCH   8  11
ENDBRANCH   6   7
BRANCH   6  32
ATOM     32  C   UNL     1       8.058   1.187   8.624  1.00  0.00     0.037 C 
BRANCH  32  33
ATOM     33  C   UNL     1       9.136   1.872   7.772  1.00  0.00     0.026 C 
BRANCH  33  34
ATOM     34  C   UNL     1       8.739   1.974   6.299  1.00  0.00     0.146 C 
BRANCH  34  35
ATOM     35  N   UNL     1       8.649   3.380   5.932  1.00  0.00    -0.254 NA
ATOM     36  C   UNL     1       7.515   3.968   6.023  1.00  0.00     0.185 C 
ATOM     37  N   UNL     1       7.421   5.265   5.693  1.00  0.00    -0.370 N 
ATOM     38  N   UNL     1       6.333   3.464   6.421  1.00  0.00    -0.370 N 
ATOM     39  H   UNL     1       8.274   5.719   5.392  1.00  0.00     0.159 HD
ATOM     40  H   UNL     1       6.619   5.835   5.900  1.00  0.00     0.159 HD
ATOM     41  H   UNL     1       5.481   3.991   6.316  1.00  0.00     0.159 HD
ATOM     42  H   UNL     1       6.251   2.495   6.684  1.00  0.00     0.159 HD
ENDBRANCH  34  35
ENDBRANCH  33  34
ENDBRANCH  32  33
ENDBRANCH   6  32
ENDBRANCH   4   6
ENDBRANCH   1   2
BRANCH   1  43
ATOM     43  C   UNL     1       4.398   3.508  12.624  1.00  0.00     0.102 C 
ATOM     44  C   UNL     1       3.002   3.801  13.201  1.00  0.00     0.020 C 
BRANCH  43  45
ATOM     45  C   UNL     1       4.948   4.624  11.730  1.00  0.00     0.225 C 
ATOM     46  O   UNL     1       5.906   5.324  12.045  1.00  0.00    -0.275 OA
ATOM     47  N   UNL     1       4.237   4.864  10.577  1.00  0.00    -0.342 N 
ATOM     48  H   UNL     1       3.553   4.190  10.261  1.00  0.00     0.164 HD
BRANCH  47  49
ATOM     49  C   UNL     1       4.666   5.877   9.609  1.00  0.00     0.192 C 
BRANCH  49  50
ATOM     50  C   UNL     1       3.860   7.162   9.817  1.00  0.00     0.047 C 
BRANCH  50  51
ATOM     51  C   UNL     1       4.760   8.386  10.033  1.00  0.00     0.103 C 
BRANCH  51  52
ATOM     52  C   UNL     1       5.321   8.925   8.719  1.00  0.00     0.226 C 
ATOM     53  O   UNL     1       6.506   8.735   8.438  1.00  0.00    -0.275 OA
BRANCH  52  54
ATOM     54  N   UNL     1       4.404   9.554   7.857  1.00  0.00    -0.311 N 
ATOM     55  C   UNL     1       4.134   9.017   6.516  1.00  0.00     0.153 C 
BRANCH  54  56
ATOM     56  C   UNL     1       3.709  10.711   8.246  1.00  0.00     0.102 C 
ATOM     57  C   UNL     1       4.238  11.945   8.295  1.00  0.00     0.043 C 
BRANCH  56  58
ATOM     58  C   UNL     1       2.243  10.651   8.608  1.00  0.00     0.268 C 
ATOM     59  O   UNL     1       1.787   9.858   9.420  1.00  0.00    -0.268 OA
ATOM     60  N   UNL     1       1.492  11.617   7.983  1.00  0.00    -0.339 N 
ATOM     61  H   UNL     1       1.945  12.230   7.315  1.00  0.00     0.164 HD
BRANCH  60  62
ATOM     62  C   UNL     1       0.061  11.778   8.238  1.00  0.00     0.168 CG0
ATOM     63  C   UNL     1      -0.766  10.976   7.241  1.00  0.00     0.041 C 
ATOM     64  G   UNL     1      -0.310  13.274   8.177  1.00  0.00     0.000 G0
ENDBRANCH  60  62
ENDBRANCH  56  58
ENDBRANCH  54  56
ENDBRANCH  52  54
ENDBRANCH  51  52
ENDBRANCH  50  51
ENDBRANCH  49  50
BRANCH  49  65
ATOM     65  C   UNL     1       4.486   5.392   8.162  1.00  0.00     0.326 C 
ATOM     66  O   UNL     1       4.852   5.990   7.161  1.00  0.00    -0.250 OA
BRANCH  65  67
ATOM     67  O   UNL     1       3.811   4.228   8.038  1.00  0.00    -0.480 OA
ATOM     68  H   UNL     1       2.923   4.436   8.400  1.00  0.00     0.296 HD
ENDBRANCH  65  67
ENDBRANCH  49  65
ENDBRANCH  47  49
ENDBRANCH  43  45
ENDBRANCH   1  43
BRANCH   1  69
ATOM     69  C   UNL     1       4.134   0.875  12.696  1.00  0.00    -0.001 C 
ATOM     70  C   UNL     1       3.028   0.123  12.564  1.00  0.00     0.001 C 
BRANCH  70  71
ATOM     71  C   UNL     1       2.698  -1.095  13.307  1.00  0.00    -0.055 C 
ATOM     72  C   UNL     1       2.716  -1.031  14.655  1.00  0.00    -0.018 C 
ATOM     73  C   UNL     1       2.354  -2.330  12.516  1.00  0.00     0.044 C 
BRANCH  72  74
ATOM     74  C   UNL     1       2.417  -2.121  15.675  1.00  0.00     0.038 C 
ATOM     75  C   UNL     1       3.298  -3.325  15.321  1.00  0.00     0.015 C 
BRANCH  74  76
ATOM     76  C   UNL     1       0.887  -2.407  15.669  1.00  0.00     0.128 C 
BRANCH  76  77
ATOM     77  O   UNL     1       0.195  -1.364  14.962  1.00  0.00    -0.381 OA
ATOM     78  C   UNL     1      -0.986  -1.805  14.306  1.00  0.00     0.195 C 
ENDBRANCH  76  77
BRANCH  76  79
ATOM     79  C   UNL     1       0.513  -3.824  15.163  1.00  0.00     0.068 C 
BRANCH  79  80
ATOM     80  C   UNL     1       0.672  -4.980  16.120  1.00  0.00    -0.045 A 
ATOM     81  C   UNL     1       0.732  -6.300  15.654  1.00  0.00     0.004 A 
ATOM     82  C   UNL     1       0.733  -4.751  17.503  1.00  0.00     0.004 A 
ATOM     83  C   UNL     1       0.865  -7.366  16.546  1.00  0.00     0.000 A 
ATOM     84  C   UNL     1       0.865  -5.818  18.395  1.00  0.00     0.000 A 
ATOM     85  C   UNL     1       0.932  -7.124  17.917  1.00  0.00     0.000 A 
ENDBRANCH  79  80
ENDBRANCH  76  79
ENDBRANCH  74  76
ENDBRANCH  72  74
ENDBRANCH  70  71
ENDBRANCH   1  69
TORSDOF 17
ENDMDL
MODEL 13
REMARK VINA RESULT:    -6.510      4.815     10.353
REMARK INTER + INTRA:         -25.601
REMARK INTER:                 -17.505
REMARK INTRA:                  -8.096
REMARK UNBOUND:                -6.151
REMARK SMILES C=C1C(=O)N[C@H](C)C(=O)N[C@@H](CC(C)C)C(=O)N[C@@H](C(=O)O)[C@H](C)C(=O)N[C@@H](CCCN=C(N)N)C(=O)N[C@@H](/C=C/C(C)=C/[C@H](C)[C@H](Cc2ccccc2)OC)[C@H](C)C(=O)N[C@@H](C(=O)O)CCC(=O)N1C
REMARK SMILES IDX 39 1 38 2 37 3 36 4 28 6 27 7 25 8 26 9 23 11 24 12 19 13
REMARK SMILES IDX 18 14 16 15 17 16 11 18 10 19 8 20 9 21 12 24 13 25 14 26
REMARK SMILES IDX 15 27 20 28 21 29 22 30 29 32 30 33 31 34 32 35 33 36 34 37
REMARK SMILES IDX 35 38 57 43 58 44 59 45 60 46 61 47 62 49 66 50 67 51 68 52
REMARK SMILES IDX 69 53 70 54 71 55 2 56 1 57 3 58 4 59 5 60 6 62 7 63 63 65
REMARK SMILES IDX 64 66 65 67 40 69 41 70 42 71 44 72 43 73 45 74 46 75 47 76
REMARK SMILES IDX 55 77 56 78 48 79 49 80 50 81 54 82 51 83 53 84 52 85
REMARK H PARENT 38 5 27 10 18 17 10 22 22 31 34 39 34 40 35 41 35 42 61 48
REMARK H PARENT 5 61 65 68
REMARK Flexibility Score:  369.900
ROOT
ATOM      1  C   UNL     1       3.070   1.603  13.580  1.00  0.00     0.117 C 
ENDROOT
BRANCH   1   2
ATOM      2  N   UNL     1       3.257   0.180  13.295  1.00  0.00    -0.347 N 
ATOM      3  O   UNL     1       1.518  -0.623  14.559  1.00  0.00    -0.273 OA
ATOM      4  C   UNL     1       2.407  -0.815  13.736  1.00  0.00     0.243 C 
ATOM      5  H   UNL     1       4.020  -0.109  12.701  1.00  0.00     0.164 HD
BRANCH   4   6
ATOM      6  C   UNL     1       2.782  -2.229  13.223  1.00  0.00     0.171 C 
BRANCH   6   7
ATOM      7  N   UNL     1       3.495  -2.982  14.267  1.00  0.00    -0.344 N 
ATOM      8  C   UNL     1       4.824  -2.730  14.532  1.00  0.00     0.226 C 
ATOM      9  O   UNL     1       5.475  -1.899  13.911  1.00  0.00    -0.275 OA
ATOM     10  H   UNL     1       3.009  -3.724  14.755  1.00  0.00     0.164 HD
BRANCH   8  11
ATOM     11  C   UNL     1       5.401  -3.551  15.672  1.00  0.00     0.109 C 
ATOM     12  C   UNL     1       6.639  -2.860  16.243  1.00  0.00     0.021 C 
BRANCH  11  13
ATOM     13  C   UNL     1       4.297  -3.859  16.703  1.00  0.00     0.204 C 
BRANCH  13  14
ATOM     14  N   UNL     1       4.417  -5.214  17.251  1.00  0.00    -0.340 N 
ATOM     15  C   UNL     1       3.783  -6.305  16.697  1.00  0.00     0.243 C 
ATOM     16  O   UNL     1       3.120  -6.228  15.664  1.00  0.00    -0.273 OA
ATOM     17  H   UNL     1       4.824  -5.320  18.185  1.00  0.00     0.164 HD
BRANCH  15  18
ATOM     18  C   UNL     1       3.885  -7.585  17.561  1.00  0.00     0.171 C 
BRANCH  18  19
ATOM     19  N   UNL     1       2.949  -8.551  16.991  1.00  0.00    -0.343 N 
ATOM     20  C   UNL     1       1.628  -8.609  17.392  1.00  0.00     0.242 CG0
ATOM     21  O   UNL     1       1.212  -7.944  18.338  1.00  0.00    -0.273 OA
ATOM     22  H   UNL     1       3.274  -9.202  16.286  1.00  0.00     0.164 HD
ATOM     23  G   UNL     1       0.774  -9.638  16.622  1.00  0.00     0.000 G0
ENDBRANCH  18  19
BRANCH  18  24
ATOM     24  C   UNL     1       5.320  -8.126  17.561  1.00  0.00     0.038 C 
BRANCH  24  25
ATOM     25  C   UNL     1       5.813  -8.643  16.193  1.00  0.00    -0.015 C 
ATOM     26  C   UNL     1       6.126 -10.140  16.211  1.00  0.00     0.007 C 
ATOM     27  C   UNL     1       7.059  -7.862  15.765  1.00  0.00     0.007 C 
ENDBRANCH  24  25
ENDBRANCH  18  24
ENDBRANCH  15  18
ENDBRANCH  13  14
BRANCH  13  28
ATOM     28  C   UNL     1       4.290  -2.889  17.888  1.00  0.00     0.327 C 
ATOM     29  O   UNL     1       3.870  -1.742  17.881  1.00  0.00    -0.250 OA
BRANCH  28  30
ATOM     30  O   UNL     1       4.918  -3.379  18.977  1.00  0.00    -0.480 OA
ATOM     31  H   UNL     1       5.616  -3.961  18.611  1.00  0.00     0.296 HD
ENDBRANCH  28  30
ENDBRANCH  13  28
ENDBRANCH  11  13
ENDBRANCH   8  11
ENDBRANCH   6   7
BRANCH   6  32
ATOM     32  C   UNL     1       1.507  -2.962  12.792  1.00  0.00     0.037 C 
BRANCH  32  33
ATOM     33  C   UNL     1       1.362  -4.325  13.484  1.00  0.00     0.026 C 
BRANCH  33  34
ATOM     34  C   UNL     1       0.181  -4.365  14.456  1.00  0.00     0.146 C 
BRANCH  34  35
ATOM     35  N   UNL     1       0.405  -3.381  15.507  1.00  0.00    -0.254 NA
ATOM     36  C   UNL     1       0.600  -3.794  16.703  1.00  0.00     0.185 C 
ATOM     37  N   UNL     1       0.812  -2.897  17.678  1.00  0.00    -0.370 N 
ATOM     38  N   UNL     1       0.631  -5.057  17.167  1.00  0.00    -0.370 N 
ATOM     39  H   UNL     1       0.815  -1.923  17.406  1.00  0.00     0.159 HD
ATOM     40  H   UNL     1       1.143  -3.141  18.596  1.00  0.00     0.159 HD
ATOM     41  H   UNL     1       0.655  -5.248  18.155  1.00  0.00     0.159 HD
ATOM     42  H   UNL     1       0.471  -5.835  16.546  1.00  0.00     0.159 HD
ENDBRANCH  34  35
ENDBRANCH  33  34
ENDBRANCH  32  33
ENDBRANCH   6  32
ENDBRANCH   4   6
ENDBRANCH   1   2
BRANCH   1  43
ATOM     43  C   UNL     1       2.854   2.353  12.234  1.00  0.00     0.102 C 
ATOM     44  C   UNL     1       2.560   1.415  11.051  1.00  0.00     0.020 C 
BRANCH  43  45
ATOM     45  C   UNL     1       3.988   3.349  11.971  1.00  0.00     0.225 C 
ATOM     46  O   UNL     1       4.018   4.475  12.458  1.00  0.00    -0.275 OA
ATOM     47  N   UNL     1       4.940   2.937  11.067  1.00  0.00    -0.342 N 
ATOM     48  H   UNL     1       4.984   1.965  10.795  1.00  0.00     0.164 HD
BRANCH  47  49
ATOM     49  C   UNL     1       6.102   3.770  10.744  1.00  0.00     0.192 C 
BRANCH  49  50
ATOM     50  C   UNL     1       5.809   4.597   9.489  1.00  0.00     0.047 C 
BRANCH  50  51
ATOM     51  C   UNL     1       5.512   6.067   9.817  1.00  0.00     0.103 C 
BRANCH  51  52
ATOM     52  C   UNL     1       4.364   6.621   8.975  1.00  0.00     0.226 C 
ATOM     53  O   UNL     1       3.249   6.101   9.046  1.00  0.00    -0.275 OA
BRANCH  52  54
ATOM     54  N   UNL     1       4.646   7.768   8.209  1.00  0.00    -0.311 N 
ATOM     55  C   UNL     1       4.842   9.075   8.849  1.00  0.00     0.153 C 
BRANCH  54  56
ATOM     56  C   UNL     1       4.756   7.705   6.810  1.00  0.00     0.102 C 
ATOM     57  C   UNL     1       4.238   8.605   5.958  1.00  0.00     0.043 C 
BRANCH  56  58
ATOM     58  C   UNL     1       5.535   6.597   6.142  1.00  0.00     0.268 C 
ATOM     59  O   UNL     1       5.012   5.728   5.458  1.00  0.00    -0.268 OA
ATOM     60  N   UNL     1       6.893   6.703   6.329  1.00  0.00    -0.339 N 
ATOM     61  H   UNL     1       7.247   7.447   6.919  1.00  0.00     0.164 HD
BRANCH  60  62
ATOM     62  C   UNL     1       7.839   5.771   5.717  1.00  0.00     0.168 CG0
ATOM     63  C   UNL     1       8.361   4.771   6.742  1.00  0.00     0.041 C 
ATOM     64  G   UNL     1       9.002   6.558   5.080  1.00  0.00     0.000 G0
ENDBRANCH  60  62
ENDBRANCH  56  58
ENDBRANCH  54  56
ENDBRANCH  52  54
ENDBRANCH  51  52
ENDBRANCH  50  51
ENDBRANCH  49  50
BRANCH  49  65
ATOM     65  C   UNL     1       7.362   2.922  10.512  1.00  0.00     0.326 C 
ATOM     66  O   UNL     1       8.427   3.335  10.077  1.00  0.00    -0.250 OA
BRANCH  65  67
ATOM     67  O   UNL     1       7.210   1.605  10.774  1.00  0.00    -0.480 OA
ATOM     68  H   UNL     1       7.933   1.182  10.261  1.00  0.00     0.296 HD
ENDBRANCH  65  67
ENDBRANCH  49  65
ENDBRANCH  47  49
ENDBRANCH  43  45
ENDBRANCH   1  43
BRANCH   1  69
ATOM     69  C   UNL     1       4.229   2.013  14.470  1.00  0.00    -0.001 C 
ATOM     70  C   UNL     1       4.655   1.403  15.590  1.00  0.00     0.001 C 
BRANCH  70  71
ATOM     71  C   UNL     1       5.789   1.796  16.429  1.00  0.00    -0.055 C 
ATOM     72  C   UNL     1       6.159   3.094  16.416  1.00  0.00    -0.018 C 
ATOM     73  C   UNL     1       6.456   0.726  17.254  1.00  0.00     0.044 C 
BRANCH  72  74
ATOM     74  C   UNL     1       7.282   3.782  17.178  1.00  0.00     0.038 C 
ATOM     75  C   UNL     1       6.639   4.869  18.047  1.00  0.00     0.015 C 
BRANCH  74  76
ATOM     76  C   UNL     1       8.336   4.302  16.156  1.00  0.00     0.128 C 
BRANCH  76  77
ATOM     77  O   UNL     1       9.648   3.846  16.528  1.00  0.00    -0.381 OA
ATOM     78  C   UNL     1       9.639   2.846  17.537  1.00  0.00     0.195 C 
ENDBRANCH  76  77
BRANCH  76  79
ATOM     79  C   UNL     1       7.989   3.987  14.679  1.00  0.00     0.068 C 
BRANCH  79  80
ATOM     80  C   UNL     1       8.873   3.015  13.936  1.00  0.00    -0.045 A 
ATOM     81  C   UNL     1       8.633   1.635  13.990  1.00  0.00     0.004 A 
ATOM     82  C   UNL     1       9.973   3.480  13.199  1.00  0.00     0.004 A 
ATOM     83  C   UNL     1       9.464   0.741  13.312  1.00  0.00     0.000 A 
ATOM     84  C   UNL     1      10.804   2.584  12.522  1.00  0.00     0.000 A 
ATOM     85  C   UNL     1      10.548   1.216  12.577  1.00  0.00     0.000 A 
ENDBRANCH  79  80
ENDBRANCH  76  79
ENDBRANCH  74  76
ENDBRANCH  72  74
ENDBRANCH  70  71
ENDBRANCH   1  69
TORSDOF 17
ENDMDL
MODEL 14
REMARK VINA RESULT:    -6.471      5.026     12.368
REMARK INTER + INTRA:         -25.484
REMARK INTER:                 -18.766
REMARK INTRA:                  -6.719
REMARK UNBOUND:                -6.151
REMARK SMILES C=C1C(=O)N[C@H](C)C(=O)N[C@@H](CC(C)C)C(=O)N[C@@H](C(=O)O)[C@H](C)C(=O)N[C@@H](CCCN=C(N)N)C(=O)N[C@@H](/C=C/C(C)=C/[C@H](C)[C@H](Cc2ccccc2)OC)[C@H](C)C(=O)N[C@@H](C(=O)O)CCC(=O)N1C
REMARK SMILES IDX 39 1 38 2 37 3 36 4 28 6 27 7 25 8 26 9 23 11 24 12 19 13
REMARK SMILES IDX 18 14 16 15 17 16 11 18 10 19 8 20 9 21 12 24 13 25 14 26
REMARK SMILES IDX 15 27 20 28 21 29 22 30 29 32 30 33 31 34 32 35 33 36 34 37
REMARK SMILES IDX 35 38 57 43 58 44 59 45 60 46 61 47 62 49 66 50 67 51 68 52
REMARK SMILES IDX 69 53 70 54 71 55 2 56 1 57 3 58 4 59 5 60 6 62 7 63 63 65
REMARK SMILES IDX 64 66 65 67 40 69 41 70 42 71 44 72 43 73 45 74 46 75 47 76
REMARK SMILES IDX 55 77 56 78 48 79 49 80 50 81 54 82 51 83 53 84 52 85
REMARK H PARENT 38 5 27 10 18 17 10 22 22 31 34 39 34 40 35 41 35 42 61 48
REMARK H PARENT 5 61 65 68
REMARK Flexibility Score:  369.900
ROOT
ATOM      1  C   UNL     1       5.471   7.359   7.966  1.00  0.00     0.117 C 
ENDROOT
BRANCH   1   2
ATOM      2  N   UNL     1       5.431   6.712   9.278  1.00  0.00    -0.347 N 
ATOM      3  O   UNL     1       3.343   5.776   9.103  1.00  0.00    -0.273 OA
ATOM      4  C   UNL     1       4.404   5.894   9.707  1.00  0.00     0.243 C 
ATOM      5  H   UNL     1       6.215   6.818   9.905  1.00  0.00     0.164 HD
BRANCH   4   6
ATOM      6  C   UNL     1       4.648   5.266  11.102  1.00  0.00     0.171 C 
BRANCH   6   7
ATOM      7  N   UNL     1       4.098   3.902  11.156  1.00  0.00    -0.344 N 
ATOM      8  C   UNL     1       3.357   3.486  12.241  1.00  0.00     0.226 C 
ATOM      9  O   UNL     1       3.142   4.206  13.209  1.00  0.00    -0.275 OA
ATOM     10  H   UNL     1       4.312   3.257  10.406  1.00  0.00     0.164 HD
BRANCH   8  11
ATOM     11  C   UNL     1       2.814   2.073  12.123  1.00  0.00     0.109 C 
ATOM     12  C   UNL     1       2.738   1.660  10.653  1.00  0.00     0.021 C 
BRANCH  11  13
ATOM     13  C   UNL     1       3.630   1.123  13.021  1.00  0.00     0.204 C 
BRANCH  13  14
ATOM     14  N   UNL     1       4.664   1.833  13.780  1.00  0.00    -0.340 N 
ATOM     15  C   UNL     1       5.979   1.423  13.820  1.00  0.00     0.243 C 
ATOM     16  O   UNL     1       6.391   0.464  13.170  1.00  0.00    -0.273 OA
ATOM     17  H   UNL     1       4.363   2.540  14.456  1.00  0.00     0.164 HD
BRANCH  15  18
ATOM     18  C   UNL     1       6.839   2.201  14.846  1.00  0.00     0.171 C 
BRANCH  18  19
ATOM     19  N   UNL     1       6.431   1.737  16.170  1.00  0.00    -0.343 N 
ATOM     20  C   UNL     1       5.469   2.398  16.909  1.00  0.00     0.242 CG0
ATOM     21  O   UNL     1       5.008   3.478  16.546  1.00  0.00    -0.273 OA
ATOM     22  H   UNL     1       6.868   0.912  16.565  1.00  0.00     0.164 HD
ATOM     23  G   UNL     1       5.114   1.717  18.247  1.00  0.00     0.000 G0
ENDBRANCH  18  19
BRANCH  18  24
ATOM     24  C   UNL     1       8.332   1.953  14.599  1.00  0.00     0.038 C 
BRANCH  24  25
ATOM     25  C   UNL     1       9.193   3.231  14.515  1.00  0.00    -0.015 C 
ATOM     26  C   UNL     1       8.363   4.506  14.670  1.00  0.00     0.007 C 
ATOM     27  C   UNL     1       9.940   3.262  13.179  1.00  0.00     0.007 C 
ENDBRANCH  24  25
ENDBRANCH  18  24
ENDBRANCH  15  18
ENDBRANCH  13  14
BRANCH  13  28
ATOM     28  C   UNL     1       2.769   0.359  14.032  1.00  0.00     0.327 C 
ATOM     29  O   UNL     1       3.126  -0.041  15.130  1.00  0.00    -0.250 OA
BRANCH  28  30
ATOM     30  O   UNL     1       1.549   0.042  13.554  1.00  0.00    -0.480 OA
ATOM     31  H   UNL     1       1.664   0.041  12.581  1.00  0.00     0.296 HD
ENDBRANCH  28  30
ENDBRANCH  13  28
ENDBRANCH  11  13
ENDBRANCH   8  11
ENDBRANCH   6   7
BRANCH   6  32
ATOM     32  C   UNL     1       6.153   5.261  11.396  1.00  0.00     0.037 C 
BRANCH  32  33
ATOM     33  C   UNL     1       6.749   3.847  11.340  1.00  0.00     0.026 C 
BRANCH  33  34
ATOM     34  C   UNL     1       7.513   3.585  10.041  1.00  0.00     0.146 C 
BRANCH  34  35
ATOM     35  N   UNL     1       6.557   3.472   8.948  1.00  0.00    -0.254 NA
ATOM     36  C   UNL     1       6.984   3.574   7.745  1.00  0.00     0.185 C 
ATOM     37  N   UNL     1       6.113   3.466   6.730  1.00  0.00    -0.370 N 
ATOM     38  N   UNL     1       8.239   3.784   7.309  1.00  0.00    -0.370 N 
ATOM     39  H   UNL     1       5.146   3.296   6.978  1.00  0.00     0.159 HD
ATOM     40  H   UNL     1       6.389   3.361   5.769  1.00  0.00     0.159 HD
ATOM     41  H   UNL     1       8.427   3.985   6.341  1.00  0.00     0.159 HD
ATOM     42  H   UNL     1       8.997   3.901   7.964  1.00  0.00     0.159 HD
ENDBRANCH  34  35
ENDBRANCH  33  34
ENDBRANCH  32  33
ENDBRANCH   6  32
ENDBRANCH   4   6
ENDBRANCH   1   2
BRANCH   1  43
ATOM     43  C   UNL     1       6.876   7.125   7.341  1.00  0.00     0.102 C 
ATOM     44  C   UNL     1       7.927   8.153   7.793  1.00  0.00     0.020 C 
BRANCH  43  45
ATOM     45  C   UNL     1       6.782   6.961   5.821  1.00  0.00     0.225 C 
ATOM     46  O   UNL     1       6.082   6.109   5.280  1.00  0.00    -0.275 OA
ATOM     47  N   UNL     1       7.612   7.774   5.085  1.00  0.00    -0.342 N 
ATOM     48  H   UNL     1       8.062   8.563   5.528  1.00  0.00     0.164 HD
BRANCH  47  49
ATOM     49  C   UNL     1       7.604   7.752   3.619  1.00  0.00     0.192 C 
BRANCH  49  50
ATOM     50  C   UNL     1       8.797   6.941   3.110  1.00  0.00     0.047 C 
BRANCH  50  51
ATOM     51  C   UNL     1       8.363   5.728   2.274  1.00  0.00     0.103 C 
BRANCH  51  52
ATOM     52  C   UNL     1       9.108   5.653   0.943  1.00  0.00     0.226 C 
ATOM     53  O   UNL     1      10.337   5.560   0.936  1.00  0.00    -0.275 OA
BRANCH  52  54
ATOM     54  N   UNL     1       8.314   5.618  -0.218  1.00  0.00    -0.311 N 
ATOM     55  C   UNL     1       7.549   6.797  -0.647  1.00  0.00     0.153 C 
BRANCH  54  56
ATOM     56  C   UNL     1       8.227   4.463  -1.012  1.00  0.00     0.102 C 
ATOM     57  C   UNL     1       7.613   3.325  -0.649  1.00  0.00     0.043 C 
BRANCH  56  58
ATOM     58  C   UNL     1       8.806   4.436  -2.407  1.00  0.00     0.268 C 
ATOM     59  O   UNL     1       9.863   4.976  -2.705  1.00  0.00    -0.268 OA
ATOM     60  N   UNL     1       8.060   3.689  -3.288  1.00  0.00    -0.339 N 
ATOM     61  H   UNL     1       7.190   3.282  -2.965  1.00  0.00     0.164 HD
BRANCH  60  62
ATOM     62  C   UNL     1       8.472   3.478  -4.675  1.00  0.00     0.168 CG0
ATOM     63  C   UNL     1       7.549   4.216  -5.637  1.00  0.00     0.041 C 
ATOM     64  G   UNL     1       8.490   1.968  -4.985  1.00  0.00     0.000 G0
ENDBRANCH  60  62
ENDBRANCH  56  58
ENDBRANCH  54  56
ENDBRANCH  52  54
ENDBRANCH  51  52
ENDBRANCH  50  51
ENDBRANCH  49  50
BRANCH  49  65
ATOM     65  C   UNL     1       7.664   9.171   3.030  1.00  0.00     0.326 C 
ATOM     66  O   UNL     1       7.815   9.444   1.848  1.00  0.00    -0.250 OA
BRANCH  65  67
ATOM     67  O   UNL     1       7.596  10.164   3.944  1.00  0.00    -0.480 OA
ATOM     68  H   UNL     1       7.306   9.706   4.762  1.00  0.00     0.296 HD
ENDBRANCH  65  67
ENDBRANCH  49  65
ENDBRANCH  47  49
ENDBRANCH  43  45
ENDBRANCH   1  43
BRANCH   1  69
ATOM     69  C   UNL     1       4.991   8.783   8.180  1.00  0.00    -0.001 C 
ATOM     70  C   UNL     1       4.200   9.509   7.371  1.00  0.00     0.001 C 
BRANCH  70  71
ATOM     71  C   UNL     1       3.727  10.876   7.599  1.00  0.00    -0.055 C 
ATOM     72  C   UNL     1       2.439  11.040   7.969  1.00  0.00    -0.018 C 
ATOM     73  C   UNL     1       4.711  12.000   7.411  1.00  0.00     0.044 C 
BRANCH  72  74
ATOM     74  C   UNL     1       1.681  12.324   8.274  1.00  0.00     0.038 C 
ATOM     75  C   UNL     1       1.997  12.703   9.726  1.00  0.00     0.015 C 
BRANCH  74  76
ATOM     76  C   UNL     1       0.170  12.097   7.971  1.00  0.00     0.128 C 
BRANCH  76  77
ATOM     77  O   UNL     1       0.013  11.009   7.045  1.00  0.00    -0.381 OA
ATOM     78  C   UNL     1      -0.727  11.353   5.881  1.00  0.00     0.195 C 
ENDBRANCH  76  77
BRANCH  76  79
ATOM     79  C   UNL     1      -0.708  11.938   9.238  1.00  0.00     0.068 C 
BRANCH  79  80
ATOM     80  C   UNL     1      -1.208  10.556   9.583  1.00  0.00    -0.045 A 
ATOM     81  C   UNL     1      -0.384   9.635  10.242  1.00  0.00     0.004 A 
ATOM     82  C   UNL     1      -2.505  10.163   9.221  1.00  0.00     0.004 A 
ATOM     83  C   UNL     1      -0.849   8.353  10.545  1.00  0.00     0.000 A 
ATOM     84  C   UNL     1      -2.969   8.881   9.524  1.00  0.00     0.000 A 
ATOM     85  C   UNL     1      -2.142   7.977  10.187  1.00  0.00     0.000 A 
ENDBRANCH  79  80
ENDBRANCH  76  79
ENDBRANCH  74  76
ENDBRANCH  72  74
ENDBRANCH  70  71
ENDBRANCH   1  69
TORSDOF 17
ENDMDL
MODEL 15
REMARK VINA RESULT:    -6.467      5.005     11.532
REMARK INTER + INTRA:         -25.473
REMARK INTER:                 -17.983
REMARK INTRA:                  -7.490
REMARK UNBOUND:                -6.151
REMARK SMILES C=C1C(=O)N[C@H](C)C(=O)N[C@@H](CC(C)C)C(=O)N[C@@H](C(=O)O)[C@H](C)C(=O)N[C@@H](CCCN=C(N)N)C(=O)N[C@@H](/C=C/C(C)=C/[C@H](C)[C@H](Cc2ccccc2)OC)[C@H](C)C(=O)N[C@@H](C(=O)O)CCC(=O)N1C
REMARK SMILES IDX 39 1 38 2 37 3 36 4 28 6 27 7 25 8 26 9 23 11 24 12 19 13
REMARK SMILES IDX 18 14 16 15 17 16 11 18 10 19 8 20 9 21 12 24 13 25 14 26
REMARK SMILES IDX 15 27 20 28 21 29 22 30 29 32 30 33 31 34 32 35 33 36 34 37
REMARK SMILES IDX 35 38 57 43 58 44 59 45 60 46 61 47 62 49 66 50 67 51 68 52
REMARK SMILES IDX 69 53 70 54 71 55 2 56 1 57 3 58 4 59 5 60 6 62 7 63 63 65
REMARK SMILES IDX 64 66 65 67 40 69 41 70 42 71 44 72 43 73 45 74 46 75 47 76
REMARK SMILES IDX 55 77 56 78 48 79 49 80 50 81 54 82 51 83 53 84 52 85
REMARK H PARENT 38 5 27 10 18 17 10 22 22 31 34 39 34 40 35 41 35 42 61 48
REMARK H PARENT 5 61 65 68
REMARK Flexibility Score:  369.900
ROOT
ATOM      1  C   UNL     1       6.041  -1.144  17.270  1.00  0.00     0.117 C 
ENDROOT
BRANCH   1   2
ATOM      2  N   UNL     1       5.294  -0.493  16.193  1.00  0.00    -0.347 N 
ATOM      3  O   UNL     1       4.989   1.542  17.210  1.00  0.00    -0.273 OA
ATOM      4  C   UNL     1       4.906   0.832  16.213  1.00  0.00     0.243 C 
ATOM      5  H   UNL     1       5.081  -1.012  15.355  1.00  0.00     0.164 HD
BRANCH   4   6
ATOM      6  C   UNL     1       4.203   1.296  14.912  1.00  0.00     0.171 C 
BRANCH   6   7
ATOM      7  N   UNL     1       5.198   1.610  13.874  1.00  0.00    -0.344 N 
ATOM      8  C   UNL     1       5.121   2.786  13.160  1.00  0.00     0.226 C 
ATOM      9  O   UNL     1       4.227   3.605  13.331  1.00  0.00    -0.275 OA
ATOM     10  H   UNL     1       5.913   0.927  13.657  1.00  0.00     0.164 HD
BRANCH   8  11
ATOM     11  C   UNL     1       6.251   2.989  12.165  1.00  0.00     0.109 C 
ATOM     12  C   UNL     1       7.283   1.870  12.307  1.00  0.00     0.021 C 
BRANCH  11  13
ATOM     13  C   UNL     1       5.672   3.160  10.746  1.00  0.00     0.204 C 
BRANCH  13  14
ATOM     14  N   UNL     1       5.944   4.491  10.196  1.00  0.00    -0.340 N 
ATOM     15  C   UNL     1       4.990   5.242   9.545  1.00  0.00     0.243 C 
ATOM     16  O   UNL     1       3.822   4.872   9.433  1.00  0.00    -0.273 OA
ATOM     17  H   UNL     1       6.921   4.790  10.122  1.00  0.00     0.164 HD
BRANCH  15  18
ATOM     18  C   UNL     1       5.558   6.515   8.871  1.00  0.00     0.171 C 
BRANCH  18  19
ATOM     19  N   UNL     1       5.584   7.556   9.897  1.00  0.00    -0.343 N 
ATOM     20  C   UNL     1       4.487   8.358  10.150  1.00  0.00     0.242 CG0
ATOM     21  O   UNL     1       3.487   8.323   9.437  1.00  0.00    -0.273 OA
ATOM     22  H   UNL     1       6.430   7.701  10.436  1.00  0.00     0.164 HD
ATOM     23  G   UNL     1       4.677   9.344  11.320  1.00  0.00     0.000 G0
ENDBRANCH  18  19
BRANCH  18  24
ATOM     24  C   UNL     1       6.958   6.249   8.304  1.00  0.00     0.038 C 
BRANCH  24  25
ATOM     25  C   UNL     1       7.003   6.023   6.778  1.00  0.00    -0.015 C 
ATOM     26  C   UNL     1       7.132   4.545   6.410  1.00  0.00     0.007 C 
ATOM     27  C   UNL     1       8.171   6.808   6.176  1.00  0.00     0.007 C 
ENDBRANCH  24  25
ENDBRANCH  18  24
ENDBRANCH  15  18
ENDBRANCH  13  14
BRANCH  13  28
ATOM     28  C   UNL     1       6.214   2.136   9.745  1.00  0.00     0.327 C 
ATOM     29  O   UNL     1       7.298   2.177   9.184  1.00  0.00    -0.250 OA
BRANCH  28  30
ATOM     30  O   UNL     1       5.313   1.186   9.421  1.00  0.00    -0.480 OA
ATOM     31  H   UNL     1       5.278   1.211   8.442  1.00  0.00     0.296 HD
ENDBRANCH  28  30
ENDBRANCH  13  28
ENDBRANCH  11  13
ENDBRANCH   8  11
ENDBRANCH   6   7
BRANCH   6  32
ATOM     32  C   UNL     1       3.246   0.197  14.438  1.00  0.00     0.037 C 
BRANCH  32  33
ATOM     33  C   UNL     1       3.751  -0.503  13.168  1.00  0.00     0.026 C 
BRANCH  33  34
ATOM     34  C   UNL     1       2.659  -0.648  12.107  1.00  0.00     0.146 C 
BRANCH  34  35
ATOM     35  N   UNL     1       2.876   0.351  11.069  1.00  0.00    -0.254 NA
ATOM     36  C   UNL     1       2.364   1.515  11.220  1.00  0.00     0.185 C 
ATOM     37  N   UNL     1       2.563   2.445  10.272  1.00  0.00    -0.370 N 
ATOM     38  N   UNL     1       1.617   1.984  12.235  1.00  0.00    -0.370 N 
ATOM     39  H   UNL     1       3.127   2.170   9.478  1.00  0.00     0.159 HD
ATOM     40  H   UNL     1       2.346   3.419  10.395  1.00  0.00     0.159 HD
ATOM     41  H   UNL     1       1.155   2.877  12.172  1.00  0.00     0.159 HD
ATOM     42  H   UNL     1       1.374   1.389  13.011  1.00  0.00     0.159 HD
ENDBRANCH  34  35
ENDBRANCH  33  34
ENDBRANCH  32  33
ENDBRANCH   6  32
ENDBRANCH   4   6
ENDBRANCH   1   2
BRANCH   1  43
ATOM     43  C   UNL     1       7.435  -1.566  16.721  1.00  0.00     0.102 C 
ATOM     44  C   UNL     1       7.958  -0.643  15.607  1.00  0.00     0.020 C 
BRANCH  43  45
ATOM     45  C   UNL     1       7.456  -3.053  16.357  1.00  0.00     0.225 C 
ATOM     46  O   UNL     1       8.067  -3.895  17.009  1.00  0.00    -0.275 OA
ATOM     47  N   UNL     1       6.816  -3.385  15.184  1.00  0.00    -0.342 N 
ATOM     48  H   UNL     1       6.197  -2.718  14.746  1.00  0.00     0.164 HD
BRANCH  47  49
ATOM     49  C   UNL     1       6.725  -4.776  14.729  1.00  0.00     0.192 C 
BRANCH  49  50
ATOM     50  C   UNL     1       7.719  -5.010  13.589  1.00  0.00     0.047 C 
BRANCH  50  51
ATOM     51  C   UNL     1       8.941  -5.822  14.040  1.00  0.00     0.103 C 
BRANCH  51  52
ATOM     52  C   UNL     1       8.782  -7.311  13.740  1.00  0.00     0.226 C 
ATOM     53  O   UNL     1       7.968  -7.980  14.380  1.00  0.00    -0.275 OA
BRANCH  52  54
ATOM     54  N   UNL     1       9.544  -7.819  12.671  1.00  0.00    -0.311 N 
ATOM     55  C   UNL     1      11.011  -7.748  12.687  1.00  0.00     0.153 C 
BRANCH  54  56
ATOM     56  C   UNL     1       8.934  -8.417  11.556  1.00  0.00     0.102 C 
ATOM     57  C   UNL     1       8.355  -7.747  10.545  1.00  0.00     0.043 C 
BRANCH  56  58
ATOM     58  C   UNL     1       8.926  -9.918  11.388  1.00  0.00     0.268 C 
ATOM     59  O   UNL     1       9.857 -10.542  10.898  1.00  0.00    -0.268 OA
ATOM     60  N   UNL     1       7.798 -10.513  11.900  1.00  0.00    -0.339 N 
ATOM     61  H   UNL     1       7.066  -9.924  12.280  1.00  0.00     0.164 HD
BRANCH  60  62
ATOM     62  C   UNL     1       7.613 -11.963  11.899  1.00  0.00     0.168 CG0
ATOM     63  C   UNL     1       7.012 -12.437  10.581  1.00  0.00     0.041 C 
ATOM     64  G   UNL     1       6.716 -12.371  13.086  1.00  0.00     0.000 G0
ENDBRANCH  60  62
ENDBRANCH  56  58
ENDBRANCH  54  56
ENDBRANCH  52  54
ENDBRANCH  51  52
ENDBRANCH  50  51
ENDBRANCH  49  50
BRANCH  49  65
ATOM     65  C   UNL     1       5.307  -5.122  14.246  1.00  0.00     0.326 C 
ATOM     66  O   UNL     1       4.882  -6.250  14.041  1.00  0.00    -0.250 OA
BRANCH  65  67
ATOM     67  O   UNL     1       4.522  -4.053  13.989  1.00  0.00    -0.480 OA
ATOM     68  H   UNL     1       4.257  -3.741  14.881  1.00  0.00     0.296 HD
ENDBRANCH  65  67
ENDBRANCH  49  65
ENDBRANCH  47  49
ENDBRANCH  43  45
ENDBRANCH   1  43
BRANCH   1  69
ATOM     69  C   UNL     1       5.123  -2.212  17.837  1.00  0.00    -0.001 C 
ATOM     70  C   UNL     1       3.965  -2.655  17.317  1.00  0.00     0.001 C 
BRANCH  70  71
ATOM     71  C   UNL     1       3.099  -3.701  17.863  1.00  0.00    -0.055 C 
ATOM     72  C   UNL     1       3.417  -4.985  17.592  1.00  0.00    -0.018 C 
ATOM     73  C   UNL     1       1.919  -3.272  18.695  1.00  0.00     0.044 C 
BRANCH  72  74
ATOM     74  C   UNL     1       2.711  -6.263  18.022  1.00  0.00     0.038 C 
ATOM     75  C   UNL     1       3.597  -6.936  19.077  1.00  0.00     0.015 C 
BRANCH  74  76
ATOM     76  C   UNL     1       2.429  -7.129  16.758  1.00  0.00     0.128 C 
BRANCH  76  77
ATOM     77  O   UNL     1       2.742  -8.506  17.027  1.00  0.00    -0.381 OA
ATOM     78  C   UNL     1       1.614  -9.285  17.401  1.00  0.00     0.195 C 
ENDBRANCH  76  77
BRANCH  76  79
ATOM     79  C   UNL     1       1.008  -6.940  16.171  1.00  0.00     0.068 C 
BRANCH  79  80
ATOM     80  C   UNL     1       0.682  -5.618  15.519  1.00  0.00    -0.045 A 
ATOM     81  C   UNL     1       1.261  -5.254  14.296  1.00  0.00     0.004 A 
ATOM     82  C   UNL     1      -0.191  -4.716  16.146  1.00  0.00     0.004 A 
ATOM     83  C   UNL     1       0.965  -4.024  13.706  1.00  0.00     0.000 A 
ATOM     84  C   UNL     1      -0.485  -3.485  15.556  1.00  0.00     0.000 A 
ATOM     85  C   UNL     1       0.091  -3.140  14.336  1.00  0.00     0.000 A 
ENDBRANCH  79  80
ENDBRANCH  76  79
ENDBRANCH  74  76
ENDBRANCH  72  74
ENDBRANCH  70  71
ENDBRANCH   1  69
TORSDOF 17
ENDMDL
MODEL 16
REMARK VINA RESULT:    -6.462      4.506      9.662
REMARK INTER + INTRA:         -25.456
REMARK INTER:                 -19.142
REMARK INTRA:                  -6.313
REMARK UNBOUND:                -6.151
REMARK SMILES C=C1C(=O)N[C@H](C)C(=O)N[C@@H](CC(C)C)C(=O)N[C@@H](C(=O)O)[C@H](C)C(=O)N[C@@H](CCCN=C(N)N)C(=O)N[C@@H](/C=C/C(C)=C/[C@H](C)[C@H](Cc2ccccc2)OC)[C@H](C)C(=O)N[C@@H](C(=O)O)CCC(=O)N1C
REMARK SMILES IDX 39 1 38 2 37 3 36 4 28 6 27 7 25 8 26 9 23 11 24 12 19 13
REMARK SMILES IDX 18 14 16 15 17 16 11 18 10 19 8 20 9 21 12 24 13 25 14 26
REMARK SMILES IDX 15 27 20 28 21 29 22 30 29 32 30 33 31 34 32 35 33 36 34 37
REMARK SMILES IDX 35 38 57 43 58 44 59 45 60 46 61 47 62 49 66 50 67 51 68 52
REMARK SMILES IDX 69 53 70 54 71 55 2 56 1 57 3 58 4 59 5 60 6 62 7 63 63 65
REMARK SMILES IDX 64 66 65 67 40 69 41 70 42 71 44 72 43 73 45 74 46 75 47 76
REMARK SMILES IDX 55 77 56 78 48 79 49 80 50 81 54 82 51 83 53 84 52 85
REMARK H PARENT 38 5 27 10 18 17 10 22 22 31 34 39 34 40 35 41 35 42 61 48
REMARK H PARENT 5 61 65 68
REMARK Flexibility Score:  369.900
ROOT
ATOM      1  C   UNL     1       7.461   2.343  11.263  1.00  0.00     0.117 C 
ENDROOT
BRANCH   1   2
ATOM      2  N   UNL     1       7.373   3.307  10.165  1.00  0.00    -0.347 N 
ATOM      3  O   UNL     1       5.155   3.002   9.659  1.00  0.00    -0.273 OA
ATOM      4  C   UNL     1       6.200   3.626   9.509  1.00  0.00     0.243 C 
ATOM      5  H   UNL     1       8.198   3.816   9.887  1.00  0.00     0.164 HD
BRANCH   4   6
ATOM      6  C   UNL     1       6.364   4.740   8.444  1.00  0.00     0.171 C 
BRANCH   6   7
ATOM      7  N   UNL     1       6.030   6.053   9.018  1.00  0.00    -0.344 N 
ATOM      8  C   UNL     1       4.789   6.615   8.811  1.00  0.00     0.226 C 
ATOM      9  O   UNL     1       3.923   6.073   8.134  1.00  0.00    -0.275 OA
ATOM     10  H   UNL     1       6.742   6.562   9.526  1.00  0.00     0.164 HD
BRANCH   8  11
ATOM     11  C   UNL     1       4.580   7.946   9.513  1.00  0.00     0.109 C 
ATOM     12  C   UNL     1       5.364   7.978  10.824  1.00  0.00     0.021 C 
BRANCH  11  13
ATOM     13  C   UNL     1       4.893   9.102   8.542  1.00  0.00     0.204 C 
BRANCH  13  14
ATOM     14  N   UNL     1       5.132   8.626   7.176  1.00  0.00    -0.340 N 
ATOM     15  C   UNL     1       6.277   8.925   6.469  1.00  0.00     0.243 C 
ATOM     16  O   UNL     1       7.207   9.563   6.958  1.00  0.00    -0.273 OA
ATOM     17  H   UNL     1       4.343   8.224   6.662  1.00  0.00     0.164 HD
BRANCH  15  18
ATOM     18  C   UNL     1       6.217   8.493   4.983  1.00  0.00     0.171 C 
BRANCH  18  19
ATOM     19  N   UNL     1       5.682   9.630   4.237  1.00  0.00    -0.343 N 
ATOM     20  C   UNL     1       4.324   9.826   4.082  1.00  0.00     0.242 CG0
ATOM     21  O   UNL     1       3.506   8.984   4.447  1.00  0.00    -0.273 OA
ATOM     22  H   UNL     1       6.322  10.294   3.816  1.00  0.00     0.164 HD
ATOM     23  G   UNL     1       3.949  11.121   3.333  1.00  0.00     0.000 G0
ENDBRANCH  18  19
BRANCH  18  24
ATOM     24  C   UNL     1       7.609   8.094   4.479  1.00  0.00     0.038 C 
BRANCH  24  25
ATOM     25  C   UNL     1       7.614   7.322   3.142  1.00  0.00    -0.015 C 
ATOM     26  C   UNL     1       8.363   5.993   3.237  1.00  0.00     0.007 C 
ATOM     27  C   UNL     1       8.242   8.190   2.049  1.00  0.00     0.007 C 
ENDBRANCH  24  25
ENDBRANCH  18  24
ENDBRANCH  15  18
ENDBRANCH  13  14
BRANCH  13  28
ATOM     28  C   UNL     1       3.775  10.147   8.468  1.00  0.00     0.327 C 
ATOM     29  O   UNL     1       2.575   9.923   8.456  1.00  0.00    -0.250 OA
BRANCH  28  30
ATOM     30  O   UNL     1       4.237  11.403   8.295  1.00  0.00    -0.480 OA
ATOM     31  H   UNL     1       3.427  11.952   8.246  1.00  0.00     0.296 HD
ENDBRANCH  28  30
ENDBRANCH  13  28
ENDBRANCH  11  13
ENDBRANCH   8  11
ENDBRANCH   6   7
BRANCH   6  32
ATOM     32  C   UNL     1       7.804   4.723   7.917  1.00  0.00     0.037 C 
BRANCH  32  33
ATOM     33  C   UNL     1       7.916   4.009   6.562  1.00  0.00     0.026 C 
BRANCH  33  34
ATOM     34  C   UNL     1       8.153   2.506   6.711  1.00  0.00     0.146 C 
BRANCH  34  35
ATOM     35  N   UNL     1       9.518   2.289   7.168  1.00  0.00    -0.254 NA
ATOM     36  C   UNL     1       9.864   1.110   7.533  1.00  0.00     0.185 C 
ATOM     37  N   UNL     1      11.121   0.898   7.951  1.00  0.00    -0.370 N 
ATOM     38  N   UNL     1       9.127  -0.014   7.564  1.00  0.00    -0.370 N 
ATOM     39  H   UNL     1      11.743   1.697   7.946  1.00  0.00     0.159 HD
ATOM     40  H   UNL     1      11.515  -0.018   8.085  1.00  0.00     0.159 HD
ATOM     41  H   UNL     1       9.473  -0.852   8.004  1.00  0.00     0.159 HD
ATOM     42  H   UNL     1       8.157   0.001   7.292  1.00  0.00     0.159 HD
ENDBRANCH  34  35
ENDBRANCH  33  34
ENDBRANCH  32  33
ENDBRANCH   6  32
ENDBRANCH   4   6
ENDBRANCH   1   2
BRANCH   1  43
ATOM     43  C   UNL     1       7.151   3.081  12.596  1.00  0.00     0.102 C 
ATOM     44  C   UNL     1       8.288   2.985  13.628  1.00  0.00     0.020 C 
BRANCH  43  45
ATOM     45  C   UNL     1       5.779   2.676  13.144  1.00  0.00     0.225 C 
ATOM     46  O   UNL     1       5.326   3.103  14.201  1.00  0.00    -0.275 OA
ATOM     47  N   UNL     1       5.112   1.716  12.417  1.00  0.00    -0.342 N 
ATOM     48  H   UNL     1       5.423   1.490  11.483  1.00  0.00     0.164 HD
BRANCH  47  49
ATOM     49  C   UNL     1       3.774   1.257  12.802  1.00  0.00     0.192 C 
BRANCH  49  50
ATOM     50  C   UNL     1       3.489  -0.099  12.152  1.00  0.00     0.047 C 
BRANCH  50  51
ATOM     51  C   UNL     1       2.057  -0.584  12.419  1.00  0.00     0.103 C 
BRANCH  51  52
ATOM     52  C   UNL     1       2.032  -1.882  13.223  1.00  0.00     0.226 C 
ATOM     53  O   UNL     1       2.360  -2.941  12.683  1.00  0.00    -0.275 OA
BRANCH  52  54
ATOM     54  N   UNL     1       1.698  -1.770  14.585  1.00  0.00    -0.311 N 
ATOM     55  C   UNL     1       2.619  -1.139  15.540  1.00  0.00     0.153 C 
BRANCH  54  56
ATOM     56  C   UNL     1       0.474  -2.248  15.081  1.00  0.00     0.102 C 
ATOM     57  C   UNL     1      -0.734  -1.772  14.736  1.00  0.00     0.043 C 
BRANCH  56  58
ATOM     58  C   UNL     1       0.429  -3.411  16.044  1.00  0.00     0.268 C 
ATOM     59  O   UNL     1       0.488  -3.277  17.259  1.00  0.00    -0.268 OA
ATOM     60  N   UNL     1       0.249  -4.623  15.420  1.00  0.00    -0.339 N 
ATOM     61  H   UNL     1       0.221  -4.650  14.408  1.00  0.00     0.164 HD
BRANCH  60  62
ATOM     62  C   UNL     1       0.116  -5.872  16.168  1.00  0.00     0.168 CG0
ATOM     63  C   UNL     1       1.255  -6.829  15.842  1.00  0.00     0.041 C 
ATOM     64  G   UNL     1      -1.248  -6.520  15.853  1.00  0.00     0.000 G0
ENDBRANCH  60  62
ENDBRANCH  56  58
ENDBRANCH  54  56
ENDBRANCH  52  54
ENDBRANCH  51  52
ENDBRANCH  50  51
ENDBRANCH  49  50
BRANCH  49  65
ATOM     65  C   UNL     1       2.688   2.260  12.382  1.00  0.00     0.326 C 
ATOM     66  O   UNL     1       1.988   2.910  13.145  1.00  0.00    -0.250 OA
BRANCH  65  67
ATOM     67  O   UNL     1       2.492   2.354  11.048  1.00  0.00    -0.480 OA
ATOM     68  H   UNL     1       2.972   3.173  10.801  1.00  0.00     0.296 HD
ENDBRANCH  65  67
ENDBRANCH  49  65
ENDBRANCH  47  49
ENDBRANCH  43  45
ENDBRANCH   1  43
BRANCH   1  69
ATOM     69  C   UNL     1       8.799   1.643  11.106  1.00  0.00    -0.001 C 
ATOM     70  C   UNL     1       9.068   0.341  11.305  1.00  0.00     0.001 C 
BRANCH  70  71
ATOM     71  C   UNL     1      10.359  -0.327  11.129  1.00  0.00    -0.055 C 
ATOM     72  C   UNL     1      10.359  -1.557  10.573  1.00  0.00    -0.018 C 
ATOM     73  C   UNL     1      11.597   0.408  11.575  1.00  0.00     0.044 C 
BRANCH  72  74
ATOM     74  C   UNL     1      11.533  -2.476  10.268  1.00  0.00     0.038 C 
ATOM     75  C   UNL     1      11.675  -2.540   8.743  1.00  0.00     0.015 C 
BRANCH  74  76
ATOM     76  C   UNL     1      11.286  -3.850  10.959  1.00  0.00     0.128 C 
BRANCH  76  77
ATOM     77  O   UNL     1      12.406  -4.188  11.795  1.00  0.00    -0.381 OA
ATOM     78  C   UNL     1      13.101  -3.057  12.304  1.00  0.00     0.195 C 
ENDBRANCH  76  77
BRANCH  76  79
ATOM     79  C   UNL     1       9.931  -3.944  11.706  1.00  0.00     0.068 C 
BRANCH  79  80
ATOM     80  C   UNL     1       9.057  -5.144  11.435  1.00  0.00    -0.045 A 
ATOM     81  C   UNL     1       8.308  -5.738  12.459  1.00  0.00     0.004 A 
ATOM     82  C   UNL     1       9.002  -5.703  10.149  1.00  0.00     0.004 A 
ATOM     83  C   UNL     1       7.512  -6.856  12.203  1.00  0.00     0.000 A 
ATOM     84  C   UNL     1       8.206  -6.822   9.894  1.00  0.00     0.000 A 
ATOM     85  C   UNL     1       7.460  -7.397  10.921  1.00  0.00     0.000 A 
ENDBRANCH  79  80
ENDBRANCH  76  79
ENDBRANCH  74  76
ENDBRANCH  72  74
ENDBRANCH  70  71
ENDBRANCH   1  69
TORSDOF 17
ENDMDL
MODEL 17
REMARK VINA RESULT:    -6.458      7.712     14.994
REMARK INTER + INTRA:         -25.446
REMARK INTER:                 -18.884
REMARK INTRA:                  -6.562
REMARK UNBOUND:                -6.151
REMARK SMILES C=C1C(=O)N[C@H](C)C(=O)N[C@@H](CC(C)C)C(=O)N[C@@H](C(=O)O)[C@H](C)C(=O)N[C@@H](CCCN=C(N)N)C(=O)N[C@@H](/C=C/C(C)=C/[C@H](C)[C@H](Cc2ccccc2)OC)[C@H](C)C(=O)N[C@@H](C(=O)O)CCC(=O)N1C
REMARK SMILES IDX 39 1 38 2 37 3 36 4 28 6 27 7 25 8 26 9 23 11 24 12 19 13
REMARK SMILES IDX 18 14 16 15 17 16 11 18 10 19 8 20 9 21 12 24 13 25 14 26
REMARK SMILES IDX 15 27 20 28 21 29 22 30 29 32 30 33 31 34 32 35 33 36 34 37
REMARK SMILES IDX 35 38 57 43 58 44 59 45 60 46 61 47 62 49 66 50 67 51 68 52
REMARK SMILES IDX 69 53 70 54 71 55 2 56 1 57 3 58 4 59 5 60 6 62 7 63 63 65
REMARK SMILES IDX 64 66 65 67 40 69 41 70 42 71 44 72 43 73 45 74 46 75 47 76
REMARK SMILES IDX 55 77 56 78 48 79 49 80 50 81 54 82 51 83 53 84 52 85
REMARK H PARENT 38 5 27 10 18 17 10 22 22 31 34 39 34 40 35 41 35 42 61 48
REMARK H PARENT 5 61 65 68
REMARK Flexibility Score:  369.900
ROOT
ATOM      1  C   UNL     1       7.341   8.370   2.511  1.00  0.00     0.117 C 
ENDROOT
BRANCH   1   2
ATOM      2  N   UNL     1       7.333   7.976   3.920  1.00  0.00    -0.347 N 
ATOM      3  O   UNL     1       8.450   5.984   3.693  1.00  0.00    -0.273 OA
ATOM      4  C   UNL     1       7.971   6.854   4.412  1.00  0.00     0.243 C 
ATOM      5  H   UNL     1       6.882   8.572   4.598  1.00  0.00     0.164 HD
BRANCH   4   6
ATOM      6  C   UNL     1       7.882   6.712   5.953  1.00  0.00     0.171 C 
BRANCH   6   7
ATOM      7  N   UNL     1       6.562   7.150   6.435  1.00  0.00    -0.344 N 
ATOM      8  C   UNL     1       6.394   7.573   7.735  1.00  0.00     0.226 C 
ATOM      9  O   UNL     1       7.309   7.586   8.549  1.00  0.00    -0.275 OA
ATOM     10  H   UNL     1       5.768   7.089   5.811  1.00  0.00     0.164 HD
BRANCH   8  11
ATOM     11  C   UNL     1       4.987   8.043   8.063  1.00  0.00     0.109 C 
ATOM     12  C   UNL     1       4.268   8.479   6.786  1.00  0.00     0.021 C 
BRANCH  11  13
ATOM     13  C   UNL     1       4.254   6.964   8.884  1.00  0.00     0.204 C 
BRANCH  13  14
ATOM     14  N   UNL     1       5.111   5.807   9.164  1.00  0.00    -0.340 N 
ATOM     15  C   UNL     1       4.646   4.510   9.146  1.00  0.00     0.243 C 
ATOM     16  O   UNL     1       3.491   4.227   8.833  1.00  0.00    -0.273 OA
ATOM     17  H   UNL     1       6.032   5.980   9.575  1.00  0.00     0.164 HD
BRANCH  15  18
ATOM     18  C   UNL     1       5.673   3.478   9.674  1.00  0.00     0.171 C 
BRANCH  18  19
ATOM     19  N   UNL     1       6.262   4.054  10.882  1.00  0.00    -0.343 N 
ATOM     20  C   UNL     1       7.495   3.650  11.355  1.00  0.00     0.242 CG0
ATOM     21  O   UNL     1       8.093   2.697  10.861  1.00  0.00    -0.273 OA
ATOM     22  H   UNL     1       5.752   4.766  11.393  1.00  0.00     0.164 HD
ATOM     23  G   UNL     1       7.987   4.425  12.594  1.00  0.00     0.000 G0
ENDBRANCH  18  19
BRANCH  18  24
ATOM     24  C   UNL     1       4.990   2.136   9.967  1.00  0.00     0.038 C 
BRANCH  24  25
ATOM     25  C   UNL     1       4.113   2.123  11.237  1.00  0.00    -0.015 C 
ATOM     26  C   UNL     1       4.748   1.330  12.379  1.00  0.00     0.007 C 
ATOM     27  C   UNL     1       2.737   1.539  10.906  1.00  0.00     0.007 C 
ENDBRANCH  24  25
ENDBRANCH  18  24
ENDBRANCH  15  18
ENDBRANCH  13  14
BRANCH  13  28
ATOM     28  C   UNL     1       3.733   7.479  10.229  1.00  0.00     0.327 C 
ATOM     29  O   UNL     1       2.561   7.613  10.546  1.00  0.00    -0.250 OA
BRANCH  28  30
ATOM     30  O   UNL     1       4.715   7.906  11.048  1.00  0.00    -0.480 OA
ATOM     31  H   UNL     1       4.897   8.821  10.749  1.00  0.00     0.296 HD
ENDBRANCH  28  30
ENDBRANCH  13  28
ENDBRANCH  11  13
ENDBRANCH   8  11
ENDBRANCH   6   7
BRANCH   6  32
ATOM     32  C   UNL     1       8.151   5.254   6.341  1.00  0.00     0.037 C 
BRANCH  32  33
ATOM     33  C   UNL     1       6.909   4.369   6.162  1.00  0.00     0.026 C 
BRANCH  33  34
ATOM     34  C   UNL     1       7.221   2.881   6.326  1.00  0.00     0.146 C 
BRANCH  34  35
ATOM     35  N   UNL     1       8.627   2.733   6.678  1.00  0.00    -0.254 NA
ATOM     36  C   UNL     1       8.945   1.894   7.593  1.00  0.00     0.185 C 
ATOM     37  N   UNL     1      10.238   1.746   7.922  1.00  0.00    -0.370 N 
ATOM     38  N   UNL     1       8.147   1.092   8.319  1.00  0.00    -0.370 N 
ATOM     39  H   UNL     1      10.905   2.310   7.411  1.00  0.00     0.159 HD
ATOM     40  H   UNL     1      10.583   0.996   8.496  1.00  0.00     0.159 HD
ATOM     41  H   UNL     1       8.503   0.577   9.107  1.00  0.00     0.159 HD
ATOM     42  H   UNL     1       7.147   1.109   8.188  1.00  0.00     0.159 HD
ENDBRANCH  34  35
ENDBRANCH  33  34
ENDBRANCH  32  33
ENDBRANCH   6  32
ENDBRANCH   4   6
ENDBRANCH   1   2
BRANCH   1  43
ATOM     43  C   UNL     1       8.237   9.633   2.355  1.00  0.00     0.102 C 
ATOM     44  C   UNL     1       7.633  10.701   1.427  1.00  0.00     0.020 C 
BRANCH  43  45
ATOM     45  C   UNL     1       9.676   9.245   2.003  1.00  0.00     0.225 C 
ATOM     46  O   UNL     1      10.656   9.862   2.412  1.00  0.00    -0.275 OA
ATOM     47  N   UNL     1       9.809   8.206   1.111  1.00  0.00    -0.342 N 
ATOM     48  H   UNL     1       9.013   7.618   0.905  1.00  0.00     0.164 HD
BRANCH  47  49
ATOM     49  C   UNL     1      11.126   7.703   0.710  1.00  0.00     0.192 C 
BRANCH  49  50
ATOM     50  C   UNL     1      11.316   7.900  -0.796  1.00  0.00     0.047 C 
BRANCH  50  51
ATOM     51  C   UNL     1       9.992   7.806  -1.566  1.00  0.00     0.103 C 
BRANCH  51  52
ATOM     52  C   UNL     1      10.212   7.566  -3.058  1.00  0.00     0.226 C 
ATOM     53  O   UNL     1      11.241   7.978  -3.597  1.00  0.00    -0.275 OA
BRANCH  52  54
ATOM     54  N   UNL     1       9.233   6.804  -3.722  1.00  0.00    -0.311 N 
ATOM     55  C   UNL     1       7.842   7.268  -3.806  1.00  0.00     0.153 C 
BRANCH  54  56
ATOM     56  C   UNL     1       9.548   5.578  -4.332  1.00  0.00     0.102 C 
ATOM     57  C   UNL     1       9.643   4.402  -3.689  1.00  0.00     0.043 C 
BRANCH  56  58
ATOM     58  C   UNL     1       9.766   5.488  -5.824  1.00  0.00     0.268 C 
ATOM     59  O   UNL     1       8.933   5.034  -6.596  1.00  0.00    -0.268 OA
ATOM     60  N   UNL     1      10.965   6.027  -6.228  1.00  0.00    -0.339 N 
ATOM     61  H   UNL     1      11.605   6.373  -5.524  1.00  0.00     0.164 HD
BRANCH  60  62
ATOM     62  C   UNL     1      11.350   6.100  -7.636  1.00  0.00     0.168 CG0
ATOM     63  C   UNL     1      12.818   6.482  -7.782  1.00  0.00     0.041 C 
ATOM     64  G   UNL     1      10.446   7.113  -8.368  1.00  0.00     0.000 G0
ENDBRANCH  60  62
ENDBRANCH  56  58
ENDBRANCH  54  56
ENDBRANCH  52  54
ENDBRANCH  51  52
ENDBRANCH  50  51
ENDBRANCH  49  50
BRANCH  49  65
ATOM     65  C   UNL     1      11.294   6.215   1.054  1.00  0.00     0.326 C 
ATOM     66  O   UNL     1      12.360   5.628   1.171  1.00  0.00    -0.250 OA
BRANCH  65  67
ATOM     67  O   UNL     1      10.135   5.530   1.172  1.00  0.00    -0.480 OA
ATOM     68  H   UNL     1       9.614   6.065   1.809  1.00  0.00     0.296 HD
ENDBRANCH  65  67
ENDBRANCH  49  65
ENDBRANCH  47  49
ENDBRANCH  43  45
ENDBRANCH   1  43
BRANCH   1  69
ATOM     69  C   UNL     1       5.886   8.446   2.084  1.00  0.00    -0.001 C 
ATOM     70  C   UNL     1       5.357   8.056   0.911  1.00  0.00     0.001 C 
BRANCH  70  71
ATOM     71  C   UNL     1       3.948   8.115   0.519  1.00  0.00    -0.055 C 
ATOM     72  C   UNL     1       3.502   7.192  -0.360  1.00  0.00    -0.018 C 
ATOM     73  C   UNL     1       3.093   9.195   1.128  1.00  0.00     0.044 C 
BRANCH  72  74
ATOM     74  C   UNL     1       2.106   7.008  -0.938  1.00  0.00     0.038 C 
ATOM     75  C   UNL     1       1.306   6.171   0.068  1.00  0.00     0.015 C 
BRANCH  74  76
ATOM     76  C   UNL     1       2.231   6.380  -2.357  1.00  0.00     0.128 C 
BRANCH  76  77
ATOM     77  O   UNL     1       1.251   6.956  -3.237  1.00  0.00    -0.381 OA
ATOM     78  C   UNL     1       0.148   6.100  -3.502  1.00  0.00     0.195 C 
ENDBRANCH  76  77
BRANCH  76  79
ATOM     79  C   UNL     1       3.665   6.428  -2.943  1.00  0.00     0.068 C 
BRANCH  79  80
ATOM     80  C   UNL     1       4.394   5.120  -3.137  1.00  0.00    -0.045 A 
ATOM     81  C   UNL     1       5.550   4.823  -2.404  1.00  0.00     0.004 A 
ATOM     82  C   UNL     1       3.936   4.189  -4.081  1.00  0.00     0.004 A 
ATOM     83  C   UNL     1       6.227   3.618  -2.599  1.00  0.00     0.000 A 
ATOM     84  C   UNL     1       4.614   2.983  -4.276  1.00  0.00     0.000 A 
ATOM     85  C   UNL     1       5.758   2.697  -3.534  1.00  0.00     0.000 A 
ENDBRANCH  79  80
ENDBRANCH  76  79
ENDBRANCH  74  76
ENDBRANCH  72  74
ENDBRANCH  70  71
ENDBRANCH   1  69
TORSDOF 17
ENDMDL
MODEL 18
REMARK VINA RESULT:    -6.443      4.869      9.134
REMARK INTER + INTRA:         -25.400
REMARK INTER:                 -19.140
REMARK INTRA:                  -6.260
REMARK UNBOUND:                -6.151
REMARK SMILES C=C1C(=O)N[C@H](C)C(=O)N[C@@H](CC(C)C)C(=O)N[C@@H](C(=O)O)[C@H](C)C(=O)N[C@@H](CCCN=C(N)N)C(=O)N[C@@H](/C=C/C(C)=C/[C@H](C)[C@H](Cc2ccccc2)OC)[C@H](C)C(=O)N[C@@H](C(=O)O)CCC(=O)N1C
REMARK SMILES IDX 39 1 38 2 37 3 36 4 28 6 27 7 25 8 26 9 23 11 24 12 19 13
REMARK SMILES IDX 18 14 16 15 17 16 11 18 10 19 8 20 9 21 12 24 13 25 14 26
REMARK SMILES IDX 15 27 20 28 21 29 22 30 29 32 30 33 31 34 32 35 33 36 34 37
REMARK SMILES IDX 35 38 57 43 58 44 59 45 60 46 61 47 62 49 66 50 67 51 68 52
REMARK SMILES IDX 69 53 70 54 71 55 2 56 1 57 3 58 4 59 5 60 6 62 7 63 63 65
REMARK SMILES IDX 64 66 65 67 40 69 41 70 42 71 44 72 43 73 45 74 46 75 47 76
REMARK SMILES IDX 55 77 56 78 48 79 49 80 50 81 54 82 51 83 53 84 52 85
REMARK H PARENT 38 5 27 10 18 17 10 22 22 31 34 39 34 40 35 41 35 42 61 48
REMARK H PARENT 5 61 65 68
REMARK Flexibility Score:  369.900
ROOT
ATOM      1  C   UNL     1       2.638   2.319  12.776  1.00  0.00     0.117 C 
ENDROOT
BRANCH   1   2
ATOM      2  N   UNL     1       3.918   2.444  12.077  1.00  0.00    -0.347 N 
ATOM      3  O   UNL     1       3.092   2.706   9.952  1.00  0.00    -0.273 OA
ATOM      4  C   UNL     1       4.040   2.720  10.729  1.00  0.00     0.243 C 
ATOM      5  H   UNL     1       4.777   2.376  12.603  1.00  0.00     0.164 HD
BRANCH   4   6
ATOM      6  C   UNL     1       5.507   2.886  10.257  1.00  0.00     0.171 C 
BRANCH   6   7
ATOM      7  N   UNL     1       5.626   4.031   9.341  1.00  0.00    -0.344 N 
ATOM      8  C   UNL     1       5.964   3.841   8.019  1.00  0.00     0.226 C 
ATOM      9  O   UNL     1       6.202   2.734   7.550  1.00  0.00    -0.275 OA
ATOM     10  H   UNL     1       5.504   4.967   9.707  1.00  0.00     0.164 HD
BRANCH   8  11
ATOM     11  C   UNL     1       5.993   5.115   7.191  1.00  0.00     0.109 C 
ATOM     12  C   UNL     1       5.811   6.334   8.096  1.00  0.00     0.021 C 
BRANCH  11  13
ATOM     13  C   UNL     1       7.262   5.140   6.317  1.00  0.00     0.204 C 
BRANCH  13  14
ATOM     14  N   UNL     1       7.357   6.365   5.518  1.00  0.00    -0.340 N 
ATOM     15  C   UNL     1       7.938   6.401   4.269  1.00  0.00     0.243 C 
ATOM     16  O   UNL     1       8.364   5.393   3.709  1.00  0.00    -0.273 OA
ATOM     17  H   UNL     1       7.163   7.257   5.981  1.00  0.00     0.164 HD
BRANCH  15  18
ATOM     18  C   UNL     1       8.112   7.834   3.708  1.00  0.00     0.171 C 
BRANCH  18  19
ATOM     19  N   UNL     1       7.844   7.758   2.273  1.00  0.00    -0.343 N 
ATOM     20  C   UNL     1       8.830   7.997   1.334  1.00  0.00     0.242 CG0
ATOM     21  O   UNL     1       9.939   8.414   1.658  1.00  0.00    -0.273 OA
ATOM     22  H   UNL     1       6.910   7.529   1.953  1.00  0.00     0.164 HD
ATOM     23  G   UNL     1       8.380   7.792  -0.127  1.00  0.00     0.000 G0
ENDBRANCH  18  19
BRANCH  18  24
ATOM     24  C   UNL     1       7.155   8.809   4.407  1.00  0.00     0.038 C 
BRANCH  24  25
ATOM     25  C   UNL     1       5.860   9.112   3.625  1.00  0.00    -0.015 C 
ATOM     26  C   UNL     1       5.826  10.540   3.080  1.00  0.00     0.007 C 
ATOM     27  C   UNL     1       4.646   8.876   4.528  1.00  0.00     0.007 C 
ENDBRANCH  24  25
ENDBRANCH  18  24
ENDBRANCH  15  18
ENDBRANCH  13  14
BRANCH  13  28
ATOM     28  C   UNL     1       8.556   5.025   7.128  1.00  0.00     0.327 C 
ATOM     29  O   UNL     1       9.057   5.900   7.817  1.00  0.00    -0.250 OA
BRANCH  28  30
ATOM     30  O   UNL     1       9.204   3.859   6.928  1.00  0.00    -0.480 OA
ATOM     31  H   UNL     1      10.089   4.127   6.603  1.00  0.00     0.296 HD
ENDBRANCH  28  30
ENDBRANCH  13  28
ENDBRANCH  11  13
ENDBRANCH   8  11
ENDBRANCH   6   7
BRANCH   6  32
ATOM     32  C   UNL     1       6.412   3.067  11.481  1.00  0.00     0.037 C 
BRANCH  32  33
ATOM     33  C   UNL     1       7.697   2.233  11.380  1.00  0.00     0.026 C 
BRANCH  33  34
ATOM     34  C   UNL     1       8.932   3.091  11.103  1.00  0.00     0.146 C 
BRANCH  34  35
ATOM     35  N   UNL     1      10.077   2.498  11.781  1.00  0.00    -0.254 NA
ATOM     36  C   UNL     1      10.548   3.085  12.818  1.00  0.00     0.185 C 
ATOM     37  N   UNL     1      11.600   2.545  13.453  1.00  0.00    -0.370 N 
ATOM     38  N   UNL     1      10.133   4.220  13.408  1.00  0.00    -0.370 N 
ATOM     39  H   UNL     1      11.964   1.680  13.074  1.00  0.00     0.159 HD
ATOM     40  H   UNL     1      11.914   2.843  14.361  1.00  0.00     0.159 HD
ATOM     41  H   UNL     1      10.673   4.655  14.137  1.00  0.00     0.159 HD
ATOM     42  H   UNL     1       9.360   4.743  13.027  1.00  0.00     0.159 HD
ENDBRANCH  34  35
ENDBRANCH  33  34
ENDBRANCH  32  33
ENDBRANCH   6  32
ENDBRANCH   4   6
ENDBRANCH   1   2
BRANCH   1  43
ATOM     43  C   UNL     1       2.787   2.936  14.196  1.00  0.00     0.102 C 
ATOM     44  C   UNL     1       2.372   4.416  14.267  1.00  0.00     0.020 C 
BRANCH  43  45
ATOM     45  C   UNL     1       4.176   2.652  14.777  1.00  0.00     0.225 C 
ATOM     46  O   UNL     1       5.183   3.265  14.437  1.00  0.00    -0.275 OA
ATOM     47  N   UNL     1       4.247   1.590  15.649  1.00  0.00    -0.342 N 
ATOM     48  H   UNL     1       3.397   1.199  16.032  1.00  0.00     0.164 HD
BRANCH  47  49
ATOM     49  C   UNL     1       5.503   1.223  16.310  1.00  0.00     0.192 C 
BRANCH  49  50
ATOM     50  C   UNL     1       5.475  -0.261  16.681  1.00  0.00     0.047 C 
BRANCH  50  51
ATOM     51  C   UNL     1       4.579  -1.080  15.741  1.00  0.00     0.103 C 
BRANCH  51  52
ATOM     52  C   UNL     1       5.300  -1.461  14.449  1.00  0.00     0.226 C 
ATOM     53  O   UNL     1       5.400  -0.635  13.540  1.00  0.00    -0.275 OA
BRANCH  52  54
ATOM     54  N   UNL     1       5.883  -2.741  14.412  1.00  0.00    -0.311 N 
ATOM     55  C   UNL     1       5.057  -3.944  14.249  1.00  0.00     0.153 C 
BRANCH  54  56
ATOM     56  C   UNL     1       7.273  -2.916  14.522  1.00  0.00     0.102 C 
ATOM     57  C   UNL     1       8.144  -1.953  14.866  1.00  0.00     0.043 C 
BRANCH  56  58
ATOM     58  C   UNL     1       7.904  -4.270  14.294  1.00  0.00     0.268 C 
ATOM     59  O   UNL     1       8.243  -4.673  13.190  1.00  0.00    -0.268 OA
ATOM     60  N   UNL     1       8.116  -4.969  15.458  1.00  0.00    -0.339 N 
ATOM     61  H   UNL     1       7.796  -4.569  16.332  1.00  0.00     0.164 HD
BRANCH  60  62
ATOM     62  C   UNL     1       8.773  -6.276  15.473  1.00  0.00     0.168 CG0
ATOM     63  C   UNL     1       8.340  -7.091  16.685  1.00  0.00     0.041 C 
ATOM     64  G   UNL     1      10.303  -6.085  15.462  1.00  0.00     0.000 G0
ENDBRANCH  60  62
ENDBRANCH  56  58
ENDBRANCH  54  56
ENDBRANCH  52  54
ENDBRANCH  51  52
ENDBRANCH  50  51
ENDBRANCH  49  50
BRANCH  49  65
ATOM     65  C   UNL     1       5.742   2.060  17.576  1.00  0.00     0.326 C 
ATOM     66  O   UNL     1       5.360   1.772  18.701  1.00  0.00    -0.250 OA
BRANCH  65  67
ATOM     67  O   UNL     1       6.386   3.230  17.366  1.00  0.00    -0.480 OA
ATOM     68  H   UNL     1       7.301   2.953  17.144  1.00  0.00     0.296 HD
ENDBRANCH  65  67
ENDBRANCH  49  65
ENDBRANCH  47  49
ENDBRANCH  43  45
ENDBRANCH   1  43
BRANCH   1  69
ATOM     69  C   UNL     1       2.226   0.864  12.648  1.00  0.00    -0.001 C 
ATOM     70  C   UNL     1       1.826   0.039  13.631  1.00  0.00     0.001 C 
BRANCH  70  71
ATOM     71  C   UNL     1       1.409  -1.358  13.492  1.00  0.00    -0.055 C 
ATOM     72  C   UNL     1       0.317  -1.758  14.176  1.00  0.00    -0.018 C 
ATOM     73  C   UNL     1       2.223  -2.247  12.589  1.00  0.00     0.044 C 
BRANCH  72  74
ATOM     74  C   UNL     1      -0.342  -3.129  14.222  1.00  0.00     0.038 C 
ATOM     75  C   UNL     1      -1.823  -2.909  14.555  1.00  0.00     0.015 C 
BRANCH  74  76
ATOM     76  C   UNL     1       0.429  -4.022  15.238  1.00  0.00     0.128 C 
BRANCH  76  77
ATOM     77  O   UNL     1      -0.090  -3.821  16.563  1.00  0.00    -0.381 OA
ATOM     78  C   UNL     1       0.873  -3.332  17.486  1.00  0.00     0.195 C 
ENDBRANCH  76  77
BRANCH  76  79
ATOM     79  C   UNL     1       0.492  -5.519  14.839  1.00  0.00     0.068 C 
BRANCH  79  80
ATOM     80  C   UNL     1       1.372  -6.432  15.658  1.00  0.00    -0.045 A 
ATOM     81  C   UNL     1       2.767  -6.397  15.527  1.00  0.00     0.004 A 
ATOM     82  C   UNL     1       0.801  -7.355  16.547  1.00  0.00     0.004 A 
ATOM     83  C   UNL     1       3.574  -7.256  16.278  1.00  0.00     0.000 A 
ATOM     84  C   UNL     1       1.609  -8.213  17.296  1.00  0.00     0.000 A 
ATOM     85  C   UNL     1       2.995  -8.162  17.163  1.00  0.00     0.000 A 
ENDBRANCH  79  80
ENDBRANCH  76  79
ENDBRANCH  74  76
ENDBRANCH  72  74
ENDBRANCH  70  71
ENDBRANCH   1  69
TORSDOF 17
ENDMDL
MODEL 19
REMARK VINA RESULT:    -6.432      6.018     11.992
REMARK INTER + INTRA:         -25.366
REMARK INTER:                 -18.776
REMARK INTRA:                  -6.590
REMARK UNBOUND:                -6.151
REMARK SMILES C=C1C(=O)N[C@H](C)C(=O)N[C@@H](CC(C)C)C(=O)N[C@@H](C(=O)O)[C@H](C)C(=O)N[C@@H](CCCN=C(N)N)C(=O)N[C@@H](/C=C/C(C)=C/[C@H](C)[C@H](Cc2ccccc2)OC)[C@H](C)C(=O)N[C@@H](C(=O)O)CCC(=O)N1C
REMARK SMILES IDX 39 1 38 2 37 3 36 4 28 6 27 7 25 8 26 9 23 11 24 12 19 13
REMARK SMILES IDX 18 14 16 15 17 16 11 18 10 19 8 20 9 21 12 24 13 25 14 26
REMARK SMILES IDX 15 27 20 28 21 29 22 30 29 32 30 33 31 34 32 35 33 36 34 37
REMARK SMILES IDX 35 38 57 43 58 44 59 45 60 46 61 47 62 49 66 50 67 51 68 52
REMARK SMILES IDX 69 53 70 54 71 55 2 56 1 57 3 58 4 59 5 60 6 62 7 63 63 65
REMARK SMILES IDX 64 66 65 67 40 69 41 70 42 71 44 72 43 73 45 74 46 75 47 76
REMARK SMILES IDX 55 77 56 78 48 79 49 80 50 81 54 82 51 83 53 84 52 85
REMARK H PARENT 38 5 27 10 18 17 10 22 22 31 34 39 34 40 35 41 35 42 61 48
REMARK H PARENT 5 61 65 68
REMARK Flexibility Score:  369.900
ROOT
ATOM      1  C   UNL     1       8.040   7.041   5.438  1.00  0.00     0.117 C 
ENDROOT
BRANCH   1   2
ATOM      2  N   UNL     1       7.377   5.755   5.657  1.00  0.00    -0.347 N 
ATOM      3  O   UNL     1       9.110   4.686   6.717  1.00  0.00    -0.273 OA
ATOM      4  C   UNL     1       7.936   4.708   6.363  1.00  0.00     0.243 C 
ATOM      5  H   UNL     1       6.435   5.622   5.324  1.00  0.00     0.164 HD
BRANCH   4   6
ATOM      6  C   UNL     1       6.991   3.490   6.524  1.00  0.00     0.171 C 
BRANCH   6   7
ATOM      7  N   UNL     1       7.696   2.373   7.172  1.00  0.00    -0.344 N 
ATOM      8  C   UNL     1       8.352   1.424   6.418  1.00  0.00     0.226 C 
ATOM      9  O   UNL     1       8.363   1.447   5.193  1.00  0.00    -0.275 OA
ATOM     10  H   UNL     1       7.653   2.284   8.180  1.00  0.00     0.164 HD
BRANCH   8  11
ATOM     11  C   UNL     1       9.077   0.368   7.234  1.00  0.00     0.109 C 
ATOM     12  C   UNL     1       9.564  -0.758   6.323  1.00  0.00     0.021 C 
BRANCH  11  13
ATOM     13  C   UNL     1      10.176   1.032   8.088  1.00  0.00     0.204 C 
BRANCH  13  14
ATOM     14  N   UNL     1       9.780   1.162   9.493  1.00  0.00    -0.340 N 
ATOM     15  C   UNL     1       9.492   2.375  10.080  1.00  0.00     0.243 C 
ATOM     16  O   UNL     1       9.488   3.430   9.449  1.00  0.00    -0.273 OA
ATOM     17  H   UNL     1       9.910   0.353  10.106  1.00  0.00     0.164 HD
BRANCH  15  18
ATOM     18  C   UNL     1       9.303   2.291  11.615  1.00  0.00     0.171 C 
BRANCH  18  19
ATOM     19  N   UNL     1      10.532   2.804  12.217  1.00  0.00    -0.343 N 
ATOM     20  C   UNL     1      11.422   1.978  12.875  1.00  0.00     0.242 CG0
ATOM     21  O   UNL     1      11.159   0.799  13.100  1.00  0.00    -0.273 OA
ATOM     22  H   UNL     1      10.738   3.795  12.157  1.00  0.00     0.164 HD
ATOM     23  G   UNL     1      12.699   2.686  13.374  1.00  0.00     0.000 G0
ENDBRANCH  18  19
BRANCH  18  24
ATOM     24  C   UNL     1       8.079   3.103  12.056  1.00  0.00     0.038 C 
BRANCH  24  25
ATOM     25  C   UNL     1       7.186   2.405  13.103  1.00  0.00    -0.015 C 
ATOM     26  C   UNL     1       7.248   3.085  14.471  1.00  0.00     0.007 C 
ATOM     27  C   UNL     1       7.601   0.938  13.238  1.00  0.00     0.007 C 
ENDBRANCH  24  25
ENDBRANCH  18  24
ENDBRANCH  15  18
ENDBRANCH  13  14
BRANCH  13  28
ATOM     28  C   UNL     1      11.505   0.271   8.059  1.00  0.00     0.327 C 
ATOM     29  O   UNL     1      11.794  -0.704   8.735  1.00  0.00    -0.250 OA
BRANCH  28  30
ATOM     30  O   UNL     1      12.431   0.853   7.270  1.00  0.00    -0.480 OA
ATOM     31  H   UNL     1      13.089   0.145   7.109  1.00  0.00     0.296 HD
ENDBRANCH  28  30
ENDBRANCH  13  28
ENDBRANCH  11  13
ENDBRANCH   8  11
ENDBRANCH   6   7
BRANCH   6  32
ATOM     32  C   UNL     1       5.764   3.910   7.342  1.00  0.00     0.037 C 
BRANCH  32  33
ATOM     33  C   UNL     1       6.132   4.300   8.780  1.00  0.00     0.026 C 
BRANCH  33  34
ATOM     34  C   UNL     1       4.940   4.858   9.558  1.00  0.00     0.146 C 
BRANCH  34  35
ATOM     35  N   UNL     1       5.421   5.858  10.502  1.00  0.00    -0.254 NA
ATOM     36  C   UNL     1       4.953   7.048  10.428  1.00  0.00     0.185 C 
ATOM     37  N   UNL     1       5.385   7.976  11.295  1.00  0.00    -0.370 N 
ATOM     38  N   UNL     1       4.043   7.546   9.571  1.00  0.00    -0.370 N 
ATOM     39  H   UNL     1       6.066   7.675  11.981  1.00  0.00     0.159 HD
ATOM     40  H   UNL     1       4.946   8.873  11.415  1.00  0.00     0.159 HD
ATOM     41  H   UNL     1       3.859   8.535   9.524  1.00  0.00     0.159 HD
ATOM     42  H   UNL     1       3.643   6.964   8.852  1.00  0.00     0.159 HD
ENDBRANCH  34  35
ENDBRANCH  33  34
ENDBRANCH  32  33
ENDBRANCH   6  32
ENDBRANCH   4   6
ENDBRANCH   1   2
BRANCH   1  43
ATOM     43  C   UNL     1       7.441   8.083   6.426  1.00  0.00     0.102 C 
ATOM     44  C   UNL     1       8.032   7.993   7.843  1.00  0.00     0.020 C 
BRANCH  43  45
ATOM     45  C   UNL     1       5.910   8.058   6.389  1.00  0.00     0.225 C 
ATOM     46  O   UNL     1       5.238   7.212   6.971  1.00  0.00    -0.275 OA
ATOM     47  N   UNL     1       5.322   9.000   5.576  1.00  0.00    -0.342 N 
ATOM     48  H   UNL     1       5.870   9.775   5.230  1.00  0.00     0.164 HD
BRANCH  47  49
ATOM     49  C   UNL     1       3.864   9.118   5.470  1.00  0.00     0.192 C 
BRANCH  49  50
ATOM     50  C   UNL     1       3.476   9.409   4.018  1.00  0.00     0.047 C 
BRANCH  50  51
ATOM     51  C   UNL     1       3.094   8.136   3.251  1.00  0.00     0.103 C 
BRANCH  51  52
ATOM     52  C   UNL     1       2.105   8.421   2.123  1.00  0.00     0.226 C 
ATOM     53  O   UNL     1       1.014   8.933   2.383  1.00  0.00    -0.275 OA
BRANCH  52  54
ATOM     54  N   UNL     1       2.546   8.141   0.816  1.00  0.00    -0.311 N 
ATOM     55  C   UNL     1       3.645   8.903   0.209  1.00  0.00     0.153 C 
BRANCH  54  56
ATOM     56  C   UNL     1       1.959   7.122   0.048  1.00  0.00     0.102 C 
ATOM     57  C   UNL     1       1.238   6.103   0.544  1.00  0.00     0.043 C 
BRANCH  56  58
ATOM     58  C   UNL     1       2.067   7.127  -1.459  1.00  0.00     0.268 C 
ATOM     59  O   UNL     1       2.902   6.478  -2.073  1.00  0.00    -0.268 OA
ATOM     60  N   UNL     1       1.092   7.882  -2.067  1.00  0.00    -0.339 N 
ATOM     61  H   UNL     1       0.443   8.399  -1.486  1.00  0.00     0.164 HD
BRANCH  60  62
ATOM     62  C   UNL     1       0.973   7.976  -3.522  1.00  0.00     0.168 CG0
ATOM     63  C   UNL     1      -0.489   8.000  -3.951  1.00  0.00     0.041 C 
ATOM     64  G   UNL     1       1.715   6.793  -4.178  1.00  0.00     0.000 G0
ENDBRANCH  60  62
ENDBRANCH  56  58
ENDBRANCH  54  56
ENDBRANCH  52  54
ENDBRANCH  51  52
ENDBRANCH  50  51
ENDBRANCH  49  50
BRANCH  49  65
ATOM     65  C   UNL     1       3.318  10.233   6.376  1.00  0.00     0.326 C 
ATOM     66  O   UNL     1       3.152  11.398   6.047  1.00  0.00    -0.250 OA
BRANCH  65  67
ATOM     67  O   UNL     1       3.068   9.853   7.648  1.00  0.00    -0.480 OA
ATOM     68  H   UNL     1       3.941   9.542   7.973  1.00  0.00     0.296 HD
ENDBRANCH  65  67
ENDBRANCH  49  65
ENDBRANCH  47  49
ENDBRANCH  43  45
ENDBRANCH   1  43
BRANCH   1  69
ATOM     69  C   UNL     1       7.957   7.312   3.946  1.00  0.00    -0.001 C 
ATOM     70  C   UNL     1       8.799   6.884   2.990  1.00  0.00     0.001 C 
BRANCH  70  71
ATOM     71  C   UNL     1       8.696   7.134   1.551  1.00  0.00    -0.055 C 
ATOM     72  C   UNL     1       7.925   6.300   0.822  1.00  0.00    -0.018 C 
ATOM     73  C   UNL     1       9.452   8.309   0.986  1.00  0.00     0.044 C 
BRANCH  72  74
ATOM     74  C   UNL     1       7.632   6.316  -0.671  1.00  0.00     0.038 C 
ATOM     75  C   UNL     1       6.108   6.376  -0.833  1.00  0.00     0.015 C 
BRANCH  74  76
ATOM     76  C   UNL     1       8.311   5.078  -1.328  1.00  0.00     0.128 C 
BRANCH  76  77
ATOM     77  O   UNL     1       9.709   5.340  -1.540  1.00  0.00    -0.381 OA
ATOM     78  C   UNL     1       9.960   6.457  -2.381  1.00  0.00     0.195 C 
ENDBRANCH  76  77
BRANCH  76  79
ATOM     79  C   UNL     1       8.057   3.748  -0.576  1.00  0.00     0.068 C 
BRANCH  79  80
ATOM     80  C   UNL     1       7.238   2.687  -1.272  1.00  0.00    -0.045 A 
ATOM     81  C   UNL     1       7.210   1.369  -0.797  1.00  0.00     0.004 A 
ATOM     82  C   UNL     1       6.511   3.002  -2.430  1.00  0.00     0.004 A 
ATOM     83  C   UNL     1       6.462   0.391  -1.455  1.00  0.00     0.000 A 
ATOM     84  C   UNL     1       5.764   2.022  -3.087  1.00  0.00     0.000 A 
ATOM     85  C   UNL     1       5.738   0.718  -2.599  1.00  0.00     0.000 A 
ENDBRANCH  79  80
ENDBRANCH  76  79
ENDBRANCH  74  76
ENDBRANCH  72  74
ENDBRANCH  70  71
ENDBRANCH   1  69
TORSDOF 17
ENDMDL
MODEL 20
REMARK VINA RESULT:    -6.416      4.644     12.284
REMARK INTER + INTRA:         -25.319
REMARK INTER:                 -20.218
REMARK INTRA:                  -5.101
REMARK UNBOUND:                -6.151
REMARK SMILES C=C1C(=O)N[C@H](C)C(=O)N[C@@H](CC(C)C)C(=O)N[C@@H](C(=O)O)[C@H](C)C(=O)N[C@@H](CCCN=C(N)N)C(=O)N[C@@H](/C=C/C(C)=C/[C@H](C)[C@H](Cc2ccccc2)OC)[C@H](C)C(=O)N[C@@H](C(=O)O)CCC(=O)N1C
REMARK SMILES IDX 39 1 38 2 37 3 36 4 28 6 27 7 25 8 26 9 23 11 24 12 19 13
REMARK SMILES IDX 18 14 16 15 17 16 11 18 10 19 8 20 9 21 12 24 13 25 14 26
REMARK SMILES IDX 15 27 20 28 21 29 22 30 29 32 30 33 31 34 32 35 33 36 34 37
REMARK SMILES IDX 35 38 57 43 58 44 59 45 60 46 61 47 62 49 66 50 67 51 68 52
REMARK SMILES IDX 69 53 70 54 71 55 2 56 1 57 3 58 4 59 5 60 6 62 7 63 63 65
REMARK SMILES IDX 64 66 65 67 40 69 41 70 42 71 44 72 43 73 45 74 46 75 47 76
REMARK SMILES IDX 55 77 56 78 48 79 49 80 50 81 54 82 51 83 53 84 52 85
REMARK H PARENT 38 5 27 10 18 17 10 22 22 31 34 39 34 40 35 41 35 42 61 48
REMARK H PARENT 5 61 65 68
REMARK Flexibility Score:  369.900
ROOT
ATOM      1  C   UNL     1       4.970   7.141   8.149  1.00  0.00     0.117 C 
ENDROOT
BRANCH   1   2
ATOM      2  N   UNL     1       5.007   6.528   9.478  1.00  0.00    -0.347 N 
ATOM      3  O   UNL     1       3.497   4.843   9.088  1.00  0.00    -0.273 OA
ATOM      4  C   UNL     1       4.334   5.369   9.814  1.00  0.00     0.243 C 
ATOM      5  H   UNL     1       5.593   6.932  10.192  1.00  0.00     0.164 HD
BRANCH   4   6
ATOM      6  C   UNL     1       4.611   4.885  11.260  1.00  0.00     0.171 C 
BRANCH   6   7
ATOM      7  N   UNL     1       3.860   3.651  11.542  1.00  0.00    -0.344 N 
ATOM      8  C   UNL     1       3.308   3.433  12.786  1.00  0.00     0.226 C 
ATOM      9  O   UNL     1       3.430   4.228  13.710  1.00  0.00    -0.275 OA
ATOM     10  H   UNL     1       3.795   2.941  10.823  1.00  0.00     0.164 HD
BRANCH   8  11
ATOM     11  C   UNL     1       2.518   2.141  12.902  1.00  0.00     0.109 C 
ATOM     12  C   UNL     1       2.381   1.484  11.529  1.00  0.00     0.021 C 
BRANCH  11  13
ATOM     13  C   UNL     1       3.142   1.245  13.990  1.00  0.00     0.204 C 
BRANCH  13  14
ATOM     14  N   UNL     1       2.385   0.004  14.184  1.00  0.00    -0.340 N 
ATOM     15  C   UNL     1       2.639  -0.873  15.216  1.00  0.00     0.243 C 
ATOM     16  O   UNL     1       3.480  -0.647  16.084  1.00  0.00    -0.273 OA
ATOM     17  H   UNL     1       1.783  -0.315  13.421  1.00  0.00     0.164 HD
BRANCH  15  18
ATOM     18  C   UNL     1       1.860  -2.207  15.099  1.00  0.00     0.171 C 
BRANCH  18  19
ATOM     19  N   UNL     1       0.760  -2.135  16.058  1.00  0.00    -0.343 N 
ATOM     20  C   UNL     1       0.516  -3.149  16.964  1.00  0.00     0.242 CG0
ATOM     21  O   UNL     1       1.128  -4.214  16.919  1.00  0.00    -0.273 OA
ATOM     22  H   UNL     1       0.152  -1.324  16.058  1.00  0.00     0.164 HD
ATOM     23  G   UNL     1      -0.637  -2.861  17.947  1.00  0.00     0.000 G0
ENDBRANCH  18  19
BRANCH  18  24
ATOM     24  C   UNL     1       1.346  -2.410  13.668  1.00  0.00     0.038 C 
BRANCH  24  25
ATOM     25  C   UNL     1       1.379  -3.872  13.173  1.00  0.00    -0.015 C 
ATOM     26  C   UNL     1       0.113  -4.644  13.545  1.00  0.00     0.007 C 
ATOM     27  C   UNL     1       2.606  -4.583  13.750  1.00  0.00     0.007 C 
ENDBRANCH  24  25
ENDBRANCH  18  24
ENDBRANCH  15  18
ENDBRANCH  13  14
BRANCH  13  28
ATOM     28  C   UNL     1       4.591   0.850  13.689  1.00  0.00     0.327 C 
ATOM     29  O   UNL     1       4.968   0.109  12.794  1.00  0.00    -0.250 OA
BRANCH  28  30
ATOM     30  O   UNL     1       5.467   1.315  14.604  1.00  0.00    -0.480 OA
ATOM     31  H   UNL     1       4.908   1.789  15.254  1.00  0.00     0.296 HD
ENDBRANCH  28  30
ENDBRANCH  13  28
ENDBRANCH  11  13
ENDBRANCH   8  11
ENDBRANCH   6   7
BRANCH   6  32
ATOM     32  C   UNL     1       6.117   4.661  11.436  1.00  0.00     0.037 C 
BRANCH  32  33
ATOM     33  C   UNL     1       6.629   3.481  10.599  1.00  0.00     0.026 C 
BRANCH  33  34
ATOM     34  C   UNL     1       7.447   2.488  11.425  1.00  0.00     0.146 C 
BRANCH  34  35
ATOM     35  N   UNL     1       8.257   1.680  10.524  1.00  0.00    -0.254 NA
ATOM     36  C   UNL     1       9.489   1.991  10.359  1.00  0.00     0.185 C 
ATOM     37  N   UNL     1      10.245   1.251   9.534  1.00  0.00    -0.370 N 
ATOM     38  N   UNL     1      10.187   2.998  10.913  1.00  0.00    -0.370 N 
ATOM     39  H   UNL     1       9.792   0.465   9.085  1.00  0.00     0.159 HD
ATOM     40  H   UNL     1      11.247   1.320   9.486  1.00  0.00     0.159 HD
ATOM     41  H   UNL     1      11.116   3.223  10.597  1.00  0.00     0.159 HD
ATOM     42  H   UNL     1       9.740   3.646  11.543  1.00  0.00     0.159 HD
ENDBRANCH  34  35
ENDBRANCH  33  34
ENDBRANCH  32  33
ENDBRANCH   6  32
ENDBRANCH   4   6
ENDBRANCH   1   2
BRANCH   1  43
ATOM     43  C   UNL     1       6.315   6.840   7.427  1.00  0.00     0.102 C 
ATOM     44  C   UNL     1       7.449   7.801   7.821  1.00  0.00     0.020 C 
BRANCH  43  45
ATOM     45  C   UNL     1       6.110   6.706   5.915  1.00  0.00     0.225 C 
ATOM     46  O   UNL     1       5.678   5.687   5.384  1.00  0.00    -0.275 OA
ATOM     47  N   UNL     1       6.532   7.779   5.163  1.00  0.00    -0.342 N 
ATOM     48  H   UNL     1       6.740   8.657   5.617  1.00  0.00     0.164 HD
BRANCH  47  49
ATOM     49  C   UNL     1       6.366   7.807   3.707  1.00  0.00     0.192 C 
BRANCH  49  50
ATOM     50  C   UNL     1       7.682   8.224   3.047  1.00  0.00     0.047 C 
BRANCH  50  51
ATOM     51  C   UNL     1       8.828   7.254   3.368  1.00  0.00     0.103 C 
BRANCH  51  52
ATOM     52  C   UNL     1       8.970   6.164   2.308  1.00  0.00     0.226 C 
ATOM     53  O   UNL     1       8.363   5.099   2.443  1.00  0.00    -0.275 OA
BRANCH  52  54
ATOM     54  N   UNL     1       9.746   6.484   1.179  1.00  0.00    -0.311 N 
ATOM     55  C   UNL     1      11.214   6.487   1.247  1.00  0.00     0.153 C 
BRANCH  54  56
ATOM     56  C   UNL     1       9.151   6.806  -0.052  1.00  0.00     0.102 C 
ATOM     57  C   UNL     1       8.806   8.046  -0.437  1.00  0.00     0.043 C 
BRANCH  56  58
ATOM     58  C   UNL     1       8.888   5.740  -1.088  1.00  0.00     0.268 C 
ATOM     59  O   UNL     1       9.668   5.480  -1.995  1.00  0.00    -0.268 OA
ATOM     60  N   UNL     1       7.719   5.050  -0.870  1.00  0.00    -0.339 N 
ATOM     61  H   UNL     1       7.122   5.334  -0.102  1.00  0.00     0.164 HD
BRANCH  60  62
ATOM     62  C   UNL     1       7.303   3.934  -1.718  1.00  0.00     0.168 CG0
ATOM     63  C   UNL     1       7.611   2.598  -1.054  1.00  0.00     0.041 C 
ATOM     64  G   UNL     1       8.003   4.037  -3.089  1.00  0.00     0.000 G0
ENDBRANCH  60  62
ENDBRANCH  56  58
ENDBRANCH  54  56
ENDBRANCH  52  54
ENDBRANCH  51  52
ENDBRANCH  50  51
ENDBRANCH  49  50
BRANCH  49  65
ATOM     65  C   UNL     1       5.253   8.777   3.282  1.00  0.00     0.326 C 
ATOM     66  O   UNL     1       5.008   9.852   3.810  1.00  0.00    -0.250 OA
BRANCH  65  67
ATOM     67  O   UNL     1       4.474   8.334   2.270  1.00  0.00    -0.480 OA
ATOM     68  H   UNL     1       4.415   9.107   1.668  1.00  0.00     0.296 HD
ENDBRANCH  65  67
ENDBRANCH  49  65
ENDBRANCH  47  49
ENDBRANCH  43  45
ENDBRANCH   1  43
BRANCH   1  69
ATOM     69  C   UNL     1       4.558   8.586   8.361  1.00  0.00    -0.001 C 
ATOM     70  C   UNL     1       4.030   9.426   7.453  1.00  0.00     0.001 C 
BRANCH  70  71
ATOM     71  C   UNL     1       3.616  10.813   7.675  1.00  0.00    -0.055 C 
ATOM     72  C   UNL     1       2.388  11.027   8.190  1.00  0.00    -0.018 C 
ATOM     73  C   UNL     1       4.594  11.903   7.319  1.00  0.00     0.044 C 
BRANCH  72  74
ATOM     74  C   UNL     1       1.700  12.343   8.525  1.00  0.00     0.038 C 
ATOM     75  C   UNL     1       2.363  12.890   9.795  1.00  0.00     0.015 C 
BRANCH  74  76
ATOM     76  C   UNL     1       0.168  12.091   8.645  1.00  0.00     0.128 C 
BRANCH  76  77
ATOM     77  O   UNL     1      -0.528  12.785   7.596  1.00  0.00    -0.381 OA
ATOM     78  C   UNL     1      -1.231  11.925   6.710  1.00  0.00     0.195 C 
ENDBRANCH  76  77
BRANCH  76  79
ATOM     79  C   UNL     1      -0.219  10.593   8.731  1.00  0.00     0.068 C 
BRANCH  79  80
ATOM     80  C   UNL     1      -0.813  10.089  10.024  1.00  0.00    -0.045 A 
ATOM     81  C   UNL     1      -0.453   8.838  10.544  1.00  0.00     0.004 A 
ATOM     82  C   UNL     1      -1.761  10.858  10.714  1.00  0.00     0.004 A 
ATOM     83  C   UNL     1      -1.018   8.373  11.734  1.00  0.00     0.000 A 
ATOM     84  C   UNL     1      -2.325  10.392  11.904  1.00  0.00     0.000 A 
ATOM     85  C   UNL     1      -1.953   9.151  12.414  1.00  0.00     0.000 A 
ENDBRANCH  79  80
ENDBRANCH  76  79
ENDBRANCH  74  76
ENDBRANCH  72  74
ENDBRANCH  70  71
ENDBRANCH   1  69
TORSDOF 17
ENDMDL
MODEL 21
REMARK VINA RESULT:    -6.405      4.094      5.722
REMARK INTER + INTRA:         -25.287
REMARK INTER:                 -16.192
REMARK INTRA:                  -9.095
REMARK UNBOUND:                -6.151
REMARK SMILES C=C1C(=O)N[C@H](C)C(=O)N[C@@H](CC(C)C)C(=O)N[C@@H](C(=O)O)[C@H](C)C(=O)N[C@@H](CCCN=C(N)N)C(=O)N[C@@H](/C=C/C(C)=C/[C@H](C)[C@H](Cc2ccccc2)OC)[C@H](C)C(=O)N[C@@H](C(=O)O)CCC(=O)N1C
REMARK SMILES IDX 39 1 38 2 37 3 36 4 28 6 27 7 25 8 26 9 23 11 24 12 19 13
REMARK SMILES IDX 18 14 16 15 17 16 11 18 10 19 8 20 9 21 12 24 13 25 14 26
REMARK SMILES IDX 15 27 20 28 21 29 22 30 29 32 30 33 31 34 32 35 33 36 34 37
REMARK SMILES IDX 35 38 57 43 58 44 59 45 60 46 61 47 62 49 66 50 67 51 68 52
REMARK SMILES IDX 69 53 70 54 71 55 2 56 1 57 3 58 4 59 5 60 6 62 7 63 63 65
REMARK SMILES IDX 64 66 65 67 40 69 41 70 42 71 44 72 43 73 45 74 46 75 47 76
REMARK SMILES IDX 55 77 56 78 48 79 49 80 50 81 54 82 51 83 53 84 52 85
REMARK H PARENT 38 5 27 10 18 17 10 22 22 31 34 39 34 40 35 41 35 42 61 48
REMARK H PARENT 5 61 65 68
REMARK Flexibility Score:  369.900
ROOT
ATOM      1  C   UNL     1       5.279   4.472  10.165  1.00  0.00     0.117 C 
ENDROOT
BRANCH   1   2
ATOM      2  N   UNL     1       6.556   3.759  10.123  1.00  0.00    -0.347 N 
ATOM      3  O   UNL     1       5.885   1.992   8.821  1.00  0.00    -0.273 OA
ATOM      4  C   UNL     1       6.781   2.619   9.376  1.00  0.00     0.243 C 
ATOM      5  H   UNL     1       7.348   4.133  10.624  1.00  0.00     0.164 HD
BRANCH   4   6
ATOM      6  C   UNL     1       8.244   2.112   9.438  1.00  0.00     0.171 C 
BRANCH   6   7
ATOM      7  N   UNL     1       8.641   1.856  10.832  1.00  0.00    -0.344 N 
ATOM      8  C   UNL     1       9.631   2.605  11.430  1.00  0.00     0.226 C 
ATOM      9  O   UNL     1      10.237   3.491  10.838  1.00  0.00    -0.275 OA
ATOM     10  H   UNL     1       8.210   1.088  11.332  1.00  0.00     0.164 HD
BRANCH   8  11
ATOM     11  C   UNL     1       9.887   2.257  12.886  1.00  0.00     0.109 C 
ATOM     12  C   UNL     1      10.601   3.413  13.585  1.00  0.00     0.021 C 
BRANCH  11  13
ATOM     13  C   UNL     1       8.571   1.809  13.553  1.00  0.00     0.204 C 
BRANCH  13  14
ATOM     14  N   UNL     1       8.707   0.512  14.223  1.00  0.00    -0.340 N 
ATOM     15  C   UNL     1       8.750  -0.683  13.539  1.00  0.00     0.243 C 
ATOM     16  O   UNL     1       8.738  -0.742  12.311  1.00  0.00    -0.273 OA
ATOM     17  H   UNL     1       8.569   0.478  15.237  1.00  0.00     0.164 HD
BRANCH  15  18
ATOM     18  C   UNL     1       8.685  -1.926  14.460  1.00  0.00     0.171 C 
BRANCH  18  19
ATOM     19  N   UNL     1       9.361  -1.562  15.703  1.00  0.00    -0.343 N 
ATOM     20  C   UNL     1      10.539  -2.167  16.097  1.00  0.00     0.242 CG0
ATOM     21  O   UNL     1      11.002  -3.129  15.490  1.00  0.00    -0.273 OA
ATOM     22  H   UNL     1       8.955  -0.850  16.300  1.00  0.00     0.164 HD
ATOM     23  G   UNL     1      11.144  -1.596  17.396  1.00  0.00     0.000 G0
ENDBRANCH  18  19
BRANCH  18  24
ATOM     24  C   UNL     1       7.229  -2.339  14.711  1.00  0.00     0.038 C 
BRANCH  24  25
ATOM     25  C   UNL     1       6.977  -3.861  14.686  1.00  0.00    -0.015 C 
ATOM     26  C   UNL     1       5.541  -4.210  14.295  1.00  0.00     0.007 C 
ATOM     27  C   UNL     1       7.297  -4.459  16.059  1.00  0.00     0.007 C 
ENDBRANCH  24  25
ENDBRANCH  18  24
ENDBRANCH  15  18
ENDBRANCH  13  14
BRANCH  13  28
ATOM     28  C   UNL     1       8.053   2.806  14.594  1.00  0.00     0.327 C 
ATOM     29  O   UNL     1       7.657   3.940  14.374  1.00  0.00    -0.250 OA
BRANCH  28  30
ATOM     30  O   UNL     1       8.174   2.359  15.861  1.00  0.00    -0.480 OA
ATOM     31  H   UNL     1       9.136   2.403  16.040  1.00  0.00     0.296 HD
ENDBRANCH  28  30
ENDBRANCH  13  28
ENDBRANCH  11  13
ENDBRANCH   8  11
ENDBRANCH   6   7
BRANCH   6  32
ATOM     32  C   UNL     1       8.373   0.841   8.591  1.00  0.00     0.037 C 
BRANCH  32  33
ATOM     33  C   UNL     1       9.318   1.034   7.397  1.00  0.00     0.026 C 
BRANCH  33  34
ATOM     34  C   UNL     1       8.565   1.224   6.079  1.00  0.00     0.146 C 
BRANCH  34  35
ATOM     35  N   UNL     1       8.738   2.600   5.634  1.00  0.00    -0.254 NA
ATOM     36  C   UNL     1       7.738   3.397   5.699  1.00  0.00     0.185 C 
ATOM     37  N   UNL     1       7.888   4.669   5.296  1.00  0.00    -0.370 N 
ATOM     38  N   UNL     1       6.489   3.152   6.133  1.00  0.00    -0.370 N 
ATOM     39  H   UNL     1       8.806   4.935   4.964  1.00  0.00     0.159 HD
ATOM     40  H   UNL     1       7.213   5.392   5.476  1.00  0.00     0.159 HD
ATOM     41  H   UNL     1       5.751   3.825   6.004  1.00  0.00     0.159 HD
ATOM     42  H   UNL     1       6.228   2.232   6.452  1.00  0.00     0.159 HD
ENDBRANCH  34  35
ENDBRANCH  33  34
ENDBRANCH  32  33
ENDBRANCH   6  32
ENDBRANCH   4   6
ENDBRANCH   1   2
BRANCH   1  43
ATOM     43  C   UNL     1       5.546   5.981   9.892  1.00  0.00     0.102 C 
ATOM     44  C   UNL     1       4.385   6.895  10.320  1.00  0.00     0.020 C 
BRANCH  43  45
ATOM     45  C   UNL     1       6.013   6.204   8.450  1.00  0.00     0.225 C 
ATOM     46  O   UNL     1       7.036   5.704   7.992  1.00  0.00    -0.275 OA
ATOM     47  N   UNL     1       5.259   7.088   7.713  1.00  0.00    -0.342 N 
ATOM     48  H   UNL     1       4.348   7.369   8.048  1.00  0.00     0.164 HD
BRANCH  47  49
ATOM     49  C   UNL     1       5.567   7.372   6.308  1.00  0.00     0.192 C 
BRANCH  49  50
ATOM     50  C   UNL     1       5.267   8.842   6.003  1.00  0.00     0.047 C 
BRANCH  50  51
ATOM     51  C   UNL     1       3.932   9.301   6.605  1.00  0.00     0.103 C 
BRANCH  51  52
ATOM     52  C   UNL     1       4.132  10.179   7.840  1.00  0.00     0.226 C 
ATOM     53  O   UNL     1       4.991   9.877   8.670  1.00  0.00    -0.275 OA
BRANCH  52  54
ATOM     54  N   UNL     1       3.350  11.346   7.911  1.00  0.00    -0.311 N 
ATOM     55  C   UNL     1       3.963  12.676   7.790  1.00  0.00     0.153 C 
BRANCH  54  56
ATOM     56  C   UNL     1       1.958  11.286   8.095  1.00  0.00     0.102 C 
ATOM     57  C   UNL     1       1.348  10.782   9.180  1.00  0.00     0.043 C 
BRANCH  56  58
ATOM     58  C   UNL     1       1.015  11.850   7.059  1.00  0.00     0.268 C 
ATOM     59  O   UNL     1       0.559  12.984   7.115  1.00  0.00    -0.268 OA
ATOM     60  N   UNL     1       0.775  10.985   6.018  1.00  0.00    -0.339 N 
ATOM     61  H   UNL     1       1.183  10.058   6.052  1.00  0.00     0.164 HD
BRANCH  60  62
ATOM     62  C   UNL     1      -0.060  11.353   4.876  1.00  0.00     0.168 CG0
ATOM     63  C   UNL     1      -1.513  10.962   5.113  1.00  0.00     0.041 C 
ATOM     64  G   UNL     1       0.485  10.680   3.599  1.00  0.00     0.000 G0
ENDBRANCH  60  62
ENDBRANCH  56  58
ENDBRANCH  54  56
ENDBRANCH  52  54
ENDBRANCH  51  52
ENDBRANCH  50  51
ENDBRANCH  49  50
BRANCH  49  65
ATOM     65  C   UNL     1       4.754   6.479   5.358  1.00  0.00     0.326 C 
ATOM     66  O   UNL     1       4.207   6.849   4.329  1.00  0.00    -0.250 OA
BRANCH  65  67
ATOM     67  O   UNL     1       4.616   5.199   5.768  1.00  0.00    -0.480 OA
ATOM     68  H   UNL     1       4.343   5.284   6.707  1.00  0.00     0.296 HD
ENDBRANCH  65  67
ENDBRANCH  49  65
ENDBRANCH  47  49
ENDBRANCH  43  45
ENDBRANCH   1  43
BRANCH   1  69
ATOM     69  C   UNL     1       4.612   4.070  11.467  1.00  0.00    -0.001 C 
ATOM     70  C   UNL     1       4.490   2.830  11.974  1.00  0.00     0.001 C 
BRANCH  70  71
ATOM     71  C   UNL     1       3.862   2.456  13.243  1.00  0.00    -0.055 C 
ATOM     72  C   UNL     1       4.666   2.275  14.312  1.00  0.00    -0.018 C 
ATOM     73  C   UNL     1       2.363   2.308  13.268  1.00  0.00     0.044 C 
BRANCH  72  74
ATOM     74  C   UNL     1       4.300   1.892  15.739  1.00  0.00     0.038 C 
ATOM     75  C   UNL     1       4.609   3.103  16.626  1.00  0.00     0.015 C 
BRANCH  74  76
ATOM     76  C   UNL     1       5.064   0.590  16.120  1.00  0.00     0.128 C 
BRANCH  76  77
ATOM     77  O   UNL     1       5.810   0.796  17.332  1.00  0.00    -0.381 OA
ATOM     78  C   UNL     1       6.663  -0.290  17.669  1.00  0.00     0.195 C 
ENDBRANCH  76  77
BRANCH  76  79
ATOM     79  C   UNL     1       4.169  -0.673  16.173  1.00  0.00     0.068 C 
BRANCH  79  80
ATOM     80  C   UNL     1       3.269  -0.953  14.994  1.00  0.00    -0.045 A 
ATOM     81  C   UNL     1       1.880  -1.042  15.151  1.00  0.00     0.004 A 
ATOM     82  C   UNL     1       3.818  -1.157  13.719  1.00  0.00     0.004 A 
ATOM     83  C   UNL     1       1.056  -1.315  14.057  1.00  0.00     0.000 A 
ATOM     84  C   UNL     1       2.993  -1.431  12.626  1.00  0.00     0.000 A 
ATOM     85  C   UNL     1       1.613  -1.508  12.795  1.00  0.00     0.000 A 
ENDBRANCH  79  80
ENDBRANCH  76  79
ENDBRANCH  74  76
ENDBRANCH  72  74
ENDBRANCH  70  71
ENDBRANCH   1  69
TORSDOF 17
ENDMDL
MODEL 22
REMARK VINA RESULT:    -6.380      5.001      9.417
REMARK INTER + INTRA:         -25.212
REMARK INTER:                 -18.079
REMARK INTRA:                  -7.133
REMARK UNBOUND:                -6.151
REMARK SMILES C=C1C(=O)N[C@H](C)C(=O)N[C@@H](CC(C)C)C(=O)N[C@@H](C(=O)O)[C@H](C)C(=O)N[C@@H](CCCN=C(N)N)C(=O)N[C@@H](/C=C/C(C)=C/[C@H](C)[C@H](Cc2ccccc2)OC)[C@H](C)C(=O)N[C@@H](C(=O)O)CCC(=O)N1C
REMARK SMILES IDX 39 1 38 2 37 3 36 4 28 6 27 7 25 8 26 9 23 11 24 12 19 13
REMARK SMILES IDX 18 14 16 15 17 16 11 18 10 19 8 20 9 21 12 24 13 25 14 26
REMARK SMILES IDX 15 27 20 28 21 29 22 30 29 32 30 33 31 34 32 35 33 36 34 37
REMARK SMILES IDX 35 38 57 43 58 44 59 45 60 46 61 47 62 49 66 50 67 51 68 52
REMARK SMILES IDX 69 53 70 54 71 55 2 56 1 57 3 58 4 59 5 60 6 62 7 63 63 65
REMARK SMILES IDX 64 66 65 67 40 69 41 70 42 71 44 72 43 73 45 74 46 75 47 76
REMARK SMILES IDX 55 77 56 78 48 79 49 80 50 81 54 82 51 83 53 84 52 85
REMARK H PARENT 38 5 27 10 18 17 10 22 22 31 34 39 34 40 35 41 35 42 61 48
REMARK H PARENT 5 61 65 68
REMARK Flexibility Score:  369.900
ROOT
ATOM      1  C   UNL     1       2.888   1.695  13.560  1.00  0.00     0.117 C 
ENDROOT
BRANCH   1   2
ATOM      2  N   UNL     1       3.190   0.280  13.337  1.00  0.00    -0.347 N 
ATOM      3  O   UNL     1       1.274  -0.597  14.249  1.00  0.00    -0.273 OA
ATOM      4  C   UNL     1       2.314  -0.751  13.618  1.00  0.00     0.243 C 
ATOM      5  H   UNL     1       4.066   0.024  12.908  1.00  0.00     0.164 HD
BRANCH   4   6
ATOM      6  C   UNL     1       2.845  -2.148  13.208  1.00  0.00     0.171 C 
BRANCH   6   7
ATOM      7  N   UNL     1       3.597  -2.759  14.316  1.00  0.00    -0.344 N 
ATOM      8  C   UNL     1       4.917  -2.427  14.536  1.00  0.00     0.226 C 
ATOM      9  O   UNL     1       5.528  -1.641  13.823  1.00  0.00    -0.275 OA
ATOM     10  H   UNL     1       3.146  -3.463  14.885  1.00  0.00     0.164 HD
BRANCH   8  11
ATOM     11  C   UNL     1       5.536  -3.099  15.749  1.00  0.00     0.109 C 
ATOM     12  C   UNL     1       4.977  -2.486  17.033  1.00  0.00     0.021 C 
BRANCH  11  13
ATOM     13  C   UNL     1       5.374  -4.628  15.637  1.00  0.00     0.204 C 
BRANCH  13  14
ATOM     14  N   UNL     1       6.404  -5.231  14.785  1.00  0.00    -0.340 N 
ATOM     15  C   UNL     1       6.117  -6.162  13.810  1.00  0.00     0.243 C 
ATOM     16  O   UNL     1       4.968  -6.508  13.544  1.00  0.00    -0.273 OA
ATOM     17  H   UNL     1       7.383  -5.104  15.053  1.00  0.00     0.164 HD
BRANCH  15  18
ATOM     18  C   UNL     1       7.377  -6.810  13.184  1.00  0.00     0.171 C 
BRANCH  18  19
ATOM     19  N   UNL     1       7.607  -8.060  13.905  1.00  0.00    -0.343 N 
ATOM     20  C   UNL     1       8.200  -8.083  15.153  1.00  0.00     0.242 CG0
ATOM     21  O   UNL     1       8.680  -7.070  15.656  1.00  0.00    -0.273 OA
ATOM     22  H   UNL     1       7.332  -8.938  13.480  1.00  0.00     0.164 HD
ATOM     23  G   UNL     1       8.287  -9.485  15.791  1.00  0.00     0.000 G0
ENDBRANCH  18  19
BRANCH  18  24
ATOM     24  C   UNL     1       7.171  -7.056  11.684  1.00  0.00     0.038 C 
BRANCH  24  25
ATOM     25  C   UNL     1       8.061  -6.196  10.762  1.00  0.00    -0.015 C 
ATOM     26  C   UNL     1       8.737  -7.021   9.666  1.00  0.00     0.007 C 
ATOM     27  C   UNL     1       9.125  -5.478  11.596  1.00  0.00     0.007 C 
ENDBRANCH  24  25
ENDBRANCH  18  24
ENDBRANCH  15  18
ENDBRANCH  13  14
BRANCH  13  28
ATOM     28  C   UNL     1       5.430  -5.342  16.991  1.00  0.00     0.327 C 
ATOM     29  O   UNL     1       4.473  -5.670  17.676  1.00  0.00    -0.250 OA
BRANCH  28  30
ATOM     30  O   UNL     1       6.687  -5.493  17.457  1.00  0.00    -0.480 OA
ATOM     31  H   UNL     1       7.256  -5.271  16.692  1.00  0.00     0.296 HD
ENDBRANCH  28  30
ENDBRANCH  13  28
ENDBRANCH  11  13
ENDBRANCH   8  11
ENDBRANCH   6   7
BRANCH   6  32
ATOM     32  C   UNL     1       1.665  -3.034  12.794  1.00  0.00     0.037 C 
BRANCH  32  33
ATOM     33  C   UNL     1       1.691  -4.399  13.496  1.00  0.00     0.026 C 
BRANCH  33  34
ATOM     34  C   UNL     1       0.506  -4.592  14.443  1.00  0.00     0.146 C 
BRANCH  34  35
ATOM     35  N   UNL     1       0.548  -3.557  15.466  1.00  0.00    -0.254 NA
ATOM     36  C   UNL     1       1.042  -3.845  16.613  1.00  0.00     0.185 C 
ATOM     37  N   UNL     1       1.091  -2.897  17.561  1.00  0.00    -0.370 N 
ATOM     38  N   UNL     1       1.550  -5.013  17.043  1.00  0.00    -0.370 N 
ATOM     39  H   UNL     1       0.735  -1.984  17.309  1.00  0.00     0.159 HD
ATOM     40  H   UNL     1       1.614  -2.991  18.415  1.00  0.00     0.159 HD
ATOM     41  H   UNL     1       1.781  -5.155  18.013  1.00  0.00     0.159 HD
ATOM     42  H   UNL     1       1.563  -5.821  16.440  1.00  0.00     0.159 HD
ENDBRANCH  34  35
ENDBRANCH  33  34
ENDBRANCH  32  33
ENDBRANCH   6  32
ENDBRANCH   4   6
ENDBRANCH   1   2
BRANCH   1  43
ATOM     43  C   UNL     1       2.923   2.431  12.190  1.00  0.00     0.102 C 
ATOM     44  C   UNL     1       2.498   1.544  11.007  1.00  0.00     0.020 C 
BRANCH  43  45
ATOM     45  C   UNL     1       4.264   3.142  11.982  1.00  0.00     0.225 C 
ATOM     46  O   UNL     1       4.517   4.246  12.454  1.00  0.00    -0.275 OA
ATOM     47  N   UNL     1       5.150   2.503  11.145  1.00  0.00    -0.342 N 
ATOM     48  H   UNL     1       4.992   1.538  10.892  1.00  0.00     0.164 HD
BRANCH  47  49
ATOM     49  C   UNL     1       6.485   3.048  10.883  1.00  0.00     0.192 C 
BRANCH  49  50
ATOM     50  C   UNL     1       6.379   4.216   9.899  1.00  0.00     0.047 C 
BRANCH  50  51
ATOM     51  C   UNL     1       5.464   3.894   8.710  1.00  0.00     0.103 C 
BRANCH  51  52
ATOM     52  C   UNL     1       4.241   4.809   8.663  1.00  0.00     0.226 C 
ATOM     53  O   UNL     1       3.116   4.333   8.825  1.00  0.00    -0.275 OA
BRANCH  52  54
ATOM     54  N   UNL     1       4.494   6.185   8.508  1.00  0.00    -0.311 N 
ATOM     55  C   UNL     1       4.144   7.141   9.567  1.00  0.00     0.153 C 
BRANCH  54  56
ATOM     56  C   UNL     1       5.092   6.693   7.344  1.00  0.00     0.102 C 
ATOM     57  C   UNL     1       4.732   6.370   6.091  1.00  0.00     0.043 C 
BRANCH  56  58
ATOM     58  C   UNL     1       6.201   7.716   7.425  1.00  0.00     0.268 C 
ATOM     59  O   UNL     1       7.274   7.498   7.972  1.00  0.00    -0.268 OA
ATOM     60  N   UNL     1       5.906   8.886   6.768  1.00  0.00    -0.339 N 
ATOM     61  H   UNL     1       4.989   8.992   6.349  1.00  0.00     0.164 HD
BRANCH  60  62
ATOM     62  C   UNL     1       6.863   9.987   6.669  1.00  0.00     0.168 CG0
ATOM     63  C   UNL     1       6.151  11.310   6.417  1.00  0.00     0.041 C 
ATOM     64  G   UNL     1       7.877   9.691   5.545  1.00  0.00     0.000 G0
ENDBRANCH  60  62
ENDBRANCH  56  58
ENDBRANCH  54  56
ENDBRANCH  52  54
ENDBRANCH  51  52
ENDBRANCH  50  51
ENDBRANCH  49  50
BRANCH  49  65
ATOM     65  C   UNL     1       7.430   1.982  10.307  1.00  0.00     0.326 C 
ATOM     66  O   UNL     1       7.156   1.201   9.407  1.00  0.00    -0.250 OA
BRANCH  65  67
ATOM     67  O   UNL     1       8.633   1.905  10.917  1.00  0.00    -0.480 OA
ATOM     68  H   UNL     1       8.566   1.091  11.461  1.00  0.00     0.296 HD
ENDBRANCH  65  67
ENDBRANCH  49  65
ENDBRANCH  47  49
ENDBRANCH  43  45
ENDBRANCH   1  43
BRANCH   1  69
ATOM     69  C   UNL     1       3.818   2.158  14.666  1.00  0.00    -0.001 C 
ATOM     70  C   UNL     1       4.734   1.425  15.324  1.00  0.00     0.001 C 
BRANCH  70  71
ATOM     71  C   UNL     1       5.642   1.889  16.375  1.00  0.00    -0.055 C 
ATOM     72  C   UNL     1       5.312   3.018  17.036  1.00  0.00    -0.018 C 
ATOM     73  C   UNL     1       6.875   1.068  16.650  1.00  0.00     0.044 C 
BRANCH  72  74
ATOM     74  C   UNL     1       6.052   3.726  18.162  1.00  0.00     0.038 C 
ATOM     75  C   UNL     1       4.992   4.279  19.122  1.00  0.00     0.015 C 
BRANCH  74  76
ATOM     76  C   UNL     1       6.996   4.799  17.544  1.00  0.00     0.128 C 
BRANCH  76  77
ATOM     77  O   UNL     1       6.828   6.053  18.226  1.00  0.00    -0.381 OA
ATOM     78  C   UNL     1       7.991   6.488  18.918  1.00  0.00     0.195 C 
ENDBRANCH  76  77
BRANCH  76  79
ATOM     79  C   UNL     1       8.479   4.358  17.458  1.00  0.00     0.068 C 
BRANCH  79  80
ATOM     80  C   UNL     1       9.060   4.093  16.090  1.00  0.00    -0.045 A 
ATOM     81  C   UNL     1      10.402   3.721  15.936  1.00  0.00     0.004 A 
ATOM     82  C   UNL     1       8.266   4.243  14.943  1.00  0.00     0.004 A 
ATOM     83  C   UNL     1      10.936   3.491  14.666  1.00  0.00     0.000 A 
ATOM     84  C   UNL     1       8.801   4.014  13.674  1.00  0.00     0.000 A 
ATOM     85  C   UNL     1      10.134   3.636  13.535  1.00  0.00     0.000 A 
ENDBRANCH  79  80
ENDBRANCH  76  79
ENDBRANCH  74  76
ENDBRANCH  72  74
ENDBRANCH  70  71
ENDBRANCH   1  69
TORSDOF 17
ENDMDL
MODEL 23
REMARK VINA RESULT:    -6.365      7.329     14.084
REMARK INTER + INTRA:         -25.168
REMARK INTER:                 -18.846
REMARK INTRA:                  -6.322
REMARK UNBOUND:                -6.151
REMARK SMILES C=C1C(=O)N[C@H](C)C(=O)N[C@@H](CC(C)C)C(=O)N[C@@H](C(=O)O)[C@H](C)C(=O)N[C@@H](CCCN=C(N)N)C(=O)N[C@@H](/C=C/C(C)=C/[C@H](C)[C@H](Cc2ccccc2)OC)[C@H](C)C(=O)N[C@@H](C(=O)O)CCC(=O)N1C
REMARK SMILES IDX 39 1 38 2 37 3 36 4 28 6 27 7 25 8 26 9 23 11 24 12 19 13
REMARK SMILES IDX 18 14 16 15 17 16 11 18 10 19 8 20 9 21 12 24 13 25 14 26
REMARK SMILES IDX 15 27 20 28 21 29 22 30 29 32 30 33 31 34 32 35 33 36 34 37
REMARK SMILES IDX 35 38 57 43 58 44 59 45 60 46 61 47 62 49 66 50 67 51 68 52
REMARK SMILES IDX 69 53 70 54 71 55 2 56 1 57 3 58 4 59 5 60 6 62 7 63 63 65
REMARK SMILES IDX 64 66 65 67 40 69 41 70 42 71 44 72 43 73 45 74 46 75 47 76
REMARK SMILES IDX 55 77 56 78 48 79 49 80 50 81 54 82 51 83 53 84 52 85
REMARK H PARENT 38 5 27 10 18 17 10 22 22 31 34 39 34 40 35 41 35 42 61 48
REMARK H PARENT 5 61 65 68
REMARK Flexibility Score:  369.900
ROOT
ATOM      1  C   UNL     1       6.032   7.736   3.675  1.00  0.00     0.117 C 
ENDROOT
BRANCH   1   2
ATOM      2  N   UNL     1       5.969   7.586   5.129  1.00  0.00    -0.347 N 
ATOM      3  O   UNL     1       4.597   5.747   5.194  1.00  0.00    -0.273 OA
ATOM      4  C   UNL     1       5.329   6.544   5.772  1.00  0.00     0.243 C 
ATOM      5  H   UNL     1       6.458   8.245   5.716  1.00  0.00     0.164 HD
BRANCH   4   6
ATOM      6  C   UNL     1       5.485   6.572   7.313  1.00  0.00     0.171 C 
BRANCH   6   7
ATOM      7  N   UNL     1       6.529   5.627   7.742  1.00  0.00    -0.344 N 
ATOM      8  C   UNL     1       6.208   4.526   8.506  1.00  0.00     0.226 C 
ATOM      9  O   UNL     1       5.066   4.292   8.881  1.00  0.00    -0.275 OA
ATOM     10  H   UNL     1       7.494   5.823   7.508  1.00  0.00     0.164 HD
BRANCH   8  11
ATOM     11  C   UNL     1       7.385   3.618   8.820  1.00  0.00     0.109 C 
ATOM     12  C   UNL     1       8.625   4.081   8.053  1.00  0.00     0.021 C 
BRANCH  11  13
ATOM     13  C   UNL     1       7.569   3.512  10.347  1.00  0.00     0.204 C 
BRANCH  13  14
ATOM     14  N   UNL     1       6.507   2.722  10.977  1.00  0.00    -0.340 N 
ATOM     15  C   UNL     1       5.775   3.174  12.053  1.00  0.00     0.243 C 
ATOM     16  O   UNL     1       5.921   4.301  12.524  1.00  0.00    -0.273 OA
ATOM     17  H   UNL     1       6.440   1.729  10.735  1.00  0.00     0.164 HD
BRANCH  15  18
ATOM     18  C   UNL     1       4.860   2.093  12.677  1.00  0.00     0.171 C 
BRANCH  18  19
ATOM     19  N   UNL     1       5.445   1.745  13.970  1.00  0.00    -0.343 N 
ATOM     20  C   UNL     1       6.602   0.997  14.069  1.00  0.00     0.242 CG0
ATOM     21  O   UNL     1       7.119   0.478  13.082  1.00  0.00    -0.273 OA
ATOM     22  H   UNL     1       4.989   2.053  14.822  1.00  0.00     0.164 HD
ATOM     23  G   UNL     1       7.111   0.797  15.511  1.00  0.00     0.000 G0
ENDBRANCH  18  19
BRANCH  18  24
ATOM     24  C   UNL     1       3.428   2.620  12.832  1.00  0.00     0.038 C 
BRANCH  24  25
ATOM     25  C   UNL     1       2.362   1.833  12.040  1.00  0.00    -0.015 C 
ATOM     26  C   UNL     1       2.192   0.402  12.550  1.00  0.00     0.007 C 
ATOM     27  C   UNL     1       2.738   1.809  10.556  1.00  0.00     0.007 C 
ENDBRANCH  24  25
ENDBRANCH  18  24
ENDBRANCH  15  18
ENDBRANCH  13  14
BRANCH  13  28
ATOM     28  C   UNL     1       8.905   2.882  10.751  1.00  0.00     0.327 C 
ATOM     29  O   UNL     1       9.950   3.478  10.967  1.00  0.00    -0.250 OA
BRANCH  28  30
ATOM     30  O   UNL     1       8.877   1.534  10.745  1.00  0.00    -0.480 OA
ATOM     31  H   UNL     1       9.768   1.273  11.059  1.00  0.00     0.296 HD
ENDBRANCH  28  30
ENDBRANCH  13  28
ENDBRANCH  11  13
ENDBRANCH   8  11
ENDBRANCH   6   7
BRANCH   6  32
ATOM     32  C   UNL     1       5.824   7.999   7.759  1.00  0.00     0.037 C 
BRANCH  32  33
ATOM     33  C   UNL     1       4.578   8.893   7.835  1.00  0.00     0.026 C 
BRANCH  33  34
ATOM     34  C   UNL     1       4.101   9.112   9.272  1.00  0.00     0.146 C 
BRANCH  34  35
ATOM     35  N   UNL     1       3.619   7.845   9.805  1.00  0.00    -0.254 NA
ATOM     36  C   UNL     1       4.301   7.265  10.721  1.00  0.00     0.185 C 
ATOM     37  N   UNL     1       3.863   6.099  11.223  1.00  0.00    -0.370 N 
ATOM     38  N   UNL     1       5.452   7.658  11.296  1.00  0.00    -0.370 N 
ATOM     39  H   UNL     1       2.995   5.741  10.848  1.00  0.00     0.159 HD
ATOM     40  H   UNL     1       4.240   5.675  12.053  1.00  0.00     0.159 HD
ATOM     41  H   UNL     1       5.965   7.045  11.908  1.00  0.00     0.159 HD
ATOM     42  H   UNL     1       5.905   8.510  11.004  1.00  0.00     0.159 HD
ENDBRANCH  34  35
ENDBRANCH  33  34
ENDBRANCH  32  33
ENDBRANCH   6  32
ENDBRANCH   4   6
ENDBRANCH   1   2
BRANCH   1  43
ATOM     43  C   UNL     1       7.340   8.496   3.312  1.00  0.00     0.102 C 
ATOM     44  C   UNL     1       7.255  10.013   3.553  1.00  0.00     0.020 C 
BRANCH  43  45
ATOM     45  C   UNL     1       7.825   8.116   1.909  1.00  0.00     0.225 C 
ATOM     46  O   UNL     1       7.933   8.928   0.994  1.00  0.00    -0.275 OA
ATOM     47  N   UNL     1       8.050   6.774   1.703  1.00  0.00    -0.342 N 
ATOM     48  H   UNL     1       8.104   6.149   2.494  1.00  0.00     0.164 HD
BRANCH  47  49
ATOM     49  C   UNL     1       8.550   6.269   0.421  1.00  0.00     0.192 C 
BRANCH  49  50
ATOM     50  C   UNL     1       8.038   4.845   0.194  1.00  0.00     0.047 C 
BRANCH  50  51
ATOM     51  C   UNL     1       7.208   4.723  -1.091  1.00  0.00     0.103 C 
BRANCH  51  52
ATOM     52  C   UNL     1       7.235   3.305  -1.659  1.00  0.00     0.226 C 
ATOM     53  O   UNL     1       7.495   2.356  -0.917  1.00  0.00    -0.275 OA
BRANCH  52  54
ATOM     54  N   UNL     1       6.877   3.165  -3.013  1.00  0.00    -0.311 N 
ATOM     55  C   UNL     1       5.753   2.308  -3.413  1.00  0.00     0.153 C 
BRANCH  54  56
ATOM     56  C   UNL     1       7.575   3.840  -4.028  1.00  0.00     0.102 C 
ATOM     57  C   UNL     1       8.776   3.478  -4.506  1.00  0.00     0.043 C 
BRANCH  56  58
ATOM     58  C   UNL     1       6.974   5.045  -4.712  1.00  0.00     0.268 C 
ATOM     59  O   UNL     1       7.095   6.186  -4.286  1.00  0.00    -0.268 OA
ATOM     60  N   UNL     1       6.336   4.736  -5.890  1.00  0.00    -0.339 N 
ATOM     61  H   UNL     1       6.270   3.764  -6.168  1.00  0.00     0.164 HD
BRANCH  60  62
ATOM     62  C   UNL     1       5.738   5.762  -6.744  1.00  0.00     0.168 CG0
ATOM     63  C   UNL     1       5.795   5.353  -8.211  1.00  0.00     0.041 C 
ATOM     64  G   UNL     1       6.462   7.106  -6.523  1.00  0.00     0.000 G0
ENDBRANCH  60  62
ENDBRANCH  56  58
ENDBRANCH  54  56
ENDBRANCH  52  54
ENDBRANCH  51  52
ENDBRANCH  50  51
ENDBRANCH  49  50
BRANCH  49  65
ATOM     65  C   UNL     1      10.086   6.272   0.372  1.00  0.00     0.326 C 
ATOM     66  O   UNL     1      10.773   6.984  -0.347  1.00  0.00    -0.250 OA
BRANCH  65  67
ATOM     67  O   UNL     1      10.677   5.354   1.168  1.00  0.00    -0.480 OA
ATOM     68  H   UNL     1      10.886   5.857   1.985  1.00  0.00     0.296 HD
ENDBRANCH  65  67
ENDBRANCH  49  65
ENDBRANCH  47  49
ENDBRANCH  43  45
ENDBRANCH   1  43
BRANCH   1  69
ATOM     69  C   UNL     1       4.699   8.327   3.252  1.00  0.00    -0.001 C 
ATOM     70  C   UNL     1       4.034   8.105   2.105  1.00  0.00     0.001 C 
BRANCH  70  71
ATOM     71  C   UNL     1       2.738   8.665   1.717  1.00  0.00    -0.055 C 
ATOM     72  C   UNL     1       1.709   7.807   1.547  1.00  0.00    -0.018 C 
ATOM     73  C   UNL     1       2.641  10.158   1.542  1.00  0.00     0.044 C 
BRANCH  72  74
ATOM     74  C   UNL     1       0.268   8.098   1.154  1.00  0.00     0.038 C 
ATOM     75  C   UNL     1      -0.625   7.558   2.278  1.00  0.00     0.015 C 
BRANCH  74  76
ATOM     76  C   UNL     1      -0.003   7.479  -0.249  1.00  0.00     0.128 C 
BRANCH  76  77
ATOM     77  O   UNL     1      -1.388   7.641  -0.597  1.00  0.00    -0.381 OA
ATOM     78  C   UNL     1      -1.778   8.997  -0.772  1.00  0.00     0.195 C 
ENDBRANCH  76  77
BRANCH  76  79
ATOM     79  C   UNL     1       0.957   7.984  -1.355  1.00  0.00     0.068 C 
BRANCH  79  80
ATOM     80  C   UNL     1       1.824   6.967  -2.057  1.00  0.00    -0.045 A 
ATOM     81  C   UNL     1       1.255   5.925  -2.803  1.00  0.00     0.004 A 
ATOM     82  C   UNL     1       3.221   7.034  -1.950  1.00  0.00     0.004 A 
ATOM     83  C   UNL     1       2.064   4.980  -3.437  1.00  0.00     0.000 A 
ATOM     84  C   UNL     1       4.029   6.088  -2.585  1.00  0.00     0.000 A 
ATOM     85  C   UNL     1       3.450   5.063  -3.329  1.00  0.00     0.000 A 
ENDBRANCH  79  80
ENDBRANCH  76  79
ENDBRANCH  74  76
ENDBRANCH  72  74
ENDBRANCH  70  71
ENDBRANCH   1  69
TORSDOF 17
ENDMDL
MODEL 24
REMARK VINA RESULT:    -6.326      3.973      5.507
REMARK INTER + INTRA:         -25.050
REMARK INTER:                 -17.654
REMARK INTRA:                  -7.397
REMARK UNBOUND:                -6.151
REMARK SMILES C=C1C(=O)N[C@H](C)C(=O)N[C@@H](CC(C)C)C(=O)N[C@@H](C(=O)O)[C@H](C)C(=O)N[C@@H](CCCN=C(N)N)C(=O)N[C@@H](/C=C/C(C)=C/[C@H](C)[C@H](Cc2ccccc2)OC)[C@H](C)C(=O)N[C@@H](C(=O)O)CCC(=O)N1C
REMARK SMILES IDX 39 1 38 2 37 3 36 4 28 6 27 7 25 8 26 9 23 11 24 12 19 13
REMARK SMILES IDX 18 14 16 15 17 16 11 18 10 19 8 20 9 21 12 24 13 25 14 26
REMARK SMILES IDX 15 27 20 28 21 29 22 30 29 32 30 33 31 34 32 35 33 36 34 37
REMARK SMILES IDX 35 38 57 43 58 44 59 45 60 46 61 47 62 49 66 50 67 51 68 52
REMARK SMILES IDX 69 53 70 54 71 55 2 56 1 57 3 58 4 59 5 60 6 62 7 63 63 65
REMARK SMILES IDX 64 66 65 67 40 69 41 70 42 71 44 72 43 73 45 74 46 75 47 76
REMARK SMILES IDX 55 77 56 78 48 79 49 80 50 81 54 82 51 83 53 84 52 85
REMARK H PARENT 38 5 27 10 18 17 10 22 22 31 34 39 34 40 35 41 35 42 61 48
REMARK H PARENT 5 61 65 68
REMARK Flexibility Score:  369.900
ROOT
ATOM      1  C   UNL     1       5.009   3.367   9.749  1.00  0.00     0.117 C 
ENDROOT
BRANCH   1   2
ATOM      2  N   UNL     1       6.417   3.179  10.103  1.00  0.00    -0.347 N 
ATOM      3  O   UNL     1       6.761   1.207   8.980  1.00  0.00    -0.273 OA
ATOM      4  C   UNL     1       7.208   2.158   9.613  1.00  0.00     0.243 C 
ATOM      5  H   UNL     1       6.870   3.853  10.701  1.00  0.00     0.164 HD
BRANCH   4   6
ATOM      6  C   UNL     1       8.685   2.237  10.075  1.00  0.00     0.171 C 
BRANCH   6   7
ATOM      7  N   UNL     1       8.771   2.824  11.422  1.00  0.00    -0.344 N 
ATOM      8  C   UNL     1       8.222   2.176  12.507  1.00  0.00     0.226 C 
ATOM      9  O   UNL     1       7.624   1.111  12.408  1.00  0.00    -0.275 OA
ATOM     10  H   UNL     1       9.198   3.735  11.534  1.00  0.00     0.164 HD
BRANCH   8  11
ATOM     11  C   UNL     1       8.442   2.881  13.834  1.00  0.00     0.109 C 
ATOM     12  C   UNL     1       7.139   2.918  14.633  1.00  0.00     0.021 C 
BRANCH  11  13
ATOM     13  C   UNL     1       9.636   2.243  14.572  1.00  0.00     0.204 C 
BRANCH  13  14
ATOM     14  N   UNL     1      10.000   0.940  14.009  1.00  0.00    -0.340 N 
ATOM     15  C   UNL     1      10.174  -0.187  14.782  1.00  0.00     0.243 C 
ATOM     16  O   UNL     1       9.976  -0.193  15.996  1.00  0.00    -0.273 OA
ATOM     17  H   UNL     1      10.325   0.909  13.038  1.00  0.00     0.164 HD
BRANCH  15  18
ATOM     18  C   UNL     1      10.757  -1.390  14.000  1.00  0.00     0.171 C 
BRANCH  18  19
ATOM     19  N   UNL     1      10.837  -2.504  14.944  1.00  0.00    -0.343 N 
ATOM     20  C   UNL     1      12.046  -3.066  15.307  1.00  0.00     0.242 CG0
ATOM     21  O   UNL     1      13.096  -2.745  14.755  1.00  0.00    -0.273 OA
ATOM     22  H   UNL     1       9.985  -2.881  15.341  1.00  0.00     0.164 HD
ATOM     23  G   UNL     1      11.938  -4.176  16.372  1.00  0.00     0.000 G0
ENDBRANCH  18  19
BRANCH  18  24
ATOM     24  C   UNL     1       9.871  -1.736  12.798  1.00  0.00     0.038 C 
BRANCH  24  25
ATOM     25  C   UNL     1      10.632  -2.282  11.571  1.00  0.00    -0.015 C 
ATOM     26  C   UNL     1      10.681  -3.810  11.546  1.00  0.00     0.007 C 
ATOM     27  C   UNL     1      12.056  -1.721  11.558  1.00  0.00     0.007 C 
ENDBRANCH  24  25
ENDBRANCH  18  24
ENDBRANCH  15  18
ENDBRANCH  13  14
BRANCH  13  28
ATOM     28  C   UNL     1      10.895   3.116  14.549  1.00  0.00     0.327 C 
ATOM     29  O   UNL     1      11.487   3.557  15.522  1.00  0.00    -0.250 OA
BRANCH  28  30
ATOM     30  O   UNL     1      11.264   3.478  13.303  1.00  0.00    -0.480 OA
ATOM     31  H   UNL     1      10.654   4.209  13.074  1.00  0.00     0.296 HD
ENDBRANCH  28  30
ENDBRANCH  13  28
ENDBRANCH  11  13
ENDBRANCH   8  11
ENDBRANCH   6   7
BRANCH   6  32
ATOM     32  C   UNL     1       9.296   0.832  10.050  1.00  0.00     0.037 C 
BRANCH  32  33
ATOM     33  C   UNL     1      10.611   0.786   9.259  1.00  0.00     0.026 C 
BRANCH  33  34
ATOM     34  C   UNL     1      10.482  -0.003   7.955  1.00  0.00     0.146 C 
BRANCH  34  35
ATOM     35  N   UNL     1       9.678   0.769   7.017  1.00  0.00    -0.254 NA
ATOM     36  C   UNL     1       9.110   0.156   6.046  1.00  0.00     0.185 C 
ATOM     37  N   UNL     1       8.364   0.856   5.178  1.00  0.00    -0.370 N 
ATOM     38  N   UNL     1       9.143  -1.153   5.738  1.00  0.00    -0.370 N 
ATOM     39  H   UNL     1       8.282   1.851   5.348  1.00  0.00     0.159 HD
ATOM     40  H   UNL     1       7.752   0.432   4.502  1.00  0.00     0.159 HD
ATOM     41  H   UNL     1       8.769  -1.493   4.867  1.00  0.00     0.159 HD
ATOM     42  H   UNL     1       9.680  -1.798   6.296  1.00  0.00     0.159 HD
ENDBRANCH  34  35
ENDBRANCH  33  34
ENDBRANCH  32  33
ENDBRANCH   6  32
ENDBRANCH   4   6
ENDBRANCH   1   2
BRANCH   1  43
ATOM     43  C   UNL     1       4.820   4.819   9.223  1.00  0.00     0.102 C 
ATOM     44  C   UNL     1       3.608   4.978   8.290  1.00  0.00     0.020 C 
BRANCH  43  45
ATOM     45  C   UNL     1       6.127   5.368   8.642  1.00  0.00     0.225 C 
ATOM     46  O   UNL     1       6.871   6.122   9.262  1.00  0.00    -0.275 OA
ATOM     47  N   UNL     1       6.378   5.037   7.330  1.00  0.00    -0.342 N 
ATOM     48  H   UNL     1       5.844   4.302   6.889  1.00  0.00     0.164 HD
BRANCH  47  49
ATOM     49  C   UNL     1       7.608   5.462   6.655  1.00  0.00     0.192 C 
BRANCH  49  50
ATOM     50  C   UNL     1       7.298   6.623   5.706  1.00  0.00     0.047 C 
BRANCH  50  51
ATOM     51  C   UNL     1       7.572   7.989   6.349  1.00  0.00     0.103 C 
BRANCH  51  52
ATOM     52  C   UNL     1       6.528   9.030   5.952  1.00  0.00     0.226 C 
ATOM     53  O   UNL     1       6.827   9.921   5.156  1.00  0.00    -0.275 OA
BRANCH  52  54
ATOM     54  N   UNL     1       5.235   8.853   6.480  1.00  0.00    -0.311 N 
ATOM     55  C   UNL     1       4.254   7.993   5.805  1.00  0.00     0.153 C 
BRANCH  54  56
ATOM     56  C   UNL     1       4.837   9.485   7.670  1.00  0.00     0.102 C 
ATOM     57  C   UNL     1       4.977   8.966   8.900  1.00  0.00     0.043 C 
BRANCH  56  58
ATOM     58  C   UNL     1       4.239  10.872   7.648  1.00  0.00     0.268 C 
ATOM     59  O   UNL     1       4.841  11.855   7.237  1.00  0.00    -0.268 OA
ATOM     60  N   UNL     1       2.932  10.904   8.073  1.00  0.00    -0.339 N 
ATOM     61  H   UNL     1       2.508  10.047   8.407  1.00  0.00     0.164 HD
BRANCH  60  62
ATOM     62  C   UNL     1       2.142  12.134   8.073  1.00  0.00     0.168 CG0
ATOM     63  C   UNL     1       2.227  12.839   9.421  1.00  0.00     0.041 C 
ATOM     64  G   UNL     1       0.676  11.808   7.719  1.00  0.00     0.000 G0
ENDBRANCH  60  62
ENDBRANCH  56  58
ENDBRANCH  54  56
ENDBRANCH  52  54
ENDBRANCH  51  52
ENDBRANCH  50  51
ENDBRANCH  49  50
BRANCH  49  65
ATOM     65  C   UNL     1       8.244   4.311   5.860  1.00  0.00     0.326 C 
ATOM     66  O   UNL     1       7.988   4.021   4.700  1.00  0.00    -0.250 OA
BRANCH  65  67
ATOM     67  O   UNL     1       9.114   3.553   6.564  1.00  0.00    -0.480 OA
ATOM     68  H   UNL     1       8.598   2.745   6.775  1.00  0.00     0.296 HD
ENDBRANCH  65  67
ENDBRANCH  49  65
ENDBRANCH  47  49
ENDBRANCH  43  45
ENDBRANCH   1  43
BRANCH   1  69
ATOM     69  C   UNL     1       4.205   2.913  10.954  1.00  0.00    -0.001 C 
ATOM     70  C   UNL     1       4.504   1.918  11.808  1.00  0.00     0.001 C 
BRANCH  70  71
ATOM     71  C   UNL     1       3.731   1.504  12.980  1.00  0.00    -0.055 C 
ATOM     72  C   UNL     1       4.296   0.611  13.821  1.00  0.00    -0.018 C 
ATOM     73  C   UNL     1       2.364   2.108  13.170  1.00  0.00     0.044 C 
BRANCH  72  74
ATOM     74  C   UNL     1       3.738   0.009  15.103  1.00  0.00     0.038 C 
ATOM     75  C   UNL     1       4.615   0.510  16.257  1.00  0.00     0.015 C 
BRANCH  74  76
ATOM     76  C   UNL     1       3.685  -1.539  14.947  1.00  0.00     0.128 C 
BRANCH  76  77
ATOM     77  O   UNL     1       3.185  -2.138  16.155  1.00  0.00    -0.381 OA
ATOM     78  C   UNL     1       3.876  -3.320  16.535  1.00  0.00     0.195 C 
ENDBRANCH  76  77
BRANCH  76  79
ATOM     79  C   UNL     1       2.929  -2.020  13.683  1.00  0.00     0.068 C 
BRANCH  79  80
ATOM     80  C   UNL     1       1.474  -2.394  13.829  1.00  0.00    -0.045 A 
ATOM     81  C   UNL     1       0.495  -1.416  14.050  1.00  0.00     0.004 A 
ATOM     82  C   UNL     1       1.081  -3.740  13.772  1.00  0.00     0.004 A 
ATOM     83  C   UNL     1      -0.847  -1.772  14.199  1.00  0.00     0.000 A 
ATOM     84  C   UNL     1      -0.262  -4.095  13.921  1.00  0.00     0.000 A 
ATOM     85  C   UNL     1      -1.225  -3.111  14.133  1.00  0.00     0.000 A 
ENDBRANCH  79  80
ENDBRANCH  76  79
ENDBRANCH  74  76
ENDBRANCH  72  74
ENDBRANCH  70  71
ENDBRANCH   1  69
TORSDOF 17
ENDMDL
MODEL 25
REMARK VINA RESULT:    -6.277      7.246     13.240
REMARK INTER + INTRA:         -24.905
REMARK INTER:                 -17.414
REMARK INTRA:                  -7.491
REMARK UNBOUND:                -6.151
REMARK SMILES C=C1C(=O)N[C@H](C)C(=O)N[C@@H](CC(C)C)C(=O)N[C@@H](C(=O)O)[C@H](C)C(=O)N[C@@H](CCCN=C(N)N)C(=O)N[C@@H](/C=C/C(C)=C/[C@H](C)[C@H](Cc2ccccc2)OC)[C@H](C)C(=O)N[C@@H](C(=O)O)CCC(=O)N1C
REMARK SMILES IDX 39 1 38 2 37 3 36 4 28 6 27 7 25 8 26 9 23 11 24 12 19 13
REMARK SMILES IDX 18 14 16 15 17 16 11 18 10 19 8 20 9 21 12 24 13 25 14 26
REMARK SMILES IDX 15 27 20 28 21 29 22 30 29 32 30 33 31 34 32 35 33 36 34 37
REMARK SMILES IDX 35 38 57 43 58 44 59 45 60 46 61 47 62 49 66 50 67 51 68 52
REMARK SMILES IDX 69 53 70 54 71 55 2 56 1 57 3 58 4 59 5 60 6 62 7 63 63 65
REMARK SMILES IDX 64 66 65 67 40 69 41 70 42 71 44 72 43 73 45 74 46 75 47 76
REMARK SMILES IDX 55 77 56 78 48 79 49 80 50 81 54 82 51 83 53 84 52 85
REMARK H PARENT 38 5 27 10 18 17 10 22 22 31 34 39 34 40 35 41 35 42 61 48
REMARK H PARENT 5 61 65 68
REMARK Flexibility Score:  369.900
ROOT
ATOM      1  C   UNL     1       6.286   8.519   3.452  1.00  0.00     0.117 C 
ENDROOT
BRANCH   1   2
ATOM      2  N   UNL     1       6.759   7.447   4.328  1.00  0.00    -0.347 N 
ATOM      3  O   UNL     1       8.995   7.965   4.278  1.00  0.00    -0.273 OA
ATOM      4  C   UNL     1       8.069   7.311   4.746  1.00  0.00     0.243 C 
ATOM      5  H   UNL     1       6.096   6.785   4.702  1.00  0.00     0.164 HD
BRANCH   4   6
ATOM      6  C   UNL     1       8.288   6.142   5.740  1.00  0.00     0.171 C 
BRANCH   6   7
ATOM      7  N   UNL     1       7.399   6.284   6.904  1.00  0.00    -0.344 N 
ATOM      8  C   UNL     1       7.625   7.264   7.846  1.00  0.00     0.226 C 
ATOM      9  O   UNL     1       8.571   8.039   7.778  1.00  0.00    -0.275 OA
ATOM     10  H   UNL     1       6.646   5.619   7.030  1.00  0.00     0.164 HD
BRANCH   8  11
ATOM     11  C   UNL     1       6.590   7.316   8.956  1.00  0.00     0.109 C 
ATOM     12  C   UNL     1       5.800   8.622   8.878  1.00  0.00     0.021 C 
BRANCH  11  13
ATOM     13  C   UNL     1       5.731   6.036   8.927  1.00  0.00     0.204 C 
BRANCH  13  14
ATOM     14  N   UNL     1       5.705   5.359  10.228  1.00  0.00    -0.340 N 
ATOM     15  C   UNL     1       6.432   4.219  10.492  1.00  0.00     0.243 C 
ATOM     16  O   UNL     1       7.202   3.721   9.673  1.00  0.00    -0.273 OA
ATOM     17  H   UNL     1       4.978   5.629  10.896  1.00  0.00     0.164 HD
BRANCH  15  18
ATOM     18  C   UNL     1       6.089   3.568  11.855  1.00  0.00     0.171 C 
BRANCH  18  19
ATOM     19  N   UNL     1       6.882   4.267  12.864  1.00  0.00    -0.343 N 
ATOM     20  C   UNL     1       8.114   3.797  13.277  1.00  0.00     0.242 CG0
ATOM     21  O   UNL     1       8.539   2.703  12.914  1.00  0.00    -0.273 OA
ATOM     22  H   UNL     1       6.520   5.117  13.280  1.00  0.00     0.164 HD
ATOM     23  G   UNL     1       8.837   4.709  14.289  1.00  0.00     0.000 G0
ENDBRANCH  18  19
BRANCH  18  24
ATOM     24  C   UNL     1       4.587   3.679  12.145  1.00  0.00     0.038 C 
BRANCH  24  25
ATOM     25  C   UNL     1       3.790   2.375  11.926  1.00  0.00    -0.015 C 
ATOM     26  C   UNL     1       3.131   2.316  10.547  1.00  0.00     0.007 C 
ATOM     27  C   UNL     1       2.722   2.236  13.014  1.00  0.00     0.007 C 
ENDBRANCH  24  25
ENDBRANCH  18  24
ENDBRANCH  15  18
ENDBRANCH  13  14
BRANCH  13  28
ATOM     28  C   UNL     1       4.276   6.294   8.522  1.00  0.00     0.327 C 
ATOM     29  O   UNL     1       3.301   6.242   9.256  1.00  0.00    -0.250 OA
BRANCH  28  30
ATOM     30  O   UNL     1       4.123   6.484   7.196  1.00  0.00    -0.480 OA
ATOM     31  H   UNL     1       3.885   5.598   6.851  1.00  0.00     0.296 HD
ENDBRANCH  28  30
ENDBRANCH  13  28
ENDBRANCH  11  13
ENDBRANCH   8  11
ENDBRANCH   6   7
BRANCH   6  32
ATOM     32  C   UNL     1       8.038   4.814   5.018  1.00  0.00     0.037 C 
BRANCH  32  33
ATOM     33  C   UNL     1       7.616   3.699   5.986  1.00  0.00     0.026 C 
BRANCH  33  34
ATOM     34  C   UNL     1       7.571   2.326   5.314  1.00  0.00     0.146 C 
BRANCH  34  35
ATOM     35  N   UNL     1       8.738   1.561   5.732  1.00  0.00    -0.254 NA
ATOM     36  C   UNL     1       8.803   1.154   6.945  1.00  0.00     0.185 C 
ATOM     37  N   UNL     1       9.871   0.443   7.339  1.00  0.00    -0.370 N 
ATOM     38  N   UNL     1       7.922   1.333   7.945  1.00  0.00    -0.370 N 
ATOM     39  H   UNL     1      10.577   0.256   6.638  1.00  0.00     0.159 HD
ATOM     40  H   UNL     1       9.916  -0.055   8.212  1.00  0.00     0.159 HD
ATOM     41  H   UNL     1       8.152   1.083   8.893  1.00  0.00     0.159 HD
ATOM     42  H   UNL     1       7.078   1.864   7.795  1.00  0.00     0.159 HD
ENDBRANCH  34  35
ENDBRANCH  33  34
ENDBRANCH  32  33
ENDBRANCH   6  32
ENDBRANCH   4   6
ENDBRANCH   1   2
BRANCH   1  43
ATOM     43  C   UNL     1       4.890   8.989   3.953  1.00  0.00     0.102 C 
ATOM     44  C   UNL     1       4.885   9.429   5.427  1.00  0.00     0.020 C 
BRANCH  43  45
ATOM     45  C   UNL     1       3.808   7.962   3.608  1.00  0.00     0.225 C 
ATOM     46  O   UNL     1       3.740   6.855   4.136  1.00  0.00    -0.275 OA
ATOM     47  N   UNL     1       2.956   8.319   2.588  1.00  0.00    -0.342 N 
ATOM     48  H   UNL     1       2.927   9.278   2.273  1.00  0.00     0.164 HD
BRANCH  47  49
ATOM     49  C   UNL     1       1.850   7.451   2.174  1.00  0.00     0.192 C 
BRANCH  49  50
ATOM     50  C   UNL     1       2.132   6.887   0.779  1.00  0.00     0.047 C 
BRANCH  50  51
ATOM     51  C   UNL     1       0.869   6.328   0.110  1.00  0.00     0.103 C 
BRANCH  51  52
ATOM     52  C   UNL     1       0.936   6.423  -1.413  1.00  0.00     0.226 C 
ATOM     53  O   UNL     1       1.151   5.408  -2.078  1.00  0.00    -0.275 OA
BRANCH  52  54
ATOM     54  N   UNL     1       0.667   7.685  -1.975  1.00  0.00    -0.311 N 
ATOM     55  C   UNL     1       1.728   8.464  -2.626  1.00  0.00     0.153 C 
BRANCH  54  56
ATOM     56  C   UNL     1      -0.622   8.242  -1.940  1.00  0.00     0.102 C 
ATOM     57  C   UNL     1      -0.900   9.517  -1.622  1.00  0.00     0.043 C 
BRANCH  56  58
ATOM     58  C   UNL     1      -1.832   7.420  -2.316  1.00  0.00     0.268 C 
ATOM     59  O   UNL     1      -2.935   7.582  -1.812  1.00  0.00    -0.268 OA
ATOM     60  N   UNL     1      -1.582   6.522  -3.326  1.00  0.00    -0.339 N 
ATOM     61  H   UNL     1      -0.638   6.441  -3.684  1.00  0.00     0.164 HD
BRANCH  60  62
ATOM     62  C   UNL     1      -2.629   5.669  -3.888  1.00  0.00     0.168 CG0
ATOM     63  C   UNL     1      -2.926   6.048  -5.333  1.00  0.00     0.041 C 
ATOM     64  G   UNL     1      -3.902   5.777  -3.023  1.00  0.00     0.000 G0
ENDBRANCH  60  62
ENDBRANCH  56  58
ENDBRANCH  54  56
ENDBRANCH  52  54
ENDBRANCH  51  52
ENDBRANCH  50  51
ENDBRANCH  49  50
BRANCH  49  65
ATOM     65  C   UNL     1       0.512   8.206   2.156  1.00  0.00     0.326 C 
ATOM     66  O   UNL     1       0.320   9.299   1.643  1.00  0.00    -0.250 OA
BRANCH  65  67
ATOM     67  O   UNL     1      -0.490   7.595   2.825  1.00  0.00    -0.480 OA
ATOM     68  H   UNL     1      -0.736   6.846   2.240  1.00  0.00     0.296 HD
ENDBRANCH  65  67
ENDBRANCH  49  65
ENDBRANCH  47  49
ENDBRANCH  43  45
ENDBRANCH   1  43
BRANCH   1  69
ATOM     69  C   UNL     1       6.418   7.996   2.033  1.00  0.00    -0.001 C 
ATOM     70  C   UNL     1       6.201   8.670   0.890  1.00  0.00     0.001 C 
BRANCH  70  71
ATOM     71  C   UNL     1       6.352   8.161  -0.474  1.00  0.00    -0.055 C 
ATOM     72  C   UNL     1       5.896   6.917  -0.734  1.00  0.00    -0.018 C 
ATOM     73  C   UNL     1       6.999   9.063  -1.493  1.00  0.00     0.044 C 
BRANCH  72  74
ATOM     74  C   UNL     1       5.915   6.138  -2.041  1.00  0.00     0.038 C 
ATOM     75  C   UNL     1       4.460   5.991  -2.502  1.00  0.00     0.015 C 
BRANCH  74  76
ATOM     76  C   UNL     1       6.667   4.793  -1.812  1.00  0.00     0.128 C 
BRANCH  76  77
ATOM     77  O   UNL     1       6.089   3.763  -2.631  1.00  0.00    -0.381 OA
ATOM     78  C   UNL     1       6.489   2.449  -2.263  1.00  0.00     0.195 C 
ENDBRANCH  76  77
BRANCH  76  79
ATOM     79  C   UNL     1       8.204   4.896  -1.974  1.00  0.00     0.068 C 
BRANCH  79  80
ATOM     80  C   UNL     1       8.974   5.670  -0.932  1.00  0.00    -0.045 A 
ATOM     81  C   UNL     1       8.857   5.362   0.430  1.00  0.00     0.004 A 
ATOM     82  C   UNL     1       9.803   6.737  -1.312  1.00  0.00     0.004 A 
ATOM     83  C   UNL     1       9.562   6.092   1.389  1.00  0.00     0.000 A 
ATOM     84  C   UNL     1      10.507   7.467  -0.352  1.00  0.00     0.000 A 
ATOM     85  C   UNL     1      10.388   7.144   0.997  1.00  0.00     0.000 A 
ENDBRANCH  79  80
ENDBRANCH  76  79
ENDBRANCH  74  76
ENDBRANCH  72  74
ENDBRANCH  70  71
ENDBRANCH   1  69
TORSDOF 17
ENDMDL
MODEL 26
REMARK VINA RESULT:    -6.275      4.437      8.816
REMARK INTER + INTRA:         -24.899
REMARK INTER:                 -18.632
REMARK INTRA:                  -6.267
REMARK UNBOUND:                -6.151
REMARK SMILES C=C1C(=O)N[C@H](C)C(=O)N[C@@H](CC(C)C)C(=O)N[C@@H](C(=O)O)[C@H](C)C(=O)N[C@@H](CCCN=C(N)N)C(=O)N[C@@H](/C=C/C(C)=C/[C@H](C)[C@H](Cc2ccccc2)OC)[C@H](C)C(=O)N[C@@H](C(=O)O)CCC(=O)N1C
REMARK SMILES IDX 39 1 38 2 37 3 36 4 28 6 27 7 25 8 26 9 23 11 24 12 19 13
REMARK SMILES IDX 18 14 16 15 17 16 11 18 10 19 8 20 9 21 12 24 13 25 14 26
REMARK SMILES IDX 15 27 20 28 21 29 22 30 29 32 30 33 31 34 32 35 33 36 34 37
REMARK SMILES IDX 35 38 57 43 58 44 59 45 60 46 61 47 62 49 66 50 67 51 68 52
REMARK SMILES IDX 69 53 70 54 71 55 2 56 1 57 3 58 4 59 5 60 6 62 7 63 63 65
REMARK SMILES IDX 64 66 65 67 40 69 41 70 42 71 44 72 43 73 45 74 46 75 47 76
REMARK SMILES IDX 55 77 56 78 48 79 49 80 50 81 54 82 51 83 53 84 52 85
REMARK H PARENT 38 5 27 10 18 17 10 22 22 31 34 39 34 40 35 41 35 42 61 48
REMARK H PARENT 5 61 65 68
REMARK Flexibility Score:  369.900
ROOT
ATOM      1  C   UNL     1       2.824   2.090  12.564  1.00  0.00     0.117 C 
ENDROOT
BRANCH   1   2
ATOM      2  N   UNL     1       4.157   2.087  11.959  1.00  0.00    -0.347 N 
ATOM      3  O   UNL     1       3.519   2.509   9.795  1.00  0.00    -0.273 OA
ATOM      4  C   UNL     1       4.405   2.389  10.634  1.00  0.00     0.243 C 
ATOM      5  H   UNL     1       4.962   1.905  12.539  1.00  0.00     0.164 HD
BRANCH   4   6
ATOM      6  C   UNL     1       5.911   2.398  10.269  1.00  0.00     0.171 C 
BRANCH   6   7
ATOM      7  N   UNL     1       6.225   3.550   9.408  1.00  0.00    -0.344 N 
ATOM      8  C   UNL     1       6.195   4.833   9.912  1.00  0.00     0.226 C 
ATOM      9  O   UNL     1       5.891   5.079  11.073  1.00  0.00    -0.275 OA
ATOM     10  H   UNL     1       6.415   3.392   8.427  1.00  0.00     0.164 HD
BRANCH   8  11
ATOM     11  C   UNL     1       6.595   5.906   8.915  1.00  0.00     0.109 C 
ATOM     12  C   UNL     1       7.488   5.307   7.828  1.00  0.00     0.021 C 
BRANCH  11  13
ATOM     13  C   UNL     1       5.337   6.629   8.394  1.00  0.00     0.204 C 
BRANCH  13  14
ATOM     14  N   UNL     1       5.535   7.184   7.052  1.00  0.00    -0.340 N 
ATOM     15  C   UNL     1       5.489   8.536   6.787  1.00  0.00     0.243 C 
ATOM     16  O   UNL     1       5.338   9.377   7.671  1.00  0.00    -0.273 OA
ATOM     17  H   UNL     1       5.513   6.539   6.257  1.00  0.00     0.164 HD
BRANCH  15  18
ATOM     18  C   UNL     1       5.518   8.871   5.275  1.00  0.00     0.171 C 
BRANCH  18  19
ATOM     19  N   UNL     1       6.527   9.913   5.097  1.00  0.00    -0.343 N 
ATOM     20  C   UNL     1       6.183  11.214   4.783  1.00  0.00     0.242 CG0
ATOM     21  O   UNL     1       5.027  11.526   4.509  1.00  0.00    -0.273 OA
ATOM     22  H   UNL     1       7.508   9.679   5.199  1.00  0.00     0.164 HD
ATOM     23  G   UNL     1       7.377  12.189   4.713  1.00  0.00     0.000 G0
ENDBRANCH  18  19
BRANCH  18  24
ATOM     24  C   UNL     1       5.848   7.622   4.450  1.00  0.00     0.038 C 
BRANCH  24  25
ATOM     25  C   UNL     1       7.242   7.637   3.787  1.00  0.00    -0.015 C 
ATOM     26  C   UNL     1       7.165   7.581   2.261  1.00  0.00     0.007 C 
ATOM     27  C   UNL     1       8.071   6.459   4.304  1.00  0.00     0.007 C 
ENDBRANCH  24  25
ENDBRANCH  18  24
ENDBRANCH  15  18
ENDBRANCH  13  14
BRANCH  13  28
ATOM     28  C   UNL     1       4.103   5.724   8.333  1.00  0.00     0.327 C 
ATOM     29  O   UNL     1       3.113   5.802   9.045  1.00  0.00    -0.250 OA
BRANCH  28  30
ATOM     30  O   UNL     1       4.238   4.703   7.462  1.00  0.00    -0.480 OA
ATOM     31  H   UNL     1       3.318   4.470   7.219  1.00  0.00     0.296 HD
ENDBRANCH  28  30
ENDBRANCH  13  28
ENDBRANCH  11  13
ENDBRANCH   8  11
ENDBRANCH   6   7
BRANCH   6  32
ATOM     32  C   UNL     1       6.741   2.436  11.557  1.00  0.00     0.037 C 
BRANCH  32  33
ATOM     33  C   UNL     1       8.025   1.603  11.444  1.00  0.00     0.026 C 
BRANCH  33  34
ATOM     34  C   UNL     1       9.263   2.465  11.195  1.00  0.00     0.146 C 
BRANCH  34  35
ATOM     35  N   UNL     1       9.257   2.908   9.808  1.00  0.00    -0.254 NA
ATOM     36  C   UNL     1       9.863   2.195   8.933  1.00  0.00     0.185 C 
ATOM     37  N   UNL     1       9.859   2.590   7.650  1.00  0.00    -0.370 N 
ATOM     38  N   UNL     1      10.541   1.046   9.102  1.00  0.00    -0.370 N 
ATOM     39  H   UNL     1       9.358   3.444   7.440  1.00  0.00     0.159 HD
ATOM     40  H   UNL     1      10.156   2.007   6.887  1.00  0.00     0.159 HD
ATOM     41  H   UNL     1      11.093   0.653   8.357  1.00  0.00     0.159 HD
ATOM     42  H   UNL     1      10.640   0.639  10.019  1.00  0.00     0.159 HD
ENDBRANCH  34  35
ENDBRANCH  33  34
ENDBRANCH  32  33
ENDBRANCH   6  32
ENDBRANCH   4   6
ENDBRANCH   1   2
BRANCH   1  43
ATOM     43  C   UNL     1       2.911   2.794  13.949  1.00  0.00     0.102 C 
ATOM     44  C   UNL     1       2.369   4.233  13.939  1.00  0.00     0.020 C 
BRANCH  43  45
ATOM     45  C   UNL     1       4.315   2.662  14.546  1.00  0.00     0.225 C 
ATOM     46  O   UNL     1       5.250   3.391  14.227  1.00  0.00    -0.275 OA
ATOM     47  N   UNL     1       4.496   1.604  15.407  1.00  0.00    -0.342 N 
ATOM     48  H   UNL     1       3.692   1.114  15.773  1.00  0.00     0.164 HD
BRANCH  47  49
ATOM     49  C   UNL     1       5.777   1.375  16.081  1.00  0.00     0.192 C 
BRANCH  49  50
ATOM     50  C   UNL     1       6.100  -0.121  16.080  1.00  0.00     0.047 C 
BRANCH  50  51
ATOM     51  C   UNL     1       5.921  -0.754  14.693  1.00  0.00     0.103 C 
BRANCH  51  52
ATOM     52  C   UNL     1       7.115  -1.620  14.300  1.00  0.00     0.226 C 
ATOM     53  O   UNL     1       8.165  -1.085  13.939  1.00  0.00    -0.275 OA
BRANCH  52  54
ATOM     54  N   UNL     1       6.958  -3.011  14.450  1.00  0.00    -0.311 N 
ATOM     55  C   UNL     1       7.958  -3.947  13.920  1.00  0.00     0.153 C 
BRANCH  54  56
ATOM     56  C   UNL     1       5.846  -3.554  15.115  1.00  0.00     0.102 C 
ATOM     57  C   UNL     1       4.742  -4.021  14.510  1.00  0.00     0.043 C 
BRANCH  56  58
ATOM     58  C   UNL     1       5.836  -3.697  16.619  1.00  0.00     0.268 C 
ATOM     59  O   UNL     1       6.853  -3.681  17.300  1.00  0.00    -0.268 OA
ATOM     60  N   UNL     1       4.569  -3.779  17.145  1.00  0.00    -0.339 N 
ATOM     61  H   UNL     1       3.779  -3.797  16.512  1.00  0.00     0.164 HD
BRANCH  60  62
ATOM     62  C   UNL     1       4.327  -3.860  18.585  1.00  0.00     0.168 CG0
ATOM     63  C   UNL     1       4.306  -5.309  19.056  1.00  0.00     0.041 C 
ATOM     64  G   UNL     1       2.998  -3.156  18.927  1.00  0.00     0.000 G0
ENDBRANCH  60  62
ENDBRANCH  56  58
ENDBRANCH  54  56
ENDBRANCH  52  54
ENDBRANCH  51  52
ENDBRANCH  50  51
ENDBRANCH  49  50
BRANCH  49  65
ATOM     65  C   UNL     1       5.756   1.890  17.529  1.00  0.00     0.326 C 
ATOM     66  O   UNL     1       6.104   3.004  17.893  1.00  0.00    -0.250 OA
BRANCH  65  67
ATOM     67  O   UNL     1       5.363   0.978  18.446  1.00  0.00    -0.480 OA
ATOM     68  H   UNL     1       6.180   0.467  18.629  1.00  0.00     0.296 HD
ENDBRANCH  65  67
ENDBRANCH  49  65
ENDBRANCH  47  49
ENDBRANCH  43  45
ENDBRANCH   1  43
BRANCH   1  69
ATOM     69  C   UNL     1       2.326   0.658  12.499  1.00  0.00    -0.001 C 
ATOM     70  C   UNL     1       1.983  -0.136  13.529  1.00  0.00     0.001 C 
BRANCH  70  71
ATOM     71  C   UNL     1       1.483  -1.510  13.452  1.00  0.00    -0.055 C 
ATOM     72  C   UNL     1       0.378  -1.816  14.164  1.00  0.00    -0.018 C 
ATOM     73  C   UNL     1       2.232  -2.482  12.579  1.00  0.00     0.044 C 
BRANCH  72  74
ATOM     74  C   UNL     1      -0.361  -3.142  14.273  1.00  0.00     0.038 C 
ATOM     75  C   UNL     1      -1.799  -2.826  14.700  1.00  0.00     0.015 C 
BRANCH  74  76
ATOM     76  C   UNL     1       0.421  -4.072  15.248  1.00  0.00     0.128 C 
BRANCH  76  77
ATOM     77  O   UNL     1      -0.093  -3.926  16.582  1.00  0.00    -0.381 OA
ATOM     78  C   UNL     1       0.855  -3.407  17.506  1.00  0.00     0.195 C 
ENDBRANCH  76  77
BRANCH  76  79
ATOM     79  C   UNL     1       0.488  -5.550  14.789  1.00  0.00     0.068 C 
BRANCH  79  80
ATOM     80  C   UNL     1       1.350  -6.499  15.587  1.00  0.00    -0.045 A 
ATOM     81  C   UNL     1       0.788  -7.353  16.545  1.00  0.00     0.004 A 
ATOM     82  C   UNL     1       2.740  -6.520  15.399  1.00  0.00     0.004 A 
ATOM     83  C   UNL     1       1.594  -8.218  17.289  1.00  0.00     0.000 A 
ATOM     84  C   UNL     1       3.545  -7.385  16.143  1.00  0.00     0.000 A 
ATOM     85  C   UNL     1       2.972  -8.234  17.087  1.00  0.00     0.000 A 
ENDBRANCH  79  80
ENDBRANCH  76  79
ENDBRANCH  74  76
ENDBRANCH  72  74
ENDBRANCH  70  71
ENDBRANCH   1  69
TORSDOF 17
ENDMDL
MODEL 27
REMARK VINA RESULT:    -6.267     15.101     19.335
REMARK INTER + INTRA:         -24.875
REMARK INTER:                 -17.203
REMARK INTRA:                  -7.673
REMARK UNBOUND:                -6.151
REMARK SMILES C=C1C(=O)N[C@H](C)C(=O)N[C@@H](CC(C)C)C(=O)N[C@@H](C(=O)O)[C@H](C)C(=O)N[C@@H](CCCN=C(N)N)C(=O)N[C@@H](/C=C/C(C)=C/[C@H](C)[C@H](Cc2ccccc2)OC)[C@H](C)C(=O)N[C@@H](C(=O)O)CCC(=O)N1C
REMARK SMILES IDX 39 1 38 2 37 3 36 4 28 6 27 7 25 8 26 9 23 11 24 12 19 13
REMARK SMILES IDX 18 14 16 15 17 16 11 18 10 19 8 20 9 21 12 24 13 25 14 26
REMARK SMILES IDX 15 27 20 28 21 29 22 30 29 32 30 33 31 34 32 35 33 36 34 37
REMARK SMILES IDX 35 38 57 43 58 44 59 45 60 46 61 47 62 49 66 50 67 51 68 52
REMARK SMILES IDX 69 53 70 54 71 55 2 56 1 57 3 58 4 59 5 60 6 62 7 63 63 65
REMARK SMILES IDX 64 66 65 67 40 69 41 70 42 71 44 72 43 73 45 74 46 75 47 76
REMARK SMILES IDX 55 77 56 78 48 79 49 80 50 81 54 82 51 83 53 84 52 85
REMARK H PARENT 38 5 27 10 18 17 10 22 22 31 34 39 34 40 35 41 35 42 61 48
REMARK H PARENT 5 61 65 68
REMARK Flexibility Score:  369.900
ROOT
ATOM      1  C   UNL     1      -9.256   2.124   1.909  1.00  0.00     0.117 C 
ENDROOT
BRANCH   1   2
ATOM      2  N   UNL     1      -9.778   3.061   0.913  1.00  0.00    -0.347 N 
ATOM      3  O   UNL     1      -7.771   3.928   0.216  1.00  0.00    -0.273 OA
ATOM      4  C   UNL     1      -8.985   3.825   0.079  1.00  0.00     0.243 C 
ATOM      5  H   UNL     1     -10.775   3.133   0.777  1.00  0.00     0.164 HD
BRANCH   4   6
ATOM      6  C   UNL     1      -9.788   4.669  -0.943  1.00  0.00     0.171 C 
BRANCH   6   7
ATOM      7  N   UNL     1      -8.977   4.932  -2.143  1.00  0.00    -0.344 N 
ATOM      8  C   UNL     1      -8.945   6.188  -2.709  1.00  0.00     0.226 C 
ATOM      9  O   UNL     1      -9.594   7.128  -2.266  1.00  0.00    -0.275 OA
ATOM     10  H   UNL     1      -8.480   4.164  -2.577  1.00  0.00     0.164 HD
BRANCH   8  11
ATOM     11  C   UNL     1      -8.021   6.311  -3.907  1.00  0.00     0.109 C 
ATOM     12  C   UNL     1      -7.693   7.781  -4.170  1.00  0.00     0.021 C 
BRANCH  11  13
ATOM     13  C   UNL     1      -6.794   5.398  -3.715  1.00  0.00     0.204 C 
BRANCH  13  14
ATOM     14  N   UNL     1      -6.144   5.072  -4.988  1.00  0.00    -0.340 N 
ATOM     15  C   UNL     1      -6.483   3.969  -5.741  1.00  0.00     0.243 C 
ATOM     16  O   UNL     1      -7.399   3.211  -5.426  1.00  0.00    -0.273 OA
ATOM     17  H   UNL     1      -5.282   5.569  -5.229  1.00  0.00     0.164 HD
BRANCH  15  18
ATOM     18  C   UNL     1      -5.527   3.714  -6.932  1.00  0.00     0.171 C 
BRANCH  18  19
ATOM     19  N   UNL     1      -4.172   3.957  -6.440  1.00  0.00    -0.343 N 
ATOM     20  C   UNL     1      -3.258   4.700  -7.161  1.00  0.00     0.242 CG0
ATOM     21  O   UNL     1      -3.496   5.079  -8.305  1.00  0.00    -0.273 OA
ATOM     22  H   UNL     1      -3.889   3.566  -5.549  1.00  0.00     0.164 HD
ATOM     23  G   UNL     1      -1.907   4.916  -6.446  1.00  0.00     0.000 G0
ENDBRANCH  18  19
BRANCH  18  24
ATOM     24  C   UNL     1      -5.686   2.282  -7.457  1.00  0.00     0.038 C 
BRANCH  24  25
ATOM     25  C   UNL     1      -5.570   2.141  -8.990  1.00  0.00    -0.015 C 
ATOM     26  C   UNL     1      -6.167   3.336  -9.734  1.00  0.00     0.007 C 
ATOM     27  C   UNL     1      -6.264   0.854  -9.442  1.00  0.00     0.007 C 
ENDBRANCH  24  25
ENDBRANCH  18  24
ENDBRANCH  15  18
ENDBRANCH  13  14
BRANCH  13  28
ATOM     28  C   UNL     1      -5.724   6.007  -2.803  1.00  0.00     0.327 C 
ATOM     29  O   UNL     1      -4.720   6.602  -3.164  1.00  0.00    -0.250 OA
BRANCH  28  30
ATOM     30  O   UNL     1      -5.921   5.729  -1.498  1.00  0.00    -0.480 OA
ATOM     31  H   UNL     1      -5.761   4.764  -1.431  1.00  0.00     0.296 HD
ENDBRANCH  28  30
ENDBRANCH  13  28
ENDBRANCH  11  13
ENDBRANCH   8  11
ENDBRANCH   6   7
BRANCH   6  32
ATOM     32  C   UNL     1     -11.078   3.927  -1.307  1.00  0.00     0.037 C 
BRANCH  32  33
ATOM     33  C   UNL     1     -10.907   3.041  -2.549  1.00  0.00     0.026 C 
BRANCH  33  34
ATOM     34  C   UNL     1     -12.178   2.265  -2.894  1.00  0.00     0.146 C 
BRANCH  34  35
ATOM     35  N   UNL     1     -12.130   0.967  -2.234  1.00  0.00    -0.254 NA
ATOM     36  C   UNL     1     -13.177   0.545  -1.630  1.00  0.00     0.185 C 
ATOM     37  N   UNL     1     -13.145  -0.651  -1.023  1.00  0.00    -0.370 N 
ATOM     38  N   UNL     1     -14.375   1.143  -1.498  1.00  0.00    -0.370 N 
ATOM     39  H   UNL     1     -12.278  -1.170  -1.087  1.00  0.00     0.159 HD
ATOM     40  H   UNL     1     -13.965  -1.124  -0.682  1.00  0.00     0.159 HD
ATOM     41  H   UNL     1     -15.077   0.772  -0.879  1.00  0.00     0.159 HD
ATOM     42  H   UNL     1     -14.538   2.057  -1.891  1.00  0.00     0.159 HD
ENDBRANCH  34  35
ENDBRANCH  33  34
ENDBRANCH  32  33
ENDBRANCH   6  32
ENDBRANCH   4   6
ENDBRANCH   1   2
BRANCH   1  43
ATOM     43  C   UNL     1      -9.683   0.683   1.504  1.00  0.00     0.102 C 
ATOM     44  C   UNL     1      -9.344   0.331   0.046  1.00  0.00     0.020 C 
BRANCH  43  45
ATOM     45  C   UNL     1     -11.141   0.414   1.886  1.00  0.00     0.225 C 
ATOM     46  O   UNL     1     -12.086   1.032   1.403  1.00  0.00    -0.275 OA
ATOM     47  N   UNL     1     -11.331  -0.512   2.886  1.00  0.00    -0.342 N 
ATOM     48  H   UNL     1     -10.568  -1.114   3.161  1.00  0.00     0.164 HD
BRANCH  47  49
ATOM     49  C   UNL     1     -12.674  -0.897   3.329  1.00  0.00     0.192 C 
BRANCH  49  50
ATOM     50  C   UNL     1     -12.920  -0.367   4.744  1.00  0.00     0.047 C 
BRANCH  50  51
ATOM     51  C   UNL     1     -11.639  -0.346   5.589  1.00  0.00     0.103 C 
BRANCH  51  52
ATOM     52  C   UNL     1     -11.923  -0.023   7.054  1.00  0.00     0.226 C 
ATOM     53  O   UNL     1     -13.088   0.040   7.450  1.00  0.00    -0.275 OA
BRANCH  52  54
ATOM     54  N   UNL     1     -10.802   0.111   7.895  1.00  0.00    -0.311 N 
ATOM     55  C   UNL     1     -10.012  -1.060   8.295  1.00  0.00     0.153 C 
BRANCH  54  56
ATOM     56  C   UNL     1     -10.395   1.366   8.377  1.00  0.00     0.102 C 
ATOM     57  C   UNL     1      -9.573   2.209   7.730  1.00  0.00     0.043 C 
BRANCH  56  58
ATOM     58  C   UNL     1     -10.913   1.896   9.694  1.00  0.00     0.268 C 
ATOM     59  O   UNL     1     -12.104   2.005   9.950  1.00  0.00    -0.268 OA
ATOM     60  N   UNL     1      -9.912   2.177  10.594  1.00  0.00    -0.339 N 
ATOM     61  H   UNL     1      -8.949   2.070  10.300  1.00  0.00     0.164 HD
BRANCH  60  62
ATOM     62  C   UNL     1     -10.194   2.642  11.952  1.00  0.00     0.168 CG0
ATOM     63  C   UNL     1      -9.263   1.980  12.960  1.00  0.00     0.041 C 
ATOM     64  G   UNL     1     -11.669   2.356  12.300  1.00  0.00     0.000 G0
ENDBRANCH  60  62
ENDBRANCH  56  58
ENDBRANCH  54  56
ENDBRANCH  52  54
ENDBRANCH  51  52
ENDBRANCH  50  51
ENDBRANCH  49  50
BRANCH  49  65
ATOM     65  C   UNL     1     -12.860  -2.422   3.318  1.00  0.00     0.326 C 
ATOM     66  O   UNL     1     -13.762  -3.033   3.872  1.00  0.00    -0.250 OA
BRANCH  65  67
ATOM     67  O   UNL     1     -11.887  -3.104   2.673  1.00  0.00    -0.480 OA
ATOM     68  H   UNL     1     -12.361  -3.869   2.281  1.00  0.00     0.296 HD
ENDBRANCH  65  67
ENDBRANCH  49  65
ENDBRANCH  47  49
ENDBRANCH  43  45
ENDBRANCH   1  43
BRANCH   1  69
ATOM     69  C   UNL     1      -9.682   2.663   3.262  1.00  0.00    -0.001 C 
ATOM     70  C   UNL     1     -10.546   3.663   3.508  1.00  0.00     0.001 C 
BRANCH  70  71
ATOM     71  C   UNL     1     -10.966   4.160   4.820  1.00  0.00    -0.055 C 
ATOM     72  C   UNL     1     -10.249   5.162   5.371  1.00  0.00    -0.018 C 
ATOM     73  C   UNL     1     -12.174   3.525   5.458  1.00  0.00     0.044 C 
BRANCH  72  74
ATOM     74  C   UNL     1     -10.450   5.871   6.702  1.00  0.00     0.038 C 
ATOM     75  C   UNL     1     -11.388   7.057   6.447  1.00  0.00     0.015 C 
BRANCH  74  76
ATOM     76  C   UNL     1      -9.056   6.254   7.281  1.00  0.00     0.128 C 
BRANCH  76  77
ATOM     77  O   UNL     1      -9.162   6.506   8.693  1.00  0.00    -0.381 OA
ATOM     78  C   UNL     1      -8.649   5.455   9.500  1.00  0.00     0.195 C 
ENDBRANCH  76  77
BRANCH  76  79
ATOM     79  C   UNL     1      -7.932   5.245   6.935  1.00  0.00     0.068 C 
BRANCH  79  80
ATOM     80  C   UNL     1      -7.253   5.375   5.593  1.00  0.00    -0.045 A 
ATOM     81  C   UNL     1      -7.013   6.633   5.025  1.00  0.00     0.004 A 
ATOM     82  C   UNL     1      -6.875   4.229   4.878  1.00  0.00     0.004 A 
ATOM     83  C   UNL     1      -6.397   6.744   3.777  1.00  0.00     0.000 A 
ATOM     84  C   UNL     1      -6.260   4.341   3.629  1.00  0.00     0.000 A 
ATOM     85  C   UNL     1      -6.020   5.598   3.080  1.00  0.00     0.000 A 
ENDBRANCH  79  80
ENDBRANCH  76  79
ENDBRANCH  74  76
ENDBRANCH  72  74
ENDBRANCH  70  71
ENDBRANCH   1  69
TORSDOF 17
ENDMDL
MODEL 28
REMARK VINA RESULT:    -6.256      7.774     13.729
REMARK INTER + INTRA:         -24.841
REMARK INTER:                 -16.459
REMARK INTRA:                  -8.381
REMARK UNBOUND:                -6.151
REMARK SMILES C=C1C(=O)N[C@H](C)C(=O)N[C@@H](CC(C)C)C(=O)N[C@@H](C(=O)O)[C@H](C)C(=O)N[C@@H](CCCN=C(N)N)C(=O)N[C@@H](/C=C/C(C)=C/[C@H](C)[C@H](Cc2ccccc2)OC)[C@H](C)C(=O)N[C@@H](C(=O)O)CCC(=O)N1C
REMARK SMILES IDX 39 1 38 2 37 3 36 4 28 6 27 7 25 8 26 9 23 11 24 12 19 13
REMARK SMILES IDX 18 14 16 15 17 16 11 18 10 19 8 20 9 21 12 24 13 25 14 26
REMARK SMILES IDX 15 27 20 28 21 29 22 30 29 32 30 33 31 34 32 35 33 36 34 37
REMARK SMILES IDX 35 38 57 43 58 44 59 45 60 46 61 47 62 49 66 50 67 51 68 52
REMARK SMILES IDX 69 53 70 54 71 55 2 56 1 57 3 58 4 59 5 60 6 62 7 63 63 65
REMARK SMILES IDX 64 66 65 67 40 69 41 70 42 71 44 72 43 73 45 74 46 75 47 76
REMARK SMILES IDX 55 77 56 78 48 79 49 80 50 81 54 82 51 83 53 84 52 85
REMARK H PARENT 38 5 27 10 18 17 10 22 22 31 34 39 34 40 35 41 35 42 61 48
REMARK H PARENT 5 61 65 68
REMARK Flexibility Score:  369.900
ROOT
ATOM      1  C   UNL     1       6.019   8.629   2.745  1.00  0.00     0.117 C 
ENDROOT
BRANCH   1   2
ATOM      2  N   UNL     1       6.603   7.690   3.704  1.00  0.00    -0.347 N 
ATOM      3  O   UNL     1       8.761   8.470   3.630  1.00  0.00    -0.273 OA
ATOM      4  C   UNL     1       7.913   7.745   4.140  1.00  0.00     0.243 C 
ATOM      5  H   UNL     1       6.018   6.982   4.121  1.00  0.00     0.164 HD
BRANCH   4   6
ATOM      6  C   UNL     1       8.254   6.689   5.221  1.00  0.00     0.171 C 
BRANCH   6   7
ATOM      7  N   UNL     1       7.431   6.898   6.423  1.00  0.00    -0.344 N 
ATOM      8  C   UNL     1       7.940   7.566   7.516  1.00  0.00     0.226 C 
ATOM      9  O   UNL     1       9.089   7.992   7.553  1.00  0.00    -0.275 OA
ATOM     10  H   UNL     1       6.500   6.502   6.455  1.00  0.00     0.164 HD
BRANCH   8  11
ATOM     11  C   UNL     1       6.951   7.749   8.653  1.00  0.00     0.109 C 
ATOM     12  C   UNL     1       6.209   9.076   8.497  1.00  0.00     0.021 C 
BRANCH  11  13
ATOM     13  C   UNL     1       6.044   6.507   8.760  1.00  0.00     0.204 C 
BRANCH  13  14
ATOM     14  N   UNL     1       6.341   5.707   9.952  1.00  0.00    -0.340 N 
ATOM     15  C   UNL     1       6.266   4.331   9.968  1.00  0.00     0.243 C 
ATOM     16  O   UNL     1       6.003   3.673   8.964  1.00  0.00    -0.273 OA
ATOM     17  H   UNL     1       6.416   6.193  10.850  1.00  0.00     0.164 HD
BRANCH  15  18
ATOM     18  C   UNL     1       6.418   3.720  11.383  1.00  0.00     0.171 C 
BRANCH  18  19
ATOM     19  N   UNL     1       5.235   2.892  11.610  1.00  0.00    -0.343 N 
ATOM     20  C   UNL     1       4.044   3.429  12.059  1.00  0.00     0.242 CG0
ATOM     21  O   UNL     1       3.962   4.602  12.415  1.00  0.00    -0.273 OA
ATOM     22  H   UNL     1       5.287   1.893  11.441  1.00  0.00     0.164 HD
ATOM     23  G   UNL     1       2.887   2.414  12.164  1.00  0.00     0.000 G0
ENDBRANCH  18  19
BRANCH  18  24
ATOM     24  C   UNL     1       7.708   2.897  11.481  1.00  0.00     0.038 C 
BRANCH  24  25
ATOM     25  C   UNL     1       8.450   3.020  12.829  1.00  0.00    -0.015 C 
ATOM     26  C   UNL     1       7.985   4.226  13.645  1.00  0.00     0.007 C 
ATOM     27  C   UNL     1       9.957   3.117  12.580  1.00  0.00     0.007 C 
ENDBRANCH  24  25
ENDBRANCH  18  24
ENDBRANCH  15  18
ENDBRANCH  13  14
BRANCH  13  28
ATOM     28  C   UNL     1       4.552   6.852   8.805  1.00  0.00     0.327 C 
ATOM     29  O   UNL     1       3.862   7.202   7.859  1.00  0.00    -0.250 OA
BRANCH  28  30
ATOM     30  O   UNL     1       4.046   6.850  10.055  1.00  0.00    -0.480 OA
ATOM     31  H   UNL     1       3.294   6.225  10.010  1.00  0.00     0.296 HD
ENDBRANCH  28  30
ENDBRANCH  13  28
ENDBRANCH  11  13
ENDBRANCH   8  11
ENDBRANCH   6   7
BRANCH   6  32
ATOM     32  C   UNL     1       8.032   5.287   4.643  1.00  0.00     0.037 C 
BRANCH  32  33
ATOM     33  C   UNL     1       7.418   4.327   5.671  1.00  0.00     0.026 C 
BRANCH  33  34
ATOM     34  C   UNL     1       8.103   2.960   5.678  1.00  0.00     0.146 C 
BRANCH  34  35
ATOM     35  N   UNL     1       9.126   2.952   6.715  1.00  0.00    -0.254 NA
ATOM     36  C   UNL     1       8.934   2.240   7.762  1.00  0.00     0.185 C 
ATOM     37  N   UNL     1       9.872   2.221   8.722  1.00  0.00    -0.370 N 
ATOM     38  N   UNL     1       7.883   1.460   8.073  1.00  0.00    -0.370 N 
ATOM     39  H   UNL     1      10.702   2.777   8.557  1.00  0.00     0.159 HD
ATOM     40  H   UNL     1       9.877   1.563   9.482  1.00  0.00     0.159 HD
ATOM     41  H   UNL     1       7.785   1.058   8.991  1.00  0.00     0.159 HD
ATOM     42  H   UNL     1       7.094   1.391   7.449  1.00  0.00     0.159 HD
ENDBRANCH  34  35
ENDBRANCH  33  34
ENDBRANCH  32  33
ENDBRANCH   6  32
ENDBRANCH   4   6
ENDBRANCH   1   2
BRANCH   1  43
ATOM     43  C   UNL     1       4.612   9.049   3.258  1.00  0.00     0.102 C 
ATOM     44  C   UNL     1       4.633   9.670   4.666  1.00  0.00     0.020 C 
BRANCH  43  45
ATOM     45  C   UNL     1       3.604   7.907   3.098  1.00  0.00     0.225 C 
ATOM     46  O   UNL     1       3.679   6.854   3.725  1.00  0.00    -0.275 OA
ATOM     47  N   UNL     1       2.647   8.093   2.128  1.00  0.00    -0.342 N 
ATOM     48  H   UNL     1       2.506   9.012   1.733  1.00  0.00     0.164 HD
BRANCH  47  49
ATOM     49  C   UNL     1       1.596   7.099   1.887  1.00  0.00     0.192 C 
BRANCH  49  50
ATOM     50  C   UNL     1       1.629   6.660   0.421  1.00  0.00     0.047 C 
BRANCH  50  51
ATOM     51  C   UNL     1       1.960   7.820  -0.527  1.00  0.00     0.103 C 
BRANCH  51  52
ATOM     52  C   UNL     1       0.766   8.207  -1.398  1.00  0.00     0.226 C 
ATOM     53  O   UNL     1      -0.083   8.985  -0.959  1.00  0.00    -0.275 OA
BRANCH  52  54
ATOM     54  N   UNL     1       0.754   7.694  -2.708  1.00  0.00    -0.311 N 
ATOM     55  C   UNL     1       0.340   6.310  -2.975  1.00  0.00     0.153 C 
BRANCH  54  56
ATOM     56  C   UNL     1       1.131   8.484  -3.807  1.00  0.00     0.102 C 
ATOM     57  C   UNL     1       2.347   8.478  -4.377  1.00  0.00     0.043 C 
BRANCH  56  58
ATOM     58  C   UNL     1       0.136   9.400  -4.481  1.00  0.00     0.268 C 
ATOM     59  O   UNL     1       0.164  10.618  -4.366  1.00  0.00    -0.268 OA
ATOM     60  N   UNL     1      -0.757   8.731  -5.283  1.00  0.00    -0.339 N 
ATOM     61  H   UNL     1      -0.720   7.720  -5.316  1.00  0.00     0.164 HD
BRANCH  60  62
ATOM     62  C   UNL     1      -1.766   9.431  -6.077  1.00  0.00     0.168 CG0
ATOM     63  C   UNL     1      -2.891   8.488  -6.486  1.00  0.00     0.041 C 
ATOM     64  G   UNL     1      -1.103  10.061  -7.319  1.00  0.00     0.000 G0
ENDBRANCH  60  62
ENDBRANCH  56  58
ENDBRANCH  54  56
ENDBRANCH  52  54
ENDBRANCH  51  52
ENDBRANCH  50  51
ENDBRANCH  49  50
BRANCH  49  65
ATOM     65  C   UNL     1       0.203   7.655   2.221  1.00  0.00     0.326 C 
ATOM     66  O   UNL     1      -0.855   7.239   1.770  1.00  0.00    -0.250 OA
BRANCH  65  67
ATOM     67  O   UNL     1       0.206   8.728   3.042  1.00  0.00    -0.480 OA
ATOM     68  H   UNL     1      -0.688   8.712   3.447  1.00  0.00     0.296 HD
ENDBRANCH  65  67
ENDBRANCH  49  65
ENDBRANCH  47  49
ENDBRANCH  43  45
ENDBRANCH   1  43
BRANCH   1  69
ATOM     69  C   UNL     1       6.137   7.972   1.382  1.00  0.00    -0.001 C 
ATOM     70  C   UNL     1       5.758   8.478   0.196  1.00  0.00     0.001 C 
BRANCH  70  71
ATOM     71  C   UNL     1       5.897   7.843  -1.116  1.00  0.00    -0.055 C 
ATOM     72  C   UNL     1       5.366   6.612  -1.277  1.00  0.00    -0.018 C 
ATOM     73  C   UNL     1       6.613   8.610  -2.196  1.00  0.00     0.044 C 
BRANCH  72  74
ATOM     74  C   UNL     1       5.355   5.722  -2.511  1.00  0.00     0.038 C 
ATOM     75  C   UNL     1       3.888   5.532  -2.918  1.00  0.00     0.015 C 
BRANCH  74  76
ATOM     76  C   UNL     1       6.118   4.404  -2.186  1.00  0.00     0.128 C 
BRANCH  76  77
ATOM     77  O   UNL     1       5.576   3.319  -2.959  1.00  0.00    -0.381 OA
ATOM     78  C   UNL     1       6.465   2.829  -3.954  1.00  0.00     0.195 C 
ENDBRANCH  76  77
BRANCH  76  79
ATOM     79  C   UNL     1       7.658   4.520  -2.312  1.00  0.00     0.068 C 
BRANCH  79  80
ATOM     80  C   UNL     1       8.408   5.213  -1.200  1.00  0.00    -0.045 A 
ATOM     81  C   UNL     1       8.190   4.869   0.141  1.00  0.00     0.004 A 
ATOM     82  C   UNL     1       9.320   6.237  -1.493  1.00  0.00     0.004 A 
ATOM     83  C   UNL     1       8.877   5.524   1.165  1.00  0.00     0.000 A 
ATOM     84  C   UNL     1      10.007   6.892  -0.469  1.00  0.00     0.000 A 
ATOM     85  C   UNL     1       9.787   6.535   0.859  1.00  0.00     0.000 A 
ENDBRANCH  79  80
ENDBRANCH  76  79
ENDBRANCH  74  76
ENDBRANCH  72  74
ENDBRANCH  70  71
ENDBRANCH   1  69
TORSDOF 17
ENDMDL
MODEL 29
REMARK VINA RESULT:    -6.237      7.756     13.320
REMARK INTER + INTRA:         -24.785
REMARK INTER:                 -18.341
REMARK INTRA:                  -6.444
REMARK UNBOUND:                -6.151
REMARK SMILES C=C1C(=O)N[C@H](C)C(=O)N[C@@H](CC(C)C)C(=O)N[C@@H](C(=O)O)[C@H](C)C(=O)N[C@@H](CCCN=C(N)N)C(=O)N[C@@H](/C=C/C(C)=C/[C@H](C)[C@H](Cc2ccccc2)OC)[C@H](C)C(=O)N[C@@H](C(=O)O)CCC(=O)N1C
REMARK SMILES IDX 39 1 38 2 37 3 36 4 28 6 27 7 25 8 26 9 23 11 24 12 19 13
REMARK SMILES IDX 18 14 16 15 17 16 11 18 10 19 8 20 9 21 12 24 13 25 14 26
REMARK SMILES IDX 15 27 20 28 21 29 22 30 29 32 30 33 31 34 32 35 33 36 34 37
REMARK SMILES IDX 35 38 57 43 58 44 59 45 60 46 61 47 62 49 66 50 67 51 68 52
REMARK SMILES IDX 69 53 70 54 71 55 2 56 1 57 3 58 4 59 5 60 6 62 7 63 63 65
REMARK SMILES IDX 64 66 65 67 40 69 41 70 42 71 44 72 43 73 45 74 46 75 47 76
REMARK SMILES IDX 55 77 56 78 48 79 49 80 50 81 54 82 51 83 53 84 52 85
REMARK H PARENT 38 5 27 10 18 17 10 22 22 31 34 39 34 40 35 41 35 42 61 48
REMARK H PARENT 5 61 65 68
REMARK Flexibility Score:  369.900
ROOT
ATOM      1  C   UNL     1       5.360   8.795   2.856  1.00  0.00     0.117 C 
ENDROOT
BRANCH   1   2
ATOM      2  N   UNL     1       5.329   8.165   4.176  1.00  0.00    -0.347 N 
ATOM      3  O   UNL     1       7.327   8.980   4.959  1.00  0.00    -0.273 OA
ATOM      4  C   UNL     1       6.275   8.383   5.159  1.00  0.00     0.243 C 
ATOM      5  H   UNL     1       4.552   7.571   4.422  1.00  0.00     0.164 HD
BRANCH   4   6
ATOM      6  C   UNL     1       5.962   7.663   6.495  1.00  0.00     0.171 C 
BRANCH   6   7
ATOM      7  N   UNL     1       6.799   6.461   6.640  1.00  0.00    -0.344 N 
ATOM      8  C   UNL     1       6.243   5.260   7.025  1.00  0.00     0.226 C 
ATOM      9  O   UNL     1       5.052   5.136   7.284  1.00  0.00    -0.275 OA
ATOM     10  H   UNL     1       7.798   6.540   6.501  1.00  0.00     0.164 HD
BRANCH   8  11
ATOM     11  C   UNL     1       7.227   4.104   7.076  1.00  0.00     0.109 C 
ATOM     12  C   UNL     1       8.192   4.182   5.893  1.00  0.00     0.021 C 
BRANCH  11  13
ATOM     13  C   UNL     1       7.902   4.054   8.461  1.00  0.00     0.204 C 
BRANCH  13  14
ATOM     14  N   UNL     1       7.349   2.992   9.307  1.00  0.00    -0.340 N 
ATOM     15  C   UNL     1       6.623   3.247  10.450  1.00  0.00     0.243 C 
ATOM     16  O   UNL     1       6.335   4.388  10.809  1.00  0.00    -0.273 OA
ATOM     17  H   UNL     1       7.676   2.035   9.152  1.00  0.00     0.164 HD
BRANCH  15  18
ATOM     18  C   UNL     1       6.322   1.980  11.288  1.00  0.00     0.171 C 
BRANCH  18  19
ATOM     19  N   UNL     1       7.350   1.910  12.324  1.00  0.00    -0.343 N 
ATOM     20  C   UNL     1       8.580   1.326  12.092  1.00  0.00     0.242 CG0
ATOM     21  O   UNL     1       8.819   0.721  11.049  1.00  0.00    -0.273 OA
ATOM     22  H   UNL     1       7.158   2.294  13.243  1.00  0.00     0.164 HD
ATOM     23  G   UNL     1       9.563   1.416  13.278  1.00  0.00     0.000 G0
ENDBRANCH  18  19
BRANCH  18  24
ATOM     24  C   UNL     1       4.916   2.054  11.896  1.00  0.00     0.038 C 
BRANCH  24  25
ATOM     25  C   UNL     1       3.857   1.192  11.176  1.00  0.00    -0.015 C 
ATOM     26  C   UNL     1       2.738   2.033  10.560  1.00  0.00     0.007 C 
ATOM     27  C   UNL     1       3.261   0.182  12.160  1.00  0.00     0.007 C 
ENDBRANCH  24  25
ENDBRANCH  18  24
ENDBRANCH  15  18
ENDBRANCH  13  14
BRANCH  13  28
ATOM     28  C   UNL     1       9.416   3.833   8.387  1.00  0.00     0.327 C 
ATOM     29  O   UNL     1      10.237   4.607   7.919  1.00  0.00    -0.250 OA
BRANCH  28  30
ATOM     30  O   UNL     1       9.791   2.604   8.797  1.00  0.00    -0.480 OA
ATOM     31  H   UNL     1      10.378   2.774   9.563  1.00  0.00     0.296 HD
ENDBRANCH  28  30
ENDBRANCH  13  28
ENDBRANCH  11  13
ENDBRANCH   8  11
ENDBRANCH   6   7
BRANCH   6  32
ATOM     32  C   UNL     1       6.194   8.635   7.658  1.00  0.00     0.037 C 
BRANCH  32  33
ATOM     33  C   UNL     1       4.970   9.522   7.923  1.00  0.00     0.026 C 
BRANCH  33  34
ATOM     34  C   UNL     1       4.297   9.207   9.260  1.00  0.00     0.146 C 
BRANCH  34  35
ATOM     35  N   UNL     1       3.842   7.823   9.241  1.00  0.00    -0.254 NA
ATOM     36  C   UNL     1       4.280   7.020  10.138  1.00  0.00     0.185 C 
ATOM     37  N   UNL     1       3.863   5.745  10.134  1.00  0.00    -0.370 N 
ATOM     38  N   UNL     1       5.139   7.265  11.144  1.00  0.00    -0.370 N 
ATOM     39  H   UNL     1       3.205   5.484   9.411  1.00  0.00     0.159 HD
ATOM     40  H   UNL     1       4.020   5.106  10.894  1.00  0.00     0.159 HD
ATOM     41  H   UNL     1       5.515   6.515  11.702  1.00  0.00     0.159 HD
ATOM     42  H   UNL     1       5.546   8.180  11.260  1.00  0.00     0.159 HD
ENDBRANCH  34  35
ENDBRANCH  33  34
ENDBRANCH  32  33
ENDBRANCH   6  32
ENDBRANCH   4   6
ENDBRANCH   1   2
BRANCH   1  43
ATOM     43  C   UNL     1       3.928   9.296   2.512  1.00  0.00     0.102 C 
ATOM     44  C   UNL     1       3.470  10.483   3.376  1.00  0.00     0.020 C 
BRANCH  43  45
ATOM     45  C   UNL     1       2.932   8.132   2.476  1.00  0.00     0.225 C 
ATOM     46  O   UNL     1       2.750   7.376   3.426  1.00  0.00    -0.275 OA
ATOM     47  N   UNL     1       2.311   7.921   1.267  1.00  0.00    -0.342 N 
ATOM     48  H   UNL     1       2.354   8.633   0.551  1.00  0.00     0.164 HD
BRANCH  47  49
ATOM     49  C   UNL     1       1.307   6.866   1.095  1.00  0.00     0.192 C 
BRANCH  49  50
ATOM     50  C   UNL     1       1.378   6.316  -0.332  1.00  0.00     0.047 C 
BRANCH  50  51
ATOM     51  C   UNL     1       2.299   7.151  -1.232  1.00  0.00     0.103 C 
BRANCH  51  52
ATOM     52  C   UNL     1       1.541   8.263  -1.954  1.00  0.00     0.226 C 
ATOM     53  O   UNL     1       1.383   9.353  -1.401  1.00  0.00    -0.275 OA
BRANCH  52  54
ATOM     54  N   UNL     1       1.127   7.987  -3.270  1.00  0.00    -0.311 N 
ATOM     55  C   UNL     1       1.738   8.674  -4.416  1.00  0.00     0.153 C 
BRANCH  54  56
ATOM     56  C   UNL     1       0.121   7.043  -3.539  1.00  0.00     0.102 C 
ATOM     57  C   UNL     1       0.328   5.726  -3.705  1.00  0.00     0.043 C 
BRANCH  56  58
ATOM     58  C   UNL     1      -1.329   7.457  -3.617  1.00  0.00     0.268 C 
ATOM     59  O   UNL     1      -1.977   7.815  -2.643  1.00  0.00    -0.268 OA
ATOM     60  N   UNL     1      -1.823   7.453  -4.900  1.00  0.00    -0.339 N 
ATOM     61  H   UNL     1      -1.225   7.132  -5.652  1.00  0.00     0.164 HD
BRANCH  60  62
ATOM     62  C   UNL     1      -3.187   7.879  -5.211  1.00  0.00     0.168 CG0
ATOM     63  C   UNL     1      -3.216   9.336  -5.657  1.00  0.00     0.041 C 
ATOM     64  G   UNL     1      -4.088   7.669  -3.976  1.00  0.00     0.000 G0
ENDBRANCH  60  62
ENDBRANCH  56  58
ENDBRANCH  54  56
ENDBRANCH  52  54
ENDBRANCH  51  52
ENDBRANCH  50  51
ENDBRANCH  49  50
BRANCH  49  65
ATOM     65  C   UNL     1      -0.113   7.385   1.371  1.00  0.00     0.326 C 
ATOM     66  O   UNL     1      -0.965   7.609   0.523  1.00  0.00    -0.250 OA
BRANCH  65  67
ATOM     67  O   UNL     1      -0.373   7.651   2.670  1.00  0.00    -0.480 OA
ATOM     68  H   UNL     1      -1.002   6.944   2.930  1.00  0.00     0.296 HD
ENDBRANCH  65  67
ENDBRANCH  49  65
ENDBRANCH  47  49
ENDBRANCH  43  45
ENDBRANCH   1  43
BRANCH   1  69
ATOM     69  C   UNL     1       6.033   7.800   1.927  1.00  0.00    -0.001 C 
ATOM     70  C   UNL     1       6.170   7.892   0.593  1.00  0.00     0.001 C 
BRANCH  70  71
ATOM     71  C   UNL     1       6.840   6.936  -0.291  1.00  0.00    -0.055 C 
ATOM     72  C   UNL     1       6.440   6.885  -1.579  1.00  0.00    -0.018 C 
ATOM     73  C   UNL     1       7.932   6.082   0.298  1.00  0.00     0.044 C 
BRANCH  72  74
ATOM     74  C   UNL     1       6.949   6.004  -2.711  1.00  0.00     0.038 C 
ATOM     75  C   UNL     1       7.270   6.927  -3.893  1.00  0.00     0.015 C 
BRANCH  74  76
ATOM     76  C   UNL     1       5.885   4.907  -3.009  1.00  0.00     0.128 C 
BRANCH  76  77
ATOM     77  O   UNL     1       4.829   5.454  -3.817  1.00  0.00    -0.381 OA
ATOM     78  C   UNL     1       3.777   4.535  -4.080  1.00  0.00     0.195 C 
ENDBRANCH  76  77
BRANCH  76  79
ATOM     79  C   UNL     1       6.476   3.601  -3.598  1.00  0.00     0.068 C 
BRANCH  79  80
ATOM     80  C   UNL     1       6.485   2.371  -2.723  1.00  0.00    -0.045 A 
ATOM     81  C   UNL     1       5.736   1.237  -3.063  1.00  0.00     0.004 A 
ATOM     82  C   UNL     1       7.227   2.356  -1.532  1.00  0.00     0.004 A 
ATOM     83  C   UNL     1       5.738   0.109  -2.240  1.00  0.00     0.000 A 
ATOM     84  C   UNL     1       7.229   1.228  -0.710  1.00  0.00     0.000 A 
ATOM     85  C   UNL     1       6.486   0.104  -1.065  1.00  0.00     0.000 A 
ENDBRANCH  79  80
ENDBRANCH  76  79
ENDBRANCH  74  76
ENDBRANCH  72  74
ENDBRANCH  70  71
ENDBRANCH   1  69
TORSDOF 17
ENDMDL
MODEL 30
REMARK VINA RESULT:    -6.218      4.570      6.838
REMARK INTER + INTRA:         -24.729
REMARK INTER:                 -17.397
REMARK INTRA:                  -7.332
REMARK UNBOUND:                -6.151
REMARK SMILES C=C1C(=O)N[C@H](C)C(=O)N[C@@H](CC(C)C)C(=O)N[C@@H](C(=O)O)[C@H](C)C(=O)N[C@@H](CCCN=C(N)N)C(=O)N[C@@H](/C=C/C(C)=C/[C@H](C)[C@H](Cc2ccccc2)OC)[C@H](C)C(=O)N[C@@H](C(=O)O)CCC(=O)N1C
REMARK SMILES IDX 39 1 38 2 37 3 36 4 28 6 27 7 25 8 26 9 23 11 24 12 19 13
REMARK SMILES IDX 18 14 16 15 17 16 11 18 10 19 8 20 9 21 12 24 13 25 14 26
REMARK SMILES IDX 15 27 20 28 21 29 22 30 29 32 30 33 31 34 32 35 33 36 34 37
REMARK SMILES IDX 35 38 57 43 58 44 59 45 60 46 61 47 62 49 66 50 67 51 68 52
REMARK SMILES IDX 69 53 70 54 71 55 2 56 1 57 3 58 4 59 5 60 6 62 7 63 63 65
REMARK SMILES IDX 64 66 65 67 40 69 41 70 42 71 44 72 43 73 45 74 46 75 47 76
REMARK SMILES IDX 55 77 56 78 48 79 49 80 50 81 54 82 51 83 53 84 52 85
REMARK H PARENT 38 5 27 10 18 17 10 22 22 31 34 39 34 40 35 41 35 42 61 48
REMARK H PARENT 5 61 65 68
REMARK Flexibility Score:  369.900
ROOT
ATOM      1  C   UNL     1       5.876   3.092  10.252  1.00  0.00     0.117 C 
ENDROOT
BRANCH   1   2
ATOM      2  N   UNL     1       7.047   2.678  11.026  1.00  0.00    -0.347 N 
ATOM      3  O   UNL     1       7.844   1.096   9.566  1.00  0.00    -0.273 OA
ATOM      4  C   UNL     1       7.991   1.775  10.577  1.00  0.00     0.243 C 
ATOM      5  H   UNL     1       7.221   3.103  11.924  1.00  0.00     0.164 HD
BRANCH   4   6
ATOM      6  C   UNL     1       9.178   1.576  11.554  1.00  0.00     0.171 C 
BRANCH   6   7
ATOM      7  N   UNL     1       9.089   2.530  12.672  1.00  0.00    -0.344 N 
ATOM      8  C   UNL     1      10.230   3.050  13.244  1.00  0.00     0.226 C 
ATOM      9  O   UNL     1      11.355   2.735  12.876  1.00  0.00    -0.275 OA
ATOM     10  H   UNL     1       8.178   2.762  13.048  1.00  0.00     0.164 HD
BRANCH   8  11
ATOM     11  C   UNL     1       9.971   4.060  14.348  1.00  0.00     0.109 C 
ATOM     12  C   UNL     1       8.546   4.603  14.240  1.00  0.00     0.021 C 
BRANCH  11  13
ATOM     13  C   UNL     1      10.328   3.443  15.714  1.00  0.00     0.204 C 
BRANCH  13  14
ATOM     14  N   UNL     1       9.911   2.040  15.812  1.00  0.00    -0.340 N 
ATOM     15  C   UNL     1       9.057   1.580  16.790  1.00  0.00     0.243 C 
ATOM     16  O   UNL     1       8.535   2.327  17.616  1.00  0.00    -0.273 OA
ATOM     17  H   UNL     1      10.422   1.348  15.258  1.00  0.00     0.164 HD
BRANCH  15  18
ATOM     18  C   UNL     1       8.926   0.038  16.822  1.00  0.00     0.171 C 
BRANCH  18  19
ATOM     19  N   UNL     1       8.518  -0.321  18.179  1.00  0.00    -0.343 N 
ATOM     20  C   UNL     1       9.435  -0.714  19.135  1.00  0.00     0.242 CG0
ATOM     21  O   UNL     1      10.615  -0.910  18.853  1.00  0.00    -0.273 OA
ATOM     22  H   UNL     1       7.537  -0.286  18.429  1.00  0.00     0.164 HD
ATOM     23  G   UNL     1       8.828  -0.976  20.529  1.00  0.00     0.000 G0
ENDBRANCH  18  19
BRANCH  18  24
ATOM     24  C   UNL     1       7.904  -0.440  15.783  1.00  0.00     0.038 C 
BRANCH  24  25
ATOM     25  C   UNL     1       6.622   0.416  15.699  1.00  0.00    -0.015 C 
ATOM     26  C   UNL     1       5.399  -0.303  16.268  1.00  0.00     0.007 C 
ATOM     27  C   UNL     1       6.359   0.807  14.243  1.00  0.00     0.007 C 
ENDBRANCH  24  25
ENDBRANCH  18  24
ENDBRANCH  15  18
ENDBRANCH  13  14
BRANCH  13  28
ATOM     28  C   UNL     1      11.827   3.493  16.026  1.00  0.00     0.327 C 
ATOM     29  O   UNL     1      12.393   2.929  16.950  1.00  0.00    -0.250 OA
BRANCH  28  30
ATOM     30  O   UNL     1      12.505   4.345  15.230  1.00  0.00    -0.480 OA
ATOM     31  H   UNL     1      12.336   4.013  14.323  1.00  0.00     0.296 HD
ENDBRANCH  28  30
ENDBRANCH  13  28
ENDBRANCH  11  13
ENDBRANCH   8  11
ENDBRANCH   6   7
BRANCH   6  32
ATOM     32  C   UNL     1       9.172   0.131  12.066  1.00  0.00     0.037 C 
BRANCH  32  33
ATOM     33  C   UNL     1      10.411  -0.651  11.606  1.00  0.00     0.026 C 
BRANCH  33  34
ATOM     34  C   UNL     1      10.261  -1.203  10.188  1.00  0.00     0.146 C 
BRANCH  34  35
ATOM     35  N   UNL     1      11.522  -1.030   9.481  1.00  0.00    -0.254 NA
ATOM     36  C   UNL     1      11.629  -0.067   8.642  1.00  0.00     0.185 C 
ATOM     37  N   UNL     1      12.789   0.104   7.988  1.00  0.00    -0.370 N 
ATOM     38  N   UNL     1      10.714   0.853   8.291  1.00  0.00    -0.370 N 
ATOM     39  H   UNL     1      13.534  -0.545   8.207  1.00  0.00     0.159 HD
ATOM     40  H   UNL     1      13.009   0.927   7.453  1.00  0.00     0.159 HD
ATOM     41  H   UNL     1      10.872   1.475   7.515  1.00  0.00     0.159 HD
ATOM     42  H   UNL     1       9.789   0.835   8.692  1.00  0.00     0.159 HD
ENDBRANCH  34  35
ENDBRANCH  33  34
ENDBRANCH  32  33
ENDBRANCH   6  32
ENDBRANCH   4   6
ENDBRANCH   1   2
BRANCH   1  43
ATOM     43  C   UNL     1       5.958   4.627  10.013  1.00  0.00     0.102 C 
ATOM     44  C   UNL     1       4.581   5.309   9.939  1.00  0.00     0.020 C 
BRANCH  43  45
ATOM     45  C   UNL     1       6.877   4.952   8.832  1.00  0.00     0.225 C 
ATOM     46  O   UNL     1       7.841   4.258   8.521  1.00  0.00    -0.275 OA
ATOM     47  N   UNL     1       6.612   6.137   8.184  1.00  0.00    -0.342 N 
ATOM     48  H   UNL     1       5.737   6.613   8.350  1.00  0.00     0.164 HD
BRANCH  47  49
ATOM     49  C   UNL     1       7.387   6.560   7.014  1.00  0.00     0.192 C 
BRANCH  49  50
ATOM     50  C   UNL     1       7.347   8.085   6.894  1.00  0.00     0.047 C 
BRANCH  50  51
ATOM     51  C   UNL     1       6.470   8.731   7.976  1.00  0.00     0.103 C 
BRANCH  51  52
ATOM     52  C   UNL     1       5.037   8.955   7.495  1.00  0.00     0.226 C 
ATOM     53  O   UNL     1       4.239   8.016   7.500  1.00  0.00    -0.275 OA
BRANCH  52  54
ATOM     54  N   UNL     1       4.694  10.272   7.138  1.00  0.00    -0.311 N 
ATOM     55  C   UNL     1       3.864  11.103   8.020  1.00  0.00     0.153 C 
BRANCH  54  56
ATOM     56  C   UNL     1       5.135  10.842   5.932  1.00  0.00     0.102 C 
ATOM     57  C   UNL     1       5.726  12.043   5.821  1.00  0.00     0.043 C 
BRANCH  56  58
ATOM     58  C   UNL     1       5.009  10.091   4.628  1.00  0.00     0.268 C 
ATOM     59  O   UNL     1       5.974   9.699   3.985  1.00  0.00    -0.268 OA
ATOM     60  N   UNL     1       3.705   9.838   4.274  1.00  0.00    -0.339 N 
ATOM     61  H   UNL     1       2.962  10.207   4.855  1.00  0.00     0.164 HD
BRANCH  60  62
ATOM     62  C   UNL     1       3.357   9.069   3.079  1.00  0.00     0.168 CG0
ATOM     63  C   UNL     1       3.121   7.604   3.421  1.00  0.00     0.041 C 
ATOM     64  G   UNL     1       4.478   9.211   2.029  1.00  0.00     0.000 G0
ENDBRANCH  60  62
ENDBRANCH  56  58
ENDBRANCH  54  56
ENDBRANCH  52  54
ENDBRANCH  51  52
ENDBRANCH  50  51
ENDBRANCH  49  50
BRANCH  49  65
ATOM     65  C   UNL     1       6.846   5.933   5.719  1.00  0.00     0.326 C 
ATOM     66  O   UNL     1       6.085   6.476   4.931  1.00  0.00    -0.250 OA
BRANCH  65  67
ATOM     67  O   UNL     1       7.229   4.655   5.509  1.00  0.00    -0.480 OA
ATOM     68  H   UNL     1       6.974   4.197   6.338  1.00  0.00     0.296 HD
ENDBRANCH  65  67
ENDBRANCH  49  65
ENDBRANCH  47  49
ENDBRANCH  43  45
ENDBRANCH   1  43
BRANCH   1  69
ATOM     69  C   UNL     1       4.668   2.525  10.975  1.00  0.00    -0.001 C 
ATOM     70  C   UNL     1       4.370   1.229  11.177  1.00  0.00     0.001 C 
BRANCH  70  71
ATOM     71  C   UNL     1       3.212   0.694  11.895  1.00  0.00    -0.055 C 
ATOM     72  C   UNL     1       3.316  -0.545  12.420  1.00  0.00    -0.018 C 
ATOM     73  C   UNL     1       1.989   1.567  12.004  1.00  0.00     0.044 C 
BRANCH  72  74
ATOM     74  C   UNL     1       2.290  -1.346  13.209  1.00  0.00     0.038 C 
ATOM     75  C   UNL     1       2.120  -0.651  14.566  1.00  0.00     0.015 C 
BRANCH  74  76
ATOM     76  C   UNL     1       2.765  -2.827  13.289  1.00  0.00     0.128 C 
BRANCH  76  77
ATOM     77  O   UNL     1       3.509  -3.039  14.501  1.00  0.00    -0.381 OA
ATOM     78  C   UNL     1       4.857  -3.431  14.282  1.00  0.00     0.195 C 
ENDBRANCH  76  77
BRANCH  76  79
ATOM     79  C   UNL     1       1.630  -3.863  13.094  1.00  0.00     0.068 C 
BRANCH  79  80
ATOM     80  C   UNL     1       1.146  -4.620  14.307  1.00  0.00    -0.045 A 
ATOM     81  C   UNL     1       1.608  -5.914  14.582  1.00  0.00     0.004 A 
ATOM     82  C   UNL     1       0.200  -4.045  15.168  1.00  0.00     0.004 A 
ATOM     83  C   UNL     1       1.146  -6.613  15.698  1.00  0.00     0.000 A 
ATOM     84  C   UNL     1      -0.263  -4.746  16.284  1.00  0.00     0.000 A 
ATOM     85  C   UNL     1       0.211  -6.028  16.550  1.00  0.00     0.000 A 
ENDBRANCH  79  80
ENDBRANCH  76  79
ENDBRANCH  74  76
ENDBRANCH  72  74
ENDBRANCH  70  71
ENDBRANCH   1  69
TORSDOF 17
ENDMDL
MODEL 31
REMARK VINA RESULT:    -6.208      5.418     12.639
REMARK INTER + INTRA:         -24.697
REMARK INTER:                 -18.329
REMARK INTRA:                  -6.367
REMARK UNBOUND:                -6.151
REMARK SMILES C=C1C(=O)N[C@H](C)C(=O)N[C@@H](CC(C)C)C(=O)N[C@@H](C(=O)O)[C@H](C)C(=O)N[C@@H](CCCN=C(N)N)C(=O)N[C@@H](/C=C/C(C)=C/[C@H](C)[C@H](Cc2ccccc2)OC)[C@H](C)C(=O)N[C@@H](C(=O)O)CCC(=O)N1C
REMARK SMILES IDX 39 1 38 2 37 3 36 4 28 6 27 7 25 8 26 9 23 11 24 12 19 13
REMARK SMILES IDX 18 14 16 15 17 16 11 18 10 19 8 20 9 21 12 24 13 25 14 26
REMARK SMILES IDX 15 27 20 28 21 29 22 30 29 32 30 33 31 34 32 35 33 36 34 37
REMARK SMILES IDX 35 38 57 43 58 44 59 45 60 46 61 47 62 49 66 50 67 51 68 52
REMARK SMILES IDX 69 53 70 54 71 55 2 56 1 57 3 58 4 59 5 60 6 62 7 63 63 65
REMARK SMILES IDX 64 66 65 67 40 69 41 70 42 71 44 72 43 73 45 74 46 75 47 76
REMARK SMILES IDX 55 77 56 78 48 79 49 80 50 81 54 82 51 83 53 84 52 85
REMARK H PARENT 38 5 27 10 18 17 10 22 22 31 34 39 34 40 35 41 35 42 61 48
REMARK H PARENT 5 61 65 68
REMARK Flexibility Score:  369.900
ROOT
ATOM      1  C   UNL     1       6.537   5.557   7.864  1.00  0.00     0.117 C 
ENDROOT
BRANCH   1   2
ATOM      2  N   UNL     1       6.763   5.114   9.240  1.00  0.00    -0.347 N 
ATOM      3  O   UNL     1       5.620   3.127   9.121  1.00  0.00    -0.273 OA
ATOM      4  C   UNL     1       6.363   3.887   9.733  1.00  0.00     0.243 C 
ATOM      5  H   UNL     1       7.285   5.704   9.870  1.00  0.00     0.164 HD
BRANCH   4   6
ATOM      6  C   UNL     1       6.802   3.631  11.198  1.00  0.00     0.171 C 
BRANCH   6   7
ATOM      7  N   UNL     1       5.869   2.705  11.860  1.00  0.00    -0.344 N 
ATOM      8  C   UNL     1       4.699   3.169  12.423  1.00  0.00     0.226 C 
ATOM      9  O   UNL     1       4.391   4.354  12.422  1.00  0.00    -0.275 OA
ATOM     10  H   UNL     1       6.121   1.728  11.939  1.00  0.00     0.164 HD
BRANCH   8  11
ATOM     11  C   UNL     1       3.819   2.084  13.018  1.00  0.00     0.109 C 
ATOM     12  C   UNL     1       2.428   2.642  13.318  1.00  0.00     0.021 C 
BRANCH  11  13
ATOM     13  C   UNL     1       3.836   0.840  12.107  1.00  0.00     0.204 C 
BRANCH  13  14
ATOM     14  N   UNL     1       3.008  -0.246  12.642  1.00  0.00    -0.340 N 
ATOM     15  C   UNL     1       3.533  -1.315  13.336  1.00  0.00     0.243 C 
ATOM     16  O   UNL     1       4.729  -1.402  13.609  1.00  0.00    -0.273 OA
ATOM     17  H   UNL     1       2.038  -0.313  12.322  1.00  0.00     0.164 HD
BRANCH  15  18
ATOM     18  C   UNL     1       2.503  -2.435  13.618  1.00  0.00     0.171 C 
BRANCH  18  19
ATOM     19  N   UNL     1       2.906  -3.069  14.872  1.00  0.00    -0.343 N 
ATOM     20  C   UNL     1       3.384  -4.365  14.913  1.00  0.00     0.242 CG0
ATOM     21  O   UNL     1       3.367  -5.088  13.920  1.00  0.00    -0.273 OA
ATOM     22  H   UNL     1       2.830  -2.550  15.739  1.00  0.00     0.164 HD
ATOM     23  G   UNL     1       3.834  -4.834  16.312  1.00  0.00     0.000 G0
ENDBRANCH  18  19
BRANCH  18  24
ATOM     24  C   UNL     1       1.086  -1.856  13.712  1.00  0.00     0.038 C 
BRANCH  24  25
ATOM     25  C   UNL     1       0.032  -2.822  14.295  1.00  0.00    -0.015 C 
ATOM     26  C   UNL     1      -0.043  -4.141  13.525  1.00  0.00     0.007 C 
ATOM     27  C   UNL     1      -1.341  -2.146  14.296  1.00  0.00     0.007 C 
ENDBRANCH  24  25
ENDBRANCH  18  24
ENDBRANCH  15  18
ENDBRANCH  13  14
BRANCH  13  28
ATOM     28  C   UNL     1       3.345   1.127  10.685  1.00  0.00     0.327 C 
ATOM     29  O   UNL     1       2.232   1.520  10.370  1.00  0.00    -0.250 OA
BRANCH  28  30
ATOM     30  O   UNL     1       4.243   0.788   9.738  1.00  0.00    -0.480 OA
ATOM     31  H   UNL     1       4.649  -0.038  10.074  1.00  0.00     0.296 HD
ENDBRANCH  28  30
ENDBRANCH  13  28
ENDBRANCH  11  13
ENDBRANCH   8  11
ENDBRANCH   6   7
BRANCH   6  32
ATOM     32  C   UNL     1       8.227   3.068  11.204  1.00  0.00     0.037 C 
BRANCH  32  33
ATOM     33  C   UNL     1       8.333   1.746  10.431  1.00  0.00     0.026 C 
BRANCH  33  34
ATOM     34  C   UNL     1       9.464   1.758   9.403  1.00  0.00     0.146 C 
BRANCH  34  35
ATOM     35  N   UNL     1       8.973   2.360   8.171  1.00  0.00    -0.254 NA
ATOM     36  C   UNL     1       8.819   1.613   7.141  1.00  0.00     0.185 C 
ATOM     37  N   UNL     1       8.362   2.155   6.002  1.00  0.00    -0.370 N 
ATOM     38  N   UNL     1       9.055   0.295   7.011  1.00  0.00    -0.370 N 
ATOM     39  H   UNL     1       8.150   3.145   6.023  1.00  0.00     0.159 HD
ATOM     40  H   UNL     1       8.052   1.614   5.214  1.00  0.00     0.159 HD
ATOM     41  H   UNL     1       9.028  -0.152   6.109  1.00  0.00     0.159 HD
ATOM     42  H   UNL     1       9.417  -0.240   7.785  1.00  0.00     0.159 HD
ENDBRANCH  34  35
ENDBRANCH  33  34
ENDBRANCH  32  33
ENDBRANCH   6  32
ENDBRANCH   4   6
ENDBRANCH   1   2
BRANCH   1  43
ATOM     43  C   UNL     1       7.916   5.700   7.157  1.00  0.00     0.102 C 
ATOM     44  C   UNL     1       8.794   6.815   7.749  1.00  0.00     0.020 C 
BRANCH  43  45
ATOM     45  C   UNL     1       7.749   5.781   5.637  1.00  0.00     0.225 C 
ATOM     46  O   UNL     1       7.619   4.791   4.922  1.00  0.00    -0.275 OA
ATOM     47  N   UNL     1       7.846   7.043   5.097  1.00  0.00    -0.342 N 
ATOM     48  H   UNL     1       7.800   7.851   5.702  1.00  0.00     0.164 HD
BRANCH  47  49
ATOM     49  C   UNL     1       7.671   7.278   3.660  1.00  0.00     0.192 C 
BRANCH  49  50
ATOM     50  C   UNL     1       9.041   7.348   2.980  1.00  0.00     0.047 C 
BRANCH  50  51
ATOM     51  C   UNL     1       9.204   6.282   1.888  1.00  0.00     0.103 C 
BRANCH  51  52
ATOM     52  C   UNL     1      10.455   6.513   1.043  1.00  0.00     0.226 C 
ATOM     53  O   UNL     1      11.402   5.728   1.127  1.00  0.00    -0.275 OA
BRANCH  52  54
ATOM     54  N   UNL     1      10.414   7.595   0.144  1.00  0.00    -0.311 N 
ATOM     55  C   UNL     1      11.279   8.767   0.332  1.00  0.00     0.153 C 
BRANCH  54  56
ATOM     56  C   UNL     1       9.552   7.593  -0.965  1.00  0.00     0.102 C 
ATOM     57  C   UNL     1       9.261   6.515  -1.710  1.00  0.00     0.043 C 
BRANCH  56  58
ATOM     58  C   UNL     1       8.828   8.850  -1.385  1.00  0.00     0.268 C 
ATOM     59  O   UNL     1       9.110   9.479  -2.396  1.00  0.00    -0.268 OA
ATOM     60  N   UNL     1       7.782   9.175  -0.555  1.00  0.00    -0.339 N 
ATOM     61  H   UNL     1       7.620   8.608   0.269  1.00  0.00     0.164 HD
BRANCH  60  62
ATOM     62  C   UNL     1       6.908  10.319  -0.812  1.00  0.00     0.168 CG0
ATOM     63  C   UNL     1       5.660   9.893  -1.575  1.00  0.00     0.041 C 
ATOM     64  G   UNL     1       7.685  11.396  -1.596  1.00  0.00     0.000 G0
ENDBRANCH  60  62
ENDBRANCH  56  58
ENDBRANCH  54  56
ENDBRANCH  52  54
ENDBRANCH  51  52
ENDBRANCH  50  51
ENDBRANCH  49  50
BRANCH  49  65
ATOM     65  C   UNL     1       6.900   8.579   3.388  1.00  0.00     0.326 C 
ATOM     66  O   UNL     1       7.078   9.324   2.435  1.00  0.00    -0.250 OA
BRANCH  65  67
ATOM     67  O   UNL     1       6.000   8.910   4.339  1.00  0.00    -0.480 OA
ATOM     68  H   UNL     1       5.241   9.264   3.827  1.00  0.00     0.296 HD
ENDBRANCH  65  67
ENDBRANCH  49  65
ENDBRANCH  47  49
ENDBRANCH  43  45
ENDBRANCH   1  43
BRANCH   1  69
ATOM     69  C   UNL     1       5.629   6.769   7.953  1.00  0.00    -0.001 C 
ATOM     70  C   UNL     1       5.328   7.486   9.050  1.00  0.00     0.001 C 
BRANCH  70  71
ATOM     71  C   UNL     1       4.466   8.668   9.120  1.00  0.00    -0.055 C 
ATOM     72  C   UNL     1       4.636   9.624   8.182  1.00  0.00    -0.018 C 
ATOM     73  C   UNL     1       3.447   8.730  10.227  1.00  0.00     0.044 C 
BRANCH  72  74
ATOM     74  C   UNL     1       3.894  10.941   8.004  1.00  0.00     0.038 C 
ATOM     75  C   UNL     1       2.413  10.602   7.793  1.00  0.00     0.015 C 
BRANCH  74  76
ATOM     76  C   UNL     1       4.555  11.735   6.840  1.00  0.00     0.128 C 
BRANCH  76  77
ATOM     77  O   UNL     1       5.657  10.987   6.299  1.00  0.00    -0.381 OA
ATOM     78  C   UNL     1       6.834  11.761   6.110  1.00  0.00     0.195 C 
ENDBRANCH  76  77
BRANCH  76  79
ATOM     79  C   UNL     1       3.557  12.204   5.751  1.00  0.00     0.068 C 
BRANCH  79  80
ATOM     80  C   UNL     1       3.574  11.489   4.421  1.00  0.00    -0.045 A 
ATOM     81  C   UNL     1       2.886  10.282   4.241  1.00  0.00     0.004 A 
ATOM     82  C   UNL     1       4.309  12.013   3.347  1.00  0.00     0.004 A 
ATOM     83  C   UNL     1       2.919   9.621   3.011  1.00  0.00     0.000 A 
ATOM     84  C   UNL     1       4.342  11.350   2.118  1.00  0.00     0.000 A 
ATOM     85  C   UNL     1       3.646  10.155   1.950  1.00  0.00     0.000 A 
ENDBRANCH  79  80
ENDBRANCH  76  79
ENDBRANCH  74  76
ENDBRANCH  72  74
ENDBRANCH  70  71
ENDBRANCH   1  69
TORSDOF 17
ENDMDL
MODEL 32
REMARK VINA RESULT:    -6.206      7.368     13.337
REMARK INTER + INTRA:         -24.693
REMARK INTER:                 -17.974
REMARK INTRA:                  -6.720
REMARK UNBOUND:                -6.151
REMARK SMILES C=C1C(=O)N[C@H](C)C(=O)N[C@@H](CC(C)C)C(=O)N[C@@H](C(=O)O)[C@H](C)C(=O)N[C@@H](CCCN=C(N)N)C(=O)N[C@@H](/C=C/C(C)=C/[C@H](C)[C@H](Cc2ccccc2)OC)[C@H](C)C(=O)N[C@@H](C(=O)O)CCC(=O)N1C
REMARK SMILES IDX 39 1 38 2 37 3 36 4 28 6 27 7 25 8 26 9 23 11 24 12 19 13
REMARK SMILES IDX 18 14 16 15 17 16 11 18 10 19 8 20 9 21 12 24 13 25 14 26
REMARK SMILES IDX 15 27 20 28 21 29 22 30 29 32 30 33 31 34 32 35 33 36 34 37
REMARK SMILES IDX 35 38 57 43 58 44 59 45 60 46 61 47 62 49 66 50 67 51 68 52
REMARK SMILES IDX 69 53 70 54 71 55 2 56 1 57 3 58 4 59 5 60 6 62 7 63 63 65
REMARK SMILES IDX 64 66 65 67 40 69 41 70 42 71 44 72 43 73 45 74 46 75 47 76
REMARK SMILES IDX 55 77 56 78 48 79 49 80 50 81 54 82 51 83 53 84 52 85
REMARK H PARENT 38 5 27 10 18 17 10 22 22 31 34 39 34 40 35 41 35 42 61 48
REMARK H PARENT 5 61 65 68
REMARK Flexibility Score:  369.900
ROOT
ATOM      1  C   UNL     1       5.923   8.465   3.501  1.00  0.00     0.117 C 
ENDROOT
BRANCH   1   2
ATOM      2  N   UNL     1       6.477   7.365   4.291  1.00  0.00    -0.347 N 
ATOM      3  O   UNL     1       8.682   7.997   4.203  1.00  0.00    -0.273 OA
ATOM      4  C   UNL     1       7.806   7.269   4.657  1.00  0.00     0.243 C 
ATOM      5  H   UNL     1       5.860   6.648   4.641  1.00  0.00     0.164 HD
BRANCH   4   6
ATOM      6  C   UNL     1       8.115   6.052   5.566  1.00  0.00     0.171 C 
BRANCH   6   7
ATOM      7  N   UNL     1       7.205   6.029   6.722  1.00  0.00    -0.344 N 
ATOM      8  C   UNL     1       7.454   6.812   7.828  1.00  0.00     0.226 C 
ATOM      9  O   UNL     1       8.438   7.537   7.916  1.00  0.00    -0.275 OA
ATOM     10  H   UNL     1       6.417   5.393   6.714  1.00  0.00     0.164 HD
BRANCH   8  11
ATOM     11  C   UNL     1       6.395   6.718   8.913  1.00  0.00     0.109 C 
ATOM     12  C   UNL     1       5.448   7.915   8.828  1.00  0.00     0.021 C 
BRANCH  11  13
ATOM     13  C   UNL     1       5.706   5.341   8.850  1.00  0.00     0.204 C 
BRANCH  13  14
ATOM     14  N   UNL     1       5.850   4.594  10.104  1.00  0.00    -0.340 N 
ATOM     15  C   UNL     1       5.867   3.218  10.158  1.00  0.00     0.243 C 
ATOM     16  O   UNL     1       5.824   2.517   9.149  1.00  0.00    -0.273 OA
ATOM     17  H   UNL     1       5.738   5.107  10.984  1.00  0.00     0.164 HD
BRANCH  15  18
ATOM     18  C   UNL     1       5.818   2.654  11.600  1.00  0.00     0.171 C 
BRANCH  18  19
ATOM     19  N   UNL     1       7.093   2.996  12.226  1.00  0.00    -0.343 N 
ATOM     20  C   UNL     1       8.175   2.137  12.192  1.00  0.00     0.242 CG0
ATOM     21  O   UNL     1       8.077   0.995  11.750  1.00  0.00    -0.273 OA
ATOM     22  H   UNL     1       7.190   3.883  12.706  1.00  0.00     0.164 HD
ATOM     23  G   UNL     1       9.457   2.702  12.837  1.00  0.00     0.000 G0
ENDBRANCH  18  19
BRANCH  18  24
ATOM     24  C   UNL     1       4.635   3.249  12.373  1.00  0.00     0.038 C 
BRANCH  24  25
ATOM     25  C   UNL     1       3.869   2.240  13.255  1.00  0.00    -0.015 C 
ATOM     26  C   UNL     1       2.363   2.258  12.994  1.00  0.00     0.007 C 
ATOM     27  C   UNL     1       4.139   2.539  14.732  1.00  0.00     0.007 C 
ENDBRANCH  24  25
ENDBRANCH  18  24
ENDBRANCH  15  18
ENDBRANCH  13  14
BRANCH  13  28
ATOM     28  C   UNL     1       4.207   5.428   8.544  1.00  0.00     0.327 C 
ATOM     29  O   UNL     1       3.380   6.077   9.165  1.00  0.00    -0.250 OA
BRANCH  28  30
ATOM     30  O   UNL     1       3.822   4.603   7.550  1.00  0.00    -0.480 OA
ATOM     31  H   UNL     1       4.291   4.942   6.760  1.00  0.00     0.296 HD
ENDBRANCH  28  30
ENDBRANCH  13  28
ENDBRANCH  11  13
ENDBRANCH   8  11
ENDBRANCH   6   7
BRANCH   6  32
ATOM     32  C   UNL     1       7.988   4.765   4.744  1.00  0.00     0.037 C 
BRANCH  32  33
ATOM     33  C   UNL     1       7.335   3.629   5.544  1.00  0.00     0.026 C 
BRANCH  33  34
ATOM     34  C   UNL     1       8.364   2.678   6.156  1.00  0.00     0.146 C 
BRANCH  34  35
ATOM     35  N   UNL     1       9.073   3.375   7.221  1.00  0.00    -0.254 NA
ATOM     36  C   UNL     1       9.207   2.792   8.354  1.00  0.00     0.185 C 
ATOM     37  N   UNL     1       9.863   3.423   9.340  1.00  0.00    -0.370 N 
ATOM     38  N   UNL     1       8.773   1.578   8.736  1.00  0.00    -0.370 N 
ATOM     39  H   UNL     1      10.231   4.341   9.126  1.00  0.00     0.159 HD
ATOM     40  H   UNL     1      10.159   2.972  10.188  1.00  0.00     0.159 HD
ATOM     41  H   UNL     1       8.819   1.288   9.699  1.00  0.00     0.159 HD
ATOM     42  H   UNL     1       8.249   0.997   8.100  1.00  0.00     0.159 HD
ENDBRANCH  34  35
ENDBRANCH  33  34
ENDBRANCH  32  33
ENDBRANCH   6  32
ENDBRANCH   4   6
ENDBRANCH   1   2
BRANCH   1  43
ATOM     43  C   UNL     1       4.485   8.767   4.012  1.00  0.00     0.102 C 
ATOM     44  C   UNL     1       4.417   9.038   5.525  1.00  0.00     0.020 C 
BRANCH  43  45
ATOM     45  C   UNL     1       3.494   7.704   3.527  1.00  0.00     0.225 C 
ATOM     46  O   UNL     1       3.524   6.536   3.906  1.00  0.00    -0.275 OA
ATOM     47  N   UNL     1       2.612   8.116   2.555  1.00  0.00    -0.342 N 
ATOM     48  H   UNL     1       2.499   9.102   2.367  1.00  0.00     0.164 HD
BRANCH  47  49
ATOM     49  C   UNL     1       1.584   7.217   2.022  1.00  0.00     0.192 C 
BRANCH  49  50
ATOM     50  C   UNL     1       1.920   6.853   0.573  1.00  0.00     0.047 C 
BRANCH  50  51
ATOM     51  C   UNL     1       2.427   8.061  -0.227  1.00  0.00     0.103 C 
BRANCH  51  52
ATOM     52  C   UNL     1       1.315   8.717  -1.042  1.00  0.00     0.226 C 
ATOM     53  O   UNL     1       1.125   9.931  -0.948  1.00  0.00    -0.275 OA
BRANCH  52  54
ATOM     54  N   UNL     1       0.610   7.881  -1.928  1.00  0.00    -0.311 N 
ATOM     55  C   UNL     1      -0.819   7.604  -1.730  1.00  0.00     0.153 C 
BRANCH  54  56
ATOM     56  C   UNL     1       1.241   7.286  -3.033  1.00  0.00     0.102 C 
ATOM     57  C   UNL     1       1.232   5.971  -3.308  1.00  0.00     0.043 C 
BRANCH  56  58
ATOM     58  C   UNL     1       1.966   8.128  -4.056  1.00  0.00     0.268 C 
ATOM     59  O   UNL     1       3.183   8.255  -4.078  1.00  0.00    -0.268 OA
ATOM     60  N   UNL     1       1.128   8.679  -4.995  1.00  0.00    -0.339 N 
ATOM     61  H   UNL     1       0.129   8.535  -4.901  1.00  0.00     0.164 HD
BRANCH  60  62
ATOM     62  C   UNL     1       1.628   9.478  -6.113  1.00  0.00     0.168 CG0
ATOM     63  C   UNL     1       1.563  10.967  -5.793  1.00  0.00     0.041 C 
ATOM     64  G   UNL     1       0.814   9.157  -7.383  1.00  0.00     0.000 G0
ENDBRANCH  60  62
ENDBRANCH  56  58
ENDBRANCH  54  56
ENDBRANCH  52  54
ENDBRANCH  51  52
ENDBRANCH  50  51
ENDBRANCH  49  50
BRANCH  49  65
ATOM     65  C   UNL     1       0.188   7.856   2.076  1.00  0.00     0.326 C 
ATOM     66  O   UNL     1      -0.045   9.037   2.290  1.00  0.00    -0.250 OA
BRANCH  65  67
ATOM     67  O   UNL     1      -0.836   6.988   1.921  1.00  0.00    -0.480 OA
ATOM     68  H   UNL     1      -1.634   7.548   2.040  1.00  0.00     0.296 HD
ENDBRANCH  65  67
ENDBRANCH  49  65
ENDBRANCH  47  49
ENDBRANCH  43  45
ENDBRANCH   1  43
BRANCH   1  69
ATOM     69  C   UNL     1       6.119   8.083   2.045  1.00  0.00    -0.001 C 
ATOM     70  C   UNL     1       5.928   8.859   0.964  1.00  0.00     0.001 C 
BRANCH  70  71
ATOM     71  C   UNL     1       6.141   8.485  -0.436  1.00  0.00    -0.055 C 
ATOM     72  C   UNL     1       5.944   7.194  -0.778  1.00  0.00    -0.018 C 
ATOM     73  C   UNL     1       6.557   9.568  -1.397  1.00  0.00     0.044 C 
BRANCH  72  74
ATOM     74  C   UNL     1       6.084   6.526  -2.138  1.00  0.00     0.038 C 
ATOM     75  C   UNL     1       4.803   5.719  -2.380  1.00  0.00     0.015 C 
BRANCH  74  76
ATOM     76  C   UNL     1       7.396   5.687  -2.151  1.00  0.00     0.128 C 
BRANCH  76  77
ATOM     77  O   UNL     1       7.740   5.294  -0.812  1.00  0.00    -0.381 OA
ATOM     78  C   UNL     1       9.030   5.728  -0.402  1.00  0.00     0.195 C 
ENDBRANCH  76  77
BRANCH  76  79
ATOM     79  C   UNL     1       7.371   4.494  -3.139  1.00  0.00     0.068 C 
BRANCH  79  80
ATOM     80  C   UNL     1       7.312   3.100  -2.563  1.00  0.00    -0.045 A 
ATOM     81  C   UNL     1       6.113   2.375  -2.548  1.00  0.00     0.004 A 
ATOM     82  C   UNL     1       8.460   2.517  -2.004  1.00  0.00     0.004 A 
ATOM     83  C   UNL     1       6.064   1.091  -2.000  1.00  0.00     0.000 A 
ATOM     84  C   UNL     1       8.409   1.233  -1.456  1.00  0.00     0.000 A 
ATOM     85  C   UNL     1       7.212   0.521  -1.456  1.00  0.00     0.000 A 
ENDBRANCH  79  80
ENDBRANCH  76  79
ENDBRANCH  74  76
ENDBRANCH  72  74
ENDBRANCH  70  71
ENDBRANCH   1  69
TORSDOF 17
ENDMDL
MODEL 33
REMARK VINA RESULT:    -6.102      4.020      9.895
REMARK INTER + INTRA:         -24.382
REMARK INTER:                 -18.155
REMARK INTRA:                  -6.227
REMARK UNBOUND:                -6.151
REMARK SMILES C=C1C(=O)N[C@H](C)C(=O)N[C@@H](CC(C)C)C(=O)N[C@@H](C(=O)O)[C@H](C)C(=O)N[C@@H](CCCN=C(N)N)C(=O)N[C@@H](/C=C/C(C)=C/[C@H](C)[C@H](Cc2ccccc2)OC)[C@H](C)C(=O)N[C@@H](C(=O)O)CCC(=O)N1C
REMARK SMILES IDX 39 1 38 2 37 3 36 4 28 6 27 7 25 8 26 9 23 11 24 12 19 13
REMARK SMILES IDX 18 14 16 15 17 16 11 18 10 19 8 20 9 21 12 24 13 25 14 26
REMARK SMILES IDX 15 27 20 28 21 29 22 30 29 32 30 33 31 34 32 35 33 36 34 37
REMARK SMILES IDX 35 38 57 43 58 44 59 45 60 46 61 47 62 49 66 50 67 51 68 52
REMARK SMILES IDX 69 53 70 54 71 55 2 56 1 57 3 58 4 59 5 60 6 62 7 63 63 65
REMARK SMILES IDX 64 66 65 67 40 69 41 70 42 71 44 72 43 73 45 74 46 75 47 76
REMARK SMILES IDX 55 77 56 78 48 79 49 80 50 81 54 82 51 83 53 84 52 85
REMARK H PARENT 38 5 27 10 18 17 10 22 22 31 34 39 34 40 35 41 35 42 61 48
REMARK H PARENT 5 61 65 68
REMARK Flexibility Score:  369.900
ROOT
ATOM      1  C   UNL     1       2.667   1.995  12.533  1.00  0.00     0.117 C 
ENDROOT
BRANCH   1   2
ATOM      2  N   UNL     1       3.909   1.986  11.759  1.00  0.00    -0.347 N 
ATOM      3  O   UNL     1       3.111   3.025   9.874  1.00  0.00    -0.273 OA
ATOM      4  C   UNL     1       4.054   2.586  10.523  1.00  0.00     0.243 C 
ATOM      5  H   UNL     1       4.735   1.563  12.155  1.00  0.00     0.164 HD
BRANCH   4   6
ATOM      6  C   UNL     1       5.495   2.505   9.957  1.00  0.00     0.171 C 
BRANCH   6   7
ATOM      7  N   UNL     1       5.809   3.713   9.177  1.00  0.00    -0.344 N 
ATOM      8  C   UNL     1       5.810   4.955   9.773  1.00  0.00     0.226 C 
ATOM      9  O   UNL     1       5.532   5.120  10.955  1.00  0.00    -0.275 OA
ATOM     10  H   UNL     1       5.977   3.624   8.182  1.00  0.00     0.164 HD
BRANCH   8  11
ATOM     11  C   UNL     1       6.206   6.092   8.849  1.00  0.00     0.109 C 
ATOM     12  C   UNL     1       7.376   5.666   7.962  1.00  0.00     0.021 C 
BRANCH  11  13
ATOM     13  C   UNL     1       4.967   6.602   8.087  1.00  0.00     0.204 C 
BRANCH  13  14
ATOM     14  N   UNL     1       5.133   7.983   7.624  1.00  0.00    -0.340 N 
ATOM     15  C   UNL     1       4.347   9.022   8.072  1.00  0.00     0.243 C 
ATOM     16  O   UNL     1       3.488   8.874   8.940  1.00  0.00    -0.273 OA
ATOM     17  H   UNL     1       5.719   8.146   6.801  1.00  0.00     0.164 HD
BRANCH  15  18
ATOM     18  C   UNL     1       4.564  10.343   7.293  1.00  0.00     0.171 C 
BRANCH  18  19
ATOM     19  N   UNL     1       4.239  11.430   8.214  1.00  0.00    -0.343 N 
ATOM     20  C   UNL     1       3.428  12.484   7.840  1.00  0.00     0.242 CG0
ATOM     21  O   UNL     1       3.050  12.625   6.680  1.00  0.00    -0.273 OA
ATOM     22  H   UNL     1       4.623  11.419   9.152  1.00  0.00     0.164 HD
ATOM     23  G   UNL     1       3.134  13.493   8.970  1.00  0.00     0.000 G0
ENDBRANCH  18  19
BRANCH  18  24
ATOM     24  C   UNL     1       6.010  10.444   6.792  1.00  0.00     0.038 C 
BRANCH  24  25
ATOM     25  C   UNL     1       6.215  11.411   5.607  1.00  0.00    -0.015 C 
ATOM     26  C   UNL     1       6.849  10.727   4.395  1.00  0.00     0.007 C 
ATOM     27  C   UNL     1       7.087  12.589   6.049  1.00  0.00     0.007 C 
ENDBRANCH  24  25
ENDBRANCH  18  24
ENDBRANCH  15  18
ENDBRANCH  13  14
BRANCH  13  28
ATOM     28  C   UNL     1       4.619   5.751   6.862  1.00  0.00     0.327 C 
ATOM     29  O   UNL     1       4.776   6.069   5.693  1.00  0.00    -0.250 OA
BRANCH  28  30
ATOM     30  O   UNL     1       3.987   4.603   7.178  1.00  0.00    -0.480 OA
ATOM     31  H   UNL     1       3.049   4.866   7.285  1.00  0.00     0.296 HD
ENDBRANCH  28  30
ENDBRANCH  13  28
ENDBRANCH  11  13
ENDBRANCH   8  11
ENDBRANCH   6   7
BRANCH   6  32
ATOM     32  C   UNL     1       6.482   2.331  11.117  1.00  0.00     0.037 C 
BRANCH  32  33
ATOM     33  C   UNL     1       7.943   2.417  10.652  1.00  0.00     0.026 C 
BRANCH  33  34
ATOM     34  C   UNL     1       8.316   1.294   9.684  1.00  0.00     0.146 C 
BRANCH  34  35
ATOM     35  N   UNL     1       8.006   1.721   8.327  1.00  0.00    -0.254 NA
ATOM     36  C   UNL     1       8.947   2.208   7.606  1.00  0.00     0.185 C 
ATOM     37  N   UNL     1       8.674   2.601   6.352  1.00  0.00    -0.370 N 
ATOM     38  N   UNL     1      10.240   2.400   7.922  1.00  0.00    -0.370 N 
ATOM     39  H   UNL     1       7.720   2.478   6.035  1.00  0.00     0.159 HD
ATOM     40  H   UNL     1       9.381   2.827   5.674  1.00  0.00     0.159 HD
ATOM     41  H   UNL     1      10.852   2.922   7.317  1.00  0.00     0.159 HD
ATOM     42  H   UNL     1      10.583   2.165   8.840  1.00  0.00     0.159 HD
ENDBRANCH  34  35
ENDBRANCH  33  34
ENDBRANCH  32  33
ENDBRANCH   6  32
ENDBRANCH   4   6
ENDBRANCH   1   2
BRANCH   1  43
ATOM     43  C   UNL     1       2.945   2.669  13.908  1.00  0.00     0.102 C 
ATOM     44  C   UNL     1       2.577   4.162  13.944  1.00  0.00     0.020 C 
BRANCH  43  45
ATOM     45  C   UNL     1       4.368   2.367  14.390  1.00  0.00     0.225 C 
ATOM     46  O   UNL     1       5.323   3.104  14.163  1.00  0.00    -0.275 OA
ATOM     47  N   UNL     1       4.535   1.157  15.023  1.00  0.00    -0.342 N 
ATOM     48  H   UNL     1       3.725   0.639  15.334  1.00  0.00     0.164 HD
BRANCH  47  49
ATOM     49  C   UNL     1       5.833   0.750  15.569  1.00  0.00     0.192 C 
BRANCH  49  50
ATOM     50  C   UNL     1       6.548  -0.162  14.569  1.00  0.00     0.047 C 
BRANCH  50  51
ATOM     51  C   UNL     1       7.888   0.423  14.103  1.00  0.00     0.103 C 
BRANCH  51  52
ATOM     52  C   UNL     1       9.075  -0.416  14.572  1.00  0.00     0.226 C 
ATOM     53  O   UNL     1       9.100  -0.845  15.728  1.00  0.00    -0.275 OA
BRANCH  52  54
ATOM     54  N   UNL     1      10.053  -0.715  13.605  1.00  0.00    -0.311 N 
ATOM     55  C   UNL     1      11.313   0.038  13.546  1.00  0.00     0.153 C 
BRANCH  54  56
ATOM     56  C   UNL     1       9.865  -1.745  12.668  1.00  0.00     0.102 C 
ATOM     57  C   UNL     1       9.865  -1.580  11.335  1.00  0.00     0.043 C 
BRANCH  56  58
ATOM     58  C   UNL     1       9.688  -3.177  13.115  1.00  0.00     0.268 C 
ATOM     59  O   UNL     1       9.110  -4.021  12.444  1.00  0.00    -0.268 OA
ATOM     60  N   UNL     1      10.298  -3.447  14.317  1.00  0.00    -0.339 N 
ATOM     61  H   UNL     1      10.749  -2.689  14.816  1.00  0.00     0.164 HD
BRANCH  60  62
ATOM     62  C   UNL     1      10.304  -4.787  14.904  1.00  0.00     0.168 CG0
ATOM     63  C   UNL     1       9.183  -4.941  15.925  1.00  0.00     0.041 C 
ATOM     64  G   UNL     1      11.676  -5.060  15.554  1.00  0.00     0.000 G0
ENDBRANCH  60  62
ENDBRANCH  56  58
ENDBRANCH  54  56
ENDBRANCH  52  54
ENDBRANCH  51  52
ENDBRANCH  50  51
ENDBRANCH  49  50
BRANCH  49  65
ATOM     65  C   UNL     1       5.679   0.016  16.909  1.00  0.00     0.326 C 
ATOM     66  O   UNL     1       4.695   0.055  17.633  1.00  0.00    -0.250 OA
BRANCH  65  67
ATOM     67  O   UNL     1       6.773  -0.674  17.303  1.00  0.00    -0.480 OA
ATOM     68  H   UNL     1       6.952  -1.274  16.548  1.00  0.00     0.296 HD
ENDBRANCH  65  67
ENDBRANCH  49  65
ENDBRANCH  47  49
ENDBRANCH  43  45
ENDBRANCH   1  43
BRANCH   1  69
ATOM     69  C   UNL     1       2.140   0.572  12.507  1.00  0.00    -0.001 C 
ATOM     70  C   UNL     1       1.773  -0.183  13.557  1.00  0.00     0.001 C 
BRANCH  70  71
ATOM     71  C   UNL     1       1.245  -1.548  13.518  1.00  0.00    -0.055 C 
ATOM     72  C   UNL     1       0.123  -1.808  14.221  1.00  0.00    -0.018 C 
ATOM     73  C   UNL     1       1.987  -2.564  12.688  1.00  0.00     0.044 C 
BRANCH  72  74
ATOM     74  C   UNL     1      -0.645  -3.115  14.362  1.00  0.00     0.038 C 
ATOM     75  C   UNL     1      -2.137  -2.776  14.260  1.00  0.00     0.015 C 
BRANCH  74  76
ATOM     76  C   UNL     1      -0.221  -3.804  15.693  1.00  0.00     0.128 C 
BRANCH  76  77
ATOM     77  O   UNL     1       0.528  -4.998  15.410  1.00  0.00    -0.381 OA
ATOM     78  C   UNL     1       0.115  -6.124  16.173  1.00  0.00     0.195 C 
ENDBRANCH  76  77
BRANCH  76  79
ATOM     79  C   UNL     1       0.506  -2.862  16.685  1.00  0.00     0.068 C 
BRANCH  79  80
ATOM     80  C   UNL     1       1.903  -3.234  17.120  1.00  0.00    -0.045 A 
ATOM     81  C   UNL     1       2.147  -3.757  18.396  1.00  0.00     0.004 A 
ATOM     82  C   UNL     1       2.989  -3.033  16.255  1.00  0.00     0.004 A 
ATOM     83  C   UNL     1       3.444  -4.086  18.795  1.00  0.00     0.000 A 
ATOM     84  C   UNL     1       4.286  -3.361  16.655  1.00  0.00     0.000 A 
ATOM     85  C   UNL     1       4.513  -3.889  17.924  1.00  0.00     0.000 A 
ENDBRANCH  79  80
ENDBRANCH  76  79
ENDBRANCH  74  76
ENDBRANCH  72  74
ENDBRANCH  70  71
ENDBRANCH   1  69
TORSDOF 17
ENDMDL
MODEL 34
REMARK VINA RESULT:    -6.029      5.741      9.335
REMARK INTER + INTRA:         -24.164
REMARK INTER:                 -17.572
REMARK INTRA:                  -6.592
REMARK UNBOUND:                -6.151
REMARK SMILES C=C1C(=O)N[C@H](C)C(=O)N[C@@H](CC(C)C)C(=O)N[C@@H](C(=O)O)[C@H](C)C(=O)N[C@@H](CCCN=C(N)N)C(=O)N[C@@H](/C=C/C(C)=C/[C@H](C)[C@H](Cc2ccccc2)OC)[C@H](C)C(=O)N[C@@H](C(=O)O)CCC(=O)N1C
REMARK SMILES IDX 39 1 38 2 37 3 36 4 28 6 27 7 25 8 26 9 23 11 24 12 19 13
REMARK SMILES IDX 18 14 16 15 17 16 11 18 10 19 8 20 9 21 12 24 13 25 14 26
REMARK SMILES IDX 15 27 20 28 21 29 22 30 29 32 30 33 31 34 32 35 33 36 34 37
REMARK SMILES IDX 35 38 57 43 58 44 59 45 60 46 61 47 62 49 66 50 67 51 68 52
REMARK SMILES IDX 69 53 70 54 71 55 2 56 1 57 3 58 4 59 5 60 6 62 7 63 63 65
REMARK SMILES IDX 64 66 65 67 40 69 41 70 42 71 44 72 43 73 45 74 46 75 47 76
REMARK SMILES IDX 55 77 56 78 48 79 49 80 50 81 54 82 51 83 53 84 52 85
REMARK H PARENT 38 5 27 10 18 17 10 22 22 31 34 39 34 40 35 41 35 42 61 48
REMARK H PARENT 5 61 65 68
REMARK Flexibility Score:  369.900
ROOT
ATOM      1  C   UNL     1       5.013   6.991   7.889  1.00  0.00     0.117 C 
ENDROOT
BRANCH   1   2
ATOM      2  N   UNL     1       5.193   7.579   6.561  1.00  0.00    -0.347 N 
ATOM      3  O   UNL     1       4.238   5.888   5.337  1.00  0.00    -0.273 OA
ATOM      4  C   UNL     1       4.707   7.020   5.395  1.00  0.00     0.243 C 
ATOM      5  H   UNL     1       5.655   8.472   6.475  1.00  0.00     0.164 HD
BRANCH   4   6
ATOM      6  C   UNL     1       4.959   7.888   4.136  1.00  0.00     0.171 C 
BRANCH   6   7
ATOM      7  N   UNL     1       6.266   7.563   3.540  1.00  0.00    -0.344 N 
ATOM      8  C   UNL     1       7.422   8.129   4.031  1.00  0.00     0.226 C 
ATOM      9  O   UNL     1       7.422   8.934   4.955  1.00  0.00    -0.275 OA
ATOM     10  H   UNL     1       6.299   6.954   2.732  1.00  0.00     0.164 HD
BRANCH   8  11
ATOM     11  C   UNL     1       8.691   7.653   3.348  1.00  0.00     0.109 C 
ATOM     12  C   UNL     1       8.602   6.154   3.059  1.00  0.00     0.021 C 
BRANCH  11  13
ATOM     13  C   UNL     1       8.983   8.534   2.116  1.00  0.00     0.204 C 
BRANCH  13  14
ATOM     14  N   UNL     1       8.330   8.024   0.907  1.00  0.00    -0.340 N 
ATOM     15  C   UNL     1       9.012   7.357  -0.087  1.00  0.00     0.243 C 
ATOM     16  O   UNL     1      10.208   7.087  -0.001  1.00  0.00    -0.273 OA
ATOM     17  H   UNL     1       7.379   8.344   0.703  1.00  0.00     0.164 HD
BRANCH  15  18
ATOM     18  C   UNL     1       8.161   7.100  -1.356  1.00  0.00     0.171 C 
BRANCH  18  19
ATOM     19  N   UNL     1       9.096   6.742  -2.421  1.00  0.00    -0.343 N 
ATOM     20  C   UNL     1       9.563   7.676  -3.326  1.00  0.00     0.242 CG0
ATOM     21  O   UNL     1       9.113   8.819  -3.360  1.00  0.00    -0.273 OA
ATOM     22  H   UNL     1       9.409   5.781  -2.506  1.00  0.00     0.164 HD
ATOM     23  G   UNL     1      10.601   7.129  -4.327  1.00  0.00     0.000 G0
ENDBRANCH  18  19
BRANCH  18  24
ATOM     24  C   UNL     1       7.140   5.984  -1.106  1.00  0.00     0.038 C 
BRANCH  24  25
ATOM     25  C   UNL     1       7.658   4.559  -1.396  1.00  0.00    -0.015 C 
ATOM     26  C   UNL     1       6.655   3.722  -2.191  1.00  0.00     0.007 C 
ATOM     27  C   UNL     1       7.988   3.853  -0.079  1.00  0.00     0.007 C 
ENDBRANCH  24  25
ENDBRANCH  18  24
ENDBRANCH  15  18
ENDBRANCH  13  14
BRANCH  13  28
ATOM     28  C   UNL     1       8.536   9.988   2.295  1.00  0.00     0.327 C 
ATOM     29  O   UNL     1       9.190  10.888   2.801  1.00  0.00    -0.250 OA
BRANCH  28  30
ATOM     30  O   UNL     1       7.253  10.195   1.937  1.00  0.00    -0.480 OA
ATOM     31  H   UNL     1       6.779  10.298   2.789  1.00  0.00     0.296 HD
ENDBRANCH  28  30
ENDBRANCH  13  28
ENDBRANCH  11  13
ENDBRANCH   8  11
ENDBRANCH   6   7
BRANCH   6  32
ATOM     32  C   UNL     1       3.827   7.656   3.130  1.00  0.00     0.037 C 
BRANCH  32  33
ATOM     33  C   UNL     1       3.740   8.778   2.086  1.00  0.00     0.026 C 
BRANCH  33  34
ATOM     34  C   UNL     1       2.473   8.689   1.234  1.00  0.00     0.146 C 
BRANCH  34  35
ATOM     35  N   UNL     1       1.483   7.894   1.948  1.00  0.00    -0.254 NA
ATOM     36  C   UNL     1       0.281   8.330   2.020  1.00  0.00     0.185 C 
ATOM     37  N   UNL     1      -0.641   7.603   2.670  1.00  0.00    -0.370 N 
ATOM     38  N   UNL     1      -0.238   9.465   1.518  1.00  0.00    -0.370 N 
ATOM     39  H   UNL     1      -0.330   6.726   3.069  1.00  0.00     0.159 HD
ATOM     40  H   UNL     1      -1.629   7.786   2.623  1.00  0.00     0.159 HD
ATOM     41  H   UNL     1      -1.168   9.765   1.761  1.00  0.00     0.159 HD
ATOM     42  H   UNL     1       0.345  10.117   1.017  1.00  0.00     0.159 HD
ENDBRANCH  34  35
ENDBRANCH  33  34
ENDBRANCH  32  33
ENDBRANCH   6  32
ENDBRANCH   4   6
ENDBRANCH   1   2
BRANCH   1  43
ATOM     43  C   UNL     1       5.131   8.121   8.952  1.00  0.00     0.102 C 
ATOM     44  C   UNL     1       4.420   7.793  10.275  1.00  0.00     0.020 C 
BRANCH  43  45
ATOM     45  C   UNL     1       4.742   9.478   8.357  1.00  0.00     0.225 C 
ATOM     46  O   UNL     1       5.511  10.163   7.688  1.00  0.00    -0.275 OA
ATOM     47  N   UNL     1       3.491   9.938   8.698  1.00  0.00    -0.342 N 
ATOM     48  H   UNL     1       2.822   9.305   9.115  1.00  0.00     0.164 HD
BRANCH  47  49
ATOM     49  C   UNL     1       2.970  11.204   8.174  1.00  0.00     0.192 C 
BRANCH  49  50
ATOM     50  C   UNL     1       1.786  11.666   9.026  1.00  0.00     0.047 C 
BRANCH  50  51
ATOM     51  C   UNL     1       0.507  10.872   8.726  1.00  0.00     0.103 C 
BRANCH  51  52
ATOM     52  C   UNL     1       0.220   9.820   9.795  1.00  0.00     0.226 C 
ATOM     53  O   UNL     1       1.123   9.070  10.170  1.00  0.00    -0.275 OA
BRANCH  52  54
ATOM     54  N   UNL     1      -1.073   9.827  10.350  1.00  0.00    -0.311 N 
ATOM     55  C   UNL     1      -1.810  11.084  10.534  1.00  0.00     0.153 C 
BRANCH  54  56
ATOM     56  C   UNL     1      -1.708   8.637  10.742  1.00  0.00     0.102 C 
ATOM     57  C   UNL     1      -2.216   7.723   9.899  1.00  0.00     0.043 C 
BRANCH  56  58
ATOM     58  C   UNL     1      -1.827   8.267  12.202  1.00  0.00     0.268 C 
ATOM     59  O   UNL     1      -2.869   7.874  12.710  1.00  0.00    -0.268 OA
ATOM     60  N   UNL     1      -0.635   8.353  12.881  1.00  0.00    -0.339 N 
ATOM     61  H   UNL     1       0.181   8.698  12.390  1.00  0.00     0.164 HD
BRANCH  60  62
ATOM     62  C   UNL     1      -0.512   7.981  14.289  1.00  0.00     0.168 CG0
ATOM     63  C   UNL     1       0.788   7.228  14.544  1.00  0.00     0.041 C 
ATOM     64  G   UNL     1      -1.728   7.127  14.706  1.00  0.00     0.000 G0
ENDBRANCH  60  62
ENDBRANCH  56  58
ENDBRANCH  54  56
ENDBRANCH  52  54
ENDBRANCH  51  52
ENDBRANCH  50  51
ENDBRANCH  49  50
BRANCH  49  65
ATOM     65  C   UNL     1       2.522  11.070   6.710  1.00  0.00     0.326 C 
ATOM     66  O   UNL     1       1.962  11.938   6.056  1.00  0.00    -0.250 OA
BRANCH  65  67
ATOM     67  O   UNL     1       2.738   9.853   6.163  1.00  0.00    -0.480 OA
ATOM     68  H   UNL     1       3.696   9.699   6.313  1.00  0.00     0.296 HD
ENDBRANCH  65  67
ENDBRANCH  49  65
ENDBRANCH  47  49
ENDBRANCH  43  45
ENDBRANCH   1  43
BRANCH   1  69
ATOM     69  C   UNL     1       5.966   5.812   7.963  1.00  0.00    -0.001 C 
ATOM     70  C   UNL     1       7.272   5.796   7.645  1.00  0.00     0.001 C 
BRANCH  70  71
ATOM     71  C   UNL     1       8.187   4.657   7.741  1.00  0.00    -0.055 C 
ATOM     72  C   UNL     1       7.740   3.455   7.320  1.00  0.00    -0.018 C 
ATOM     73  C   UNL     1       9.565   4.908   8.295  1.00  0.00     0.044 C 
BRANCH  72  74
ATOM     74  C   UNL     1       8.458   2.114   7.297  1.00  0.00     0.038 C 
ATOM     75  C   UNL     1       8.363   1.573   5.866  1.00  0.00     0.015 C 
BRANCH  74  76
ATOM     76  C   UNL     1       7.834   1.192   8.386  1.00  0.00     0.128 C 
BRANCH  76  77
ATOM     77  O   UNL     1       8.394  -0.128   8.292  1.00  0.00    -0.381 OA
ATOM     78  C   UNL     1       9.509  -0.338   9.148  1.00  0.00     0.195 C 
ENDBRANCH  76  77
BRANCH  76  79
ATOM     79  C   UNL     1       7.907   1.774   9.821  1.00  0.00     0.068 C 
BRANCH  79  80
ATOM     80  C   UNL     1       6.750   2.615  10.303  1.00  0.00    -0.045 A 
ATOM     81  C   UNL     1       5.440   2.350   9.883  1.00  0.00     0.004 A 
ATOM     82  C   UNL     1       6.975   3.701  11.163  1.00  0.00     0.004 A 
ATOM     83  C   UNL     1       4.377   3.141  10.322  1.00  0.00     0.000 A 
ATOM     84  C   UNL     1       5.912   4.492  11.601  1.00  0.00     0.000 A 
ATOM     85  C   UNL     1       4.613   4.212  11.182  1.00  0.00     0.000 A 
ENDBRANCH  79  80
ENDBRANCH  76  79
ENDBRANCH  74  76
ENDBRANCH  72  74
ENDBRANCH  70  71
ENDBRANCH   1  69
TORSDOF 17
ENDMDL
MODEL 35
REMARK VINA RESULT:    -6.020      4.157      6.564
REMARK INTER + INTRA:         -24.136
REMARK INTER:                 -17.396
REMARK INTRA:                  -6.740
REMARK UNBOUND:                -6.151
REMARK SMILES C=C1C(=O)N[C@H](C)C(=O)N[C@@H](CC(C)C)C(=O)N[C@@H](C(=O)O)[C@H](C)C(=O)N[C@@H](CCCN=C(N)N)C(=O)N[C@@H](/C=C/C(C)=C/[C@H](C)[C@H](Cc2ccccc2)OC)[C@H](C)C(=O)N[C@@H](C(=O)O)CCC(=O)N1C
REMARK SMILES IDX 39 1 38 2 37 3 36 4 28 6 27 7 25 8 26 9 23 11 24 12 19 13
REMARK SMILES IDX 18 14 16 15 17 16 11 18 10 19 8 20 9 21 12 24 13 25 14 26
REMARK SMILES IDX 15 27 20 28 21 29 22 30 29 32 30 33 31 34 32 35 33 36 34 37
REMARK SMILES IDX 35 38 57 43 58 44 59 45 60 46 61 47 62 49 66 50 67 51 68 52
REMARK SMILES IDX 69 53 70 54 71 55 2 56 1 57 3 58 4 59 5 60 6 62 7 63 63 65
REMARK SMILES IDX 64 66 65 67 40 69 41 70 42 71 44 72 43 73 45 74 46 75 47 76
REMARK SMILES IDX 55 77 56 78 48 79 49 80 50 81 54 82 51 83 53 84 52 85
REMARK H PARENT 38 5 27 10 18 17 10 22 22 31 34 39 34 40 35 41 35 42 61 48
REMARK H PARENT 5 61 65 68
REMARK Flexibility Score:  369.900
ROOT
ATOM      1  C   UNL     1       5.322   4.169  10.188  1.00  0.00     0.117 C 
ENDROOT
BRANCH   1   2
ATOM      2  N   UNL     1       6.601   3.463  10.265  1.00  0.00    -0.347 N 
ATOM      3  O   UNL     1       6.098   1.744   8.829  1.00  0.00    -0.273 OA
ATOM      4  C   UNL     1       6.919   2.353   9.506  1.00  0.00     0.243 C 
ATOM      5  H   UNL     1       7.327   3.820  10.867  1.00  0.00     0.164 HD
BRANCH   4   6
ATOM      6  C   UNL     1       8.370   1.849   9.717  1.00  0.00     0.171 C 
BRANCH   6   7
ATOM      7  N   UNL     1       8.655   1.687  11.151  1.00  0.00    -0.344 N 
ATOM      8  C   UNL     1       9.591   2.483  11.776  1.00  0.00     0.226 C 
ATOM      9  O   UNL     1      10.239   3.334  11.178  1.00  0.00    -0.275 OA
ATOM     10  H   UNL     1       8.189   0.949  11.664  1.00  0.00     0.164 HD
BRANCH   8  11
ATOM     11  C   UNL     1       9.731   2.231  13.267  1.00  0.00     0.109 C 
ATOM     12  C   UNL     1      11.015   2.874  13.790  1.00  0.00     0.021 C 
BRANCH  11  13
ATOM     13  C   UNL     1       8.444   2.670  13.993  1.00  0.00     0.204 C 
BRANCH  13  14
ATOM     14  N   UNL     1       8.518   2.433  15.438  1.00  0.00    -0.340 N 
ATOM     15  C   UNL     1       8.253   1.208  16.011  1.00  0.00     0.243 C 
ATOM     16  O   UNL     1       7.995   0.209  15.342  1.00  0.00    -0.273 OA
ATOM     17  H   UNL     1       8.576   3.248  16.056  1.00  0.00     0.164 HD
BRANCH  15  18
ATOM     18  C   UNL     1       8.190   1.249  17.557  1.00  0.00     0.171 C 
BRANCH  18  19
ATOM     19  N   UNL     1       9.072   0.188  18.041  1.00  0.00    -0.343 N 
ATOM     20  C   UNL     1       8.579  -0.946  18.657  1.00  0.00     0.242 CG0
ATOM     21  O   UNL     1       7.390  -1.055  18.946  1.00  0.00    -0.273 OA
ATOM     22  H   UNL     1      10.075   0.286  17.928  1.00  0.00     0.164 HD
ATOM     23  G   UNL     1       9.654  -1.988  19.027  1.00  0.00     0.000 G0
ENDBRANCH  18  19
BRANCH  18  24
ATOM     24  C   UNL     1       8.624   2.623  18.081  1.00  0.00     0.038 C 
BRANCH  24  25
ATOM     25  C   UNL     1       7.514   3.418  18.802  1.00  0.00    -0.015 C 
ATOM     26  C   UNL     1       6.304   2.550  19.148  1.00  0.00     0.007 C 
ATOM     27  C   UNL     1       7.072   4.594  17.927  1.00  0.00     0.007 C 
ENDBRANCH  24  25
ENDBRANCH  18  24
ENDBRANCH  15  18
ENDBRANCH  13  14
BRANCH  13  28
ATOM     28  C   UNL     1       8.112   4.151  13.792  1.00  0.00     0.327 C 
ATOM     29  O   UNL     1       7.187   4.602  13.134  1.00  0.00    -0.250 OA
BRANCH  28  30
ATOM     30  O   UNL     1       9.032   4.977  14.330  1.00  0.00    -0.480 OA
ATOM     31  H   UNL     1       8.760   5.062  15.268  1.00  0.00     0.296 HD
ENDBRANCH  28  30
ENDBRANCH  13  28
ENDBRANCH  11  13
ENDBRANCH   8  11
ENDBRANCH   6   7
BRANCH   6  32
ATOM     32  C   UNL     1       8.555   0.524   8.969  1.00  0.00     0.037 C 
BRANCH  32  33
ATOM     33  C   UNL     1       9.560   0.646   7.815  1.00  0.00     0.026 C 
BRANCH  33  34
ATOM     34  C   UNL     1       9.322   1.892   6.961  1.00  0.00     0.146 C 
BRANCH  34  35
ATOM     35  N   UNL     1       8.736   1.487   5.691  1.00  0.00    -0.254 NA
ATOM     36  C   UNL     1       7.608   1.986   5.348  1.00  0.00     0.185 C 
ATOM     37  N   UNL     1       7.061   1.623   4.177  1.00  0.00    -0.370 N 
ATOM     38  N   UNL     1       6.837   2.867   6.010  1.00  0.00    -0.370 N 
ATOM     39  H   UNL     1       7.588   0.968   3.614  1.00  0.00     0.159 HD
ATOM     40  H   UNL     1       6.276   2.093   3.760  1.00  0.00     0.159 HD
ATOM     41  H   UNL     1       5.903   3.078   5.700  1.00  0.00     0.159 HD
ATOM     42  H   UNL     1       7.117   3.215   6.914  1.00  0.00     0.159 HD
ENDBRANCH  34  35
ENDBRANCH  33  34
ENDBRANCH  32  33
ENDBRANCH   6  32
ENDBRANCH   4   6
ENDBRANCH   1   2
BRANCH   1  43
ATOM     43  C   UNL     1       5.604   5.698  10.119  1.00  0.00     0.102 C 
ATOM     44  C   UNL     1       4.393   6.561  10.511  1.00  0.00     0.020 C 
BRANCH  43  45
ATOM     45  C   UNL     1       6.231   6.082   8.776  1.00  0.00     0.225 C 
ATOM     46  O   UNL     1       7.289   5.608   8.369  1.00  0.00    -0.275 OA
ATOM     47  N   UNL     1       5.580   7.074   8.079  1.00  0.00    -0.342 N 
ATOM     48  H   UNL     1       4.644   7.342   8.348  1.00  0.00     0.164 HD
BRANCH  47  49
ATOM     49  C   UNL     1       6.047   7.519   6.763  1.00  0.00     0.192 C 
BRANCH  49  50
ATOM     50  C   UNL     1       5.398   8.861   6.413  1.00  0.00     0.047 C 
BRANCH  50  51
ATOM     51  C   UNL     1       5.369   9.822   7.609  1.00  0.00     0.103 C 
BRANCH  51  52
ATOM     52  C   UNL     1       3.943  10.184   8.020  1.00  0.00     0.226 C 
ATOM     53  O   UNL     1       3.273   9.381   8.671  1.00  0.00    -0.275 OA
BRANCH  52  54
ATOM     54  N   UNL     1       3.504  11.478   7.682  1.00  0.00    -0.311 N 
ATOM     55  C   UNL     1       3.116  12.440   8.722  1.00  0.00     0.153 C 
BRANCH  54  56
ATOM     56  C   UNL     1       3.424  11.898   6.344  1.00  0.00     0.102 C 
ATOM     57  C   UNL     1       4.188  12.855   5.792  1.00  0.00     0.043 C 
BRANCH  56  58
ATOM     58  C   UNL     1       2.462  11.242   5.381  1.00  0.00     0.268 C 
ATOM     59  O   UNL     1       2.734  10.231   4.748  1.00  0.00    -0.268 OA
ATOM     60  N   UNL     1       1.234  11.859   5.340  1.00  0.00    -0.339 N 
ATOM     61  H   UNL     1       1.093  12.700   5.887  1.00  0.00     0.164 HD
BRANCH  60  62
ATOM     62  C   UNL     1       0.135  11.351   4.521  1.00  0.00     0.168 CG0
ATOM     63  C   UNL     1      -0.099  12.240   3.306  1.00  0.00     0.041 C 
ATOM     64  G   UNL     1      -1.144  11.251   5.378  1.00  0.00     0.000 G0
ENDBRANCH  60  62
ENDBRANCH  56  58
ENDBRANCH  54  56
ENDBRANCH  52  54
ENDBRANCH  51  52
ENDBRANCH  50  51
ENDBRANCH  49  50
BRANCH  49  65
ATOM     65  C   UNL     1       5.715   6.493   5.668  1.00  0.00     0.326 C 
ATOM     66  O   UNL     1       4.612   6.315   5.172  1.00  0.00    -0.250 OA
BRANCH  65  67
ATOM     67  O   UNL     1       6.751   5.710   5.296  1.00  0.00    -0.480 OA
ATOM     68  H   UNL     1       6.317   4.922   4.904  1.00  0.00     0.296 HD
ENDBRANCH  65  67
ENDBRANCH  49  65
ENDBRANCH  47  49
ENDBRANCH  43  45
ENDBRANCH   1  43
BRANCH   1  69
ATOM     69  C   UNL     1       4.471   3.630  11.323  1.00  0.00    -0.001 C 
ATOM     70  C   UNL     1       4.592   2.443  11.943  1.00  0.00     0.001 C 
BRANCH  70  71
ATOM     71  C   UNL     1       3.777   1.943  13.052  1.00  0.00    -0.055 C 
ATOM     72  C   UNL     1       4.347   1.063  13.902  1.00  0.00    -0.018 C 
ATOM     73  C   UNL     1       2.364   2.451  13.171  1.00  0.00     0.044 C 
BRANCH  72  74
ATOM     74  C   UNL     1       3.753   0.387  15.129  1.00  0.00     0.038 C 
ATOM     75  C   UNL     1       4.703   0.660  16.302  1.00  0.00     0.015 C 
BRANCH  74  76
ATOM     76  C   UNL     1       3.527  -1.121  14.810  1.00  0.00     0.128 C 
BRANCH  76  77
ATOM     77  O   UNL     1       4.793  -1.781  14.639  1.00  0.00    -0.381 OA
ATOM     78  C   UNL     1       4.678  -3.155  14.295  1.00  0.00     0.195 C 
ENDBRANCH  76  77
BRANCH  76  79
ATOM     79  C   UNL     1       2.603  -1.846  15.820  1.00  0.00     0.068 C 
BRANCH  79  80
ATOM     80  C   UNL     1       1.190  -2.157  15.389  1.00  0.00    -0.045 A 
ATOM     81  C   UNL     1       0.603  -1.490  14.306  1.00  0.00     0.004 A 
ATOM     82  C   UNL     1       0.429  -3.105  16.090  1.00  0.00     0.004 A 
ATOM     83  C   UNL     1      -0.709  -1.773  13.922  1.00  0.00     0.000 A 
ATOM     84  C   UNL     1      -0.883  -3.386  15.706  1.00  0.00     0.000 A 
ATOM     85  C   UNL     1      -1.452  -2.722  14.622  1.00  0.00     0.000 A 
ENDBRANCH  79  80
ENDBRANCH  76  79
ENDBRANCH  74  76
ENDBRANCH  72  74
ENDBRANCH  70  71
ENDBRANCH   1  69
TORSDOF 17
ENDMDL
MODEL 36
REMARK VINA RESULT:    -5.988      5.145      9.618
REMARK INTER + INTRA:         -24.041
REMARK INTER:                 -14.729
REMARK INTRA:                  -9.311
REMARK UNBOUND:                -6.151
REMARK SMILES C=C1C(=O)N[C@H](C)C(=O)N[C@@H](CC(C)C)C(=O)N[C@@H](C(=O)O)[C@H](C)C(=O)N[C@@H](CCCN=C(N)N)C(=O)N[C@@H](/C=C/C(C)=C/[C@H](C)[C@H](Cc2ccccc2)OC)[C@H](C)C(=O)N[C@@H](C(=O)O)CCC(=O)N1C
REMARK SMILES IDX 39 1 38 2 37 3 36 4 28 6 27 7 25 8 26 9 23 11 24 12 19 13
REMARK SMILES IDX 18 14 16 15 17 16 11 18 10 19 8 20 9 21 12 24 13 25 14 26
REMARK SMILES IDX 15 27 20 28 21 29 22 30 29 32 30 33 31 34 32 35 33 36 34 37
REMARK SMILES IDX 35 38 57 43 58 44 59 45 60 46 61 47 62 49 66 50 67 51 68 52
REMARK SMILES IDX 69 53 70 54 71 55 2 56 1 57 3 58 4 59 5 60 6 62 7 63 63 65
REMARK SMILES IDX 64 66 65 67 40 69 41 70 42 71 44 72 43 73 45 74 46 75 47 76
REMARK SMILES IDX 55 77 56 78 48 79 49 80 50 81 54 82 51 83 53 84 52 85
REMARK H PARENT 38 5 27 10 18 17 10 22 22 31 34 39 34 40 35 41 35 42 61 48
REMARK H PARENT 5 61 65 68
REMARK Flexibility Score:  369.900
ROOT
ATOM      1  C   UNL     1       3.424   1.584  13.804  1.00  0.00     0.117 C 
ENDROOT
BRANCH   1   2
ATOM      2  N   UNL     1       2.988   0.191  13.906  1.00  0.00    -0.347 N 
ATOM      3  O   UNL     1       3.490  -0.133  16.123  1.00  0.00    -0.273 OA
ATOM      4  C   UNL     1       2.971  -0.530  15.085  1.00  0.00     0.243 C 
ATOM      5  H   UNL     1       2.627  -0.276  13.088  1.00  0.00     0.164 HD
BRANCH   4   6
ATOM      6  C   UNL     1       2.382  -1.956  14.936  1.00  0.00     0.171 C 
BRANCH   6   7
ATOM      7  N   UNL     1       3.153  -2.917  15.739  1.00  0.00    -0.344 N 
ATOM      8  C   UNL     1       3.849  -3.942  15.133  1.00  0.00     0.226 C 
ATOM      9  O   UNL     1       3.843  -4.116  13.921  1.00  0.00    -0.275 OA
ATOM     10  H   UNL     1       3.127  -2.846  16.749  1.00  0.00     0.164 HD
BRANCH   8  11
ATOM     11  C   UNL     1       4.638  -4.815  16.092  1.00  0.00     0.109 C 
ATOM     12  C   UNL     1       3.869  -4.985  17.403  1.00  0.00     0.021 C 
BRANCH  11  13
ATOM     13  C   UNL     1       5.030  -6.133  15.395  1.00  0.00     0.204 C 
BRANCH  13  14
ATOM     14  N   UNL     1       6.472  -6.216  15.144  1.00  0.00    -0.340 N 
ATOM     15  C   UNL     1       7.005  -6.358  13.881  1.00  0.00     0.243 C 
ATOM     16  O   UNL     1       6.309  -6.364  12.867  1.00  0.00    -0.273 OA
ATOM     17  H   UNL     1       7.091  -6.369  15.945  1.00  0.00     0.164 HD
BRANCH  15  18
ATOM     18  C   UNL     1       8.529  -6.633  13.880  1.00  0.00     0.171 C 
BRANCH  18  19
ATOM     19  N   UNL     1       8.703  -8.025  13.467  1.00  0.00    -0.343 N 
ATOM     20  C   UNL     1       8.407  -9.078  14.311  1.00  0.00     0.242 CG0
ATOM     21  O   UNL     1       8.112  -8.894  15.489  1.00  0.00    -0.273 OA
ATOM     22  H   UNL     1       9.056  -8.227  12.538  1.00  0.00     0.164 HD
ATOM     23  G   UNL     1       8.578 -10.472  13.673  1.00  0.00     0.000 G0
ENDBRANCH  18  19
BRANCH  18  24
ATOM     24  C   UNL     1       9.252  -5.671  12.930  1.00  0.00     0.038 C 
BRANCH  24  25
ATOM     25  C   UNL     1       9.562  -4.284  13.531  1.00  0.00    -0.015 C 
ATOM     26  C   UNL     1      10.693  -3.565  12.794  1.00  0.00     0.007 C 
ATOM     27  C   UNL     1       9.926  -4.434  15.011  1.00  0.00     0.007 C 
ENDBRANCH  24  25
ENDBRANCH  18  24
ENDBRANCH  15  18
ENDBRANCH  13  14
BRANCH  13  28
ATOM     28  C   UNL     1       4.636  -7.379  16.194  1.00  0.00     0.327 C 
ATOM     29  O   UNL     1       3.513  -7.850  16.291  1.00  0.00    -0.250 OA
BRANCH  28  30
ATOM     30  O   UNL     1       5.654  -7.888  16.917  1.00  0.00    -0.480 OA
ATOM     31  H   UNL     1       5.215  -8.442  17.595  1.00  0.00     0.296 HD
ENDBRANCH  28  30
ENDBRANCH  13  28
ENDBRANCH  11  13
ENDBRANCH   8  11
ENDBRANCH   6   7
BRANCH   6  32
ATOM     32  C   UNL     1       0.911  -1.940  15.364  1.00  0.00     0.037 C 
BRANCH  32  33
ATOM     33  C   UNL     1      -0.022  -2.444  14.254  1.00  0.00     0.026 C 
BRANCH  33  34
ATOM     34  C   UNL     1       0.211  -3.918  13.919  1.00  0.00     0.146 C 
BRANCH  34  35
ATOM     35  N   UNL     1       0.152  -4.695  15.150  1.00  0.00    -0.254 NA
ATOM     36  C   UNL     1       0.825  -5.782  15.223  1.00  0.00     0.185 C 
ATOM     37  N   UNL     1       0.781  -6.503  16.355  1.00  0.00    -0.370 N 
ATOM     38  N   UNL     1       1.615  -6.351  14.296  1.00  0.00    -0.370 N 
ATOM     39  H   UNL     1       0.214  -6.133  17.107  1.00  0.00     0.159 HD
ATOM     40  H   UNL     1       1.408  -7.264  16.554  1.00  0.00     0.159 HD
ATOM     41  H   UNL     1       1.981  -7.280  14.422  1.00  0.00     0.159 HD
ATOM     42  H   UNL     1       1.728  -5.926  13.389  1.00  0.00     0.159 HD
ENDBRANCH  34  35
ENDBRANCH  33  34
ENDBRANCH  32  33
ENDBRANCH   6  32
ENDBRANCH   4   6
ENDBRANCH   1   2
BRANCH   1  43
ATOM     43  C   UNL     1       2.902   2.168  12.460  1.00  0.00     0.102 C 
ATOM     44  C   UNL     1       2.364   1.098  11.495  1.00  0.00     0.020 C 
BRANCH  43  45
ATOM     45  C   UNL     1       3.935   3.109  11.831  1.00  0.00     0.225 C 
ATOM     46  O   UNL     1       4.029   4.296  12.128  1.00  0.00    -0.275 OA
ATOM     47  N   UNL     1       4.703   2.560  10.830  1.00  0.00    -0.342 N 
ATOM     48  H   UNL     1       4.721   1.558  10.705  1.00  0.00     0.164 HD
BRANCH  47  49
ATOM     49  C   UNL     1       5.756   3.332  10.163  1.00  0.00     0.192 C 
BRANCH  49  50
ATOM     50  C   UNL     1       5.579   3.238   8.645  1.00  0.00     0.047 C 
BRANCH  50  51
ATOM     51  C   UNL     1       5.298   4.605   8.007  1.00  0.00     0.103 C 
BRANCH  51  52
ATOM     52  C   UNL     1       6.577   5.414   7.796  1.00  0.00     0.226 C 
ATOM     53  O   UNL     1       7.522   4.912   7.185  1.00  0.00    -0.275 OA
BRANCH  52  54
ATOM     54  N   UNL     1       6.563   6.742   8.262  1.00  0.00    -0.311 N 
ATOM     55  C   UNL     1       5.758   7.125   9.429  1.00  0.00     0.153 C 
BRANCH  54  56
ATOM     56  C   UNL     1       7.320   7.746   7.635  1.00  0.00     0.102 C 
ATOM     57  C   UNL     1       8.599   8.035   7.921  1.00  0.00     0.043 C 
BRANCH  56  58
ATOM     58  C   UNL     1       6.733   8.573   6.516  1.00  0.00     0.268 C 
ATOM     59  O   UNL     1       7.238   9.614   6.117  1.00  0.00    -0.268 OA
ATOM     60  N   UNL     1       5.616   8.005   5.952  1.00  0.00    -0.339 N 
ATOM     61  H   UNL     1       5.254   7.146   6.348  1.00  0.00     0.164 HD
BRANCH  60  62
ATOM     62  C   UNL     1       4.925   8.608   4.813  1.00  0.00     0.168 CG0
ATOM     63  C   UNL     1       5.377   7.976   3.502  1.00  0.00     0.041 C 
ATOM     64  G   UNL     1       5.179  10.130   4.801  1.00  0.00     0.000 G0
ENDBRANCH  60  62
ENDBRANCH  56  58
ENDBRANCH  54  56
ENDBRANCH  52  54
ENDBRANCH  51  52
ENDBRANCH  50  51
ENDBRANCH  49  50
BRANCH  49  65
ATOM     65  C   UNL     1       7.157   2.826  10.544  1.00  0.00     0.326 C 
ATOM     66  O   UNL     1       8.189   3.479  10.482  1.00  0.00    -0.250 OA
BRANCH  65  67
ATOM     67  O   UNL     1       7.205   1.530  10.921  1.00  0.00    -0.480 OA
ATOM     68  H   UNL     1       6.587   1.487  11.683  1.00  0.00     0.296 HD
ENDBRANCH  65  67
ENDBRANCH  49  65
ENDBRANCH  47  49
ENDBRANCH  43  45
ENDBRANCH   1  43
BRANCH   1  69
ATOM     69  C   UNL     1       4.917   1.581  14.072  1.00  0.00    -0.001 C 
ATOM     70  C   UNL     1       5.594   2.358  14.937  1.00  0.00     0.001 C 
BRANCH  70  71
ATOM     71  C   UNL     1       7.034   2.331  15.202  1.00  0.00    -0.055 C 
ATOM     72  C   UNL     1       7.868   2.465  14.150  1.00  0.00    -0.018 C 
ATOM     73  C   UNL     1       7.481   2.165  16.631  1.00  0.00     0.044 C 
BRANCH  72  74
ATOM     74  C   UNL     1       9.390   2.478  14.124  1.00  0.00     0.038 C 
ATOM     75  C   UNL     1       9.823   3.883  13.689  1.00  0.00     0.015 C 
BRANCH  74  76
ATOM     76  C   UNL     1       9.885   1.327  13.199  1.00  0.00     0.128 C 
BRANCH  76  77
ATOM     77  O   UNL     1      10.994   1.779  12.404  1.00  0.00    -0.381 OA
ATOM     78  C   UNL     1      12.076   0.859  12.358  1.00  0.00     0.195 C 
ENDBRANCH  76  77
BRANCH  76  79
ATOM     79  C   UNL     1      10.184   0.003  13.947  1.00  0.00     0.068 C 
BRANCH  79  80
ATOM     80  C   UNL     1       9.034  -0.697  14.631  1.00  0.00    -0.045 A 
ATOM     81  C   UNL     1       7.882  -1.057  13.919  1.00  0.00     0.004 A 
ATOM     82  C   UNL     1       9.092  -0.975  16.005  1.00  0.00     0.004 A 
ATOM     83  C   UNL     1       6.817  -1.692  14.562  1.00  0.00     0.000 A 
ATOM     84  C   UNL     1       8.027  -1.610  16.647  1.00  0.00     0.000 A 
ATOM     85  C   UNL     1       6.891  -1.970  15.925  1.00  0.00     0.000 A 
ENDBRANCH  79  80
ENDBRANCH  76  79
ENDBRANCH  74  76
ENDBRANCH  72  74
ENDBRANCH  70  71
ENDBRANCH   1  69
TORSDOF 17
ENDMDL
MODEL 37
REMARK VINA RESULT:    -5.963      3.975      5.162
REMARK INTER + INTRA:         -23.967
REMARK INTER:                 -16.117
REMARK INTRA:                  -7.850
REMARK UNBOUND:                -6.151
REMARK SMILES C=C1C(=O)N[C@H](C)C(=O)N[C@@H](CC(C)C)C(=O)N[C@@H](C(=O)O)[C@H](C)C(=O)N[C@@H](CCCN=C(N)N)C(=O)N[C@@H](/C=C/C(C)=C/[C@H](C)[C@H](Cc2ccccc2)OC)[C@H](C)C(=O)N[C@@H](C(=O)O)CCC(=O)N1C
REMARK SMILES IDX 39 1 38 2 37 3 36 4 28 6 27 7 25 8 26 9 23 11 24 12 19 13
REMARK SMILES IDX 18 14 16 15 17 16 11 18 10 19 8 20 9 21 12 24 13 25 14 26
REMARK SMILES IDX 15 27 20 28 21 29 22 30 29 32 30 33 31 34 32 35 33 36 34 37
REMARK SMILES IDX 35 38 57 43 58 44 59 45 60 46 61 47 62 49 66 50 67 51 68 52
REMARK SMILES IDX 69 53 70 54 71 55 2 56 1 57 3 58 4 59 5 60 6 62 7 63 63 65
REMARK SMILES IDX 64 66 65 67 40 69 41 70 42 71 44 72 43 73 45 74 46 75 47 76
REMARK SMILES IDX 55 77 56 78 48 79 49 80 50 81 54 82 51 83 53 84 52 85
REMARK H PARENT 38 5 27 10 18 17 10 22 22 31 34 39 34 40 35 41 35 42 61 48
REMARK H PARENT 5 61 65 68
REMARK Flexibility Score:  369.900
ROOT
ATOM      1  C   UNL     1       5.430   3.690  10.195  1.00  0.00     0.117 C 
ENDROOT
BRANCH   1   2
ATOM      2  N   UNL     1       6.719   3.088  10.538  1.00  0.00    -0.347 N 
ATOM      3  O   UNL     1       6.627   1.306   9.093  1.00  0.00    -0.273 OA
ATOM      4  C   UNL     1       7.257   1.991   9.892  1.00  0.00     0.243 C 
ATOM      5  H   UNL     1       7.289   3.513  11.254  1.00  0.00     0.164 HD
BRANCH   4   6
ATOM      6  C   UNL     1       8.673   1.607  10.391  1.00  0.00     0.171 C 
BRANCH   6   7
ATOM      7  N   UNL     1       8.701   1.542  11.861  1.00  0.00    -0.344 N 
ATOM      8  C   UNL     1       9.699   2.170  12.573  1.00  0.00     0.226 C 
ATOM      9  O   UNL     1      10.610   2.784  12.032  1.00  0.00    -0.275 OA
ATOM     10  H   UNL     1       8.003   0.987  12.341  1.00  0.00     0.164 HD
BRANCH   8  11
ATOM     11  C   UNL     1       9.557   2.057  14.081  1.00  0.00     0.109 C 
ATOM     12  C   UNL     1       8.116   1.703  14.449  1.00  0.00     0.021 C 
BRANCH  11  13
ATOM     13  C   UNL     1      10.623   1.090  14.634  1.00  0.00     0.204 C 
BRANCH  13  14
ATOM     14  N   UNL     1      10.906  -0.009  13.705  1.00  0.00    -0.340 N 
ATOM     15  C   UNL     1      10.417  -1.285  13.883  1.00  0.00     0.243 C 
ATOM     16  O   UNL     1       9.656  -1.577  14.804  1.00  0.00    -0.273 OA
ATOM     17  H   UNL     1      11.647   0.127  13.011  1.00  0.00     0.164 HD
BRANCH  15  18
ATOM     18  C   UNL     1      11.014  -2.320  12.898  1.00  0.00     0.171 C 
BRANCH  18  19
ATOM     19  N   UNL     1      12.097  -2.996  13.608  1.00  0.00    -0.343 N 
ATOM     20  C   UNL     1      13.346  -2.422  13.751  1.00  0.00     0.242 CG0
ATOM     21  O   UNL     1      13.644  -1.379  13.174  1.00  0.00    -0.273 OA
ATOM     22  H   UNL     1      11.935  -3.915  14.004  1.00  0.00     0.164 HD
ATOM     23  G   UNL     1      14.334  -3.250  14.597  1.00  0.00     0.000 G0
ENDBRANCH  18  19
BRANCH  18  24
ATOM     24  C   UNL     1       9.939  -3.311  12.437  1.00  0.00     0.038 C 
BRANCH  24  25
ATOM     25  C   UNL     1       9.863  -3.514  10.909  1.00  0.00    -0.015 C 
ATOM     26  C   UNL     1       9.759  -4.989  10.519  1.00  0.00     0.007 C 
ATOM     27  C   UNL     1      11.093  -2.891  10.245  1.00  0.00     0.007 C 
ENDBRANCH  24  25
ENDBRANCH  18  24
ENDBRANCH  15  18
ENDBRANCH  13  14
BRANCH  13  28
ATOM     28  C   UNL     1      11.957   1.776  14.945  1.00  0.00     0.327 C 
ATOM     29  O   UNL     1      12.182   2.526  15.883  1.00  0.00    -0.250 OA
BRANCH  28  30
ATOM     30  O   UNL     1      12.891   1.572  13.994  1.00  0.00    -0.480 OA
ATOM     31  H   UNL     1      13.300   2.453  13.864  1.00  0.00     0.296 HD
ENDBRANCH  28  30
ENDBRANCH  13  28
ENDBRANCH  11  13
ENDBRANCH   8  11
ENDBRANCH   6   7
BRANCH   6  32
ATOM     32  C   UNL     1       9.075   0.262   9.776  1.00  0.00     0.037 C 
BRANCH  32  33
ATOM     33  C   UNL     1      10.149   0.419   8.690  1.00  0.00     0.026 C 
BRANCH  33  34
ATOM     34  C   UNL     1       9.909   1.640   7.802  1.00  0.00     0.146 C 
BRANCH  34  35
ATOM     35  N   UNL     1       9.391   1.192   6.517  1.00  0.00    -0.254 NA
ATOM     36  C   UNL     1       8.363   1.779   6.029  1.00  0.00     0.185 C 
ATOM     37  N   UNL     1       7.881   1.377   4.843  1.00  0.00    -0.370 N 
ATOM     38  N   UNL     1       7.646   2.794   6.544  1.00  0.00    -0.370 N 
ATOM     39  H   UNL     1       8.374   0.621   4.385  1.00  0.00     0.159 HD
ATOM     40  H   UNL     1       7.195   1.892   4.318  1.00  0.00     0.159 HD
ATOM     41  H   UNL     1       6.773   3.077   6.131  1.00  0.00     0.159 HD
ATOM     42  H   UNL     1       7.886   3.187   7.441  1.00  0.00     0.159 HD
ENDBRANCH  34  35
ENDBRANCH  33  34
ENDBRANCH  32  33
ENDBRANCH   6  32
ENDBRANCH   4   6
ENDBRANCH   1   2
BRANCH   1  43
ATOM     43  C   UNL     1       5.630   5.223  10.022  1.00  0.00     0.102 C 
ATOM     44  C   UNL     1       4.311   6.013   9.987  1.00  0.00     0.020 C 
BRANCH  43  45
ATOM     45  C   UNL     1       6.568   5.528   8.850  1.00  0.00     0.225 C 
ATOM     46  O   UNL     1       7.617   4.921   8.655  1.00  0.00    -0.275 OA
ATOM     47  N   UNL     1       6.208   6.600   8.067  1.00  0.00    -0.342 N 
ATOM     48  H   UNL     1       5.278   6.987   8.145  1.00  0.00     0.164 HD
BRANCH  47  49
ATOM     49  C   UNL     1       6.991   6.986   6.889  1.00  0.00     0.192 C 
BRANCH  49  50
ATOM     50  C   UNL     1       6.819   8.484   6.625  1.00  0.00     0.047 C 
BRANCH  50  51
ATOM     51  C   UNL     1       5.985   9.175   7.712  1.00  0.00     0.103 C 
BRANCH  51  52
ATOM     52  C   UNL     1       4.544   9.414   7.265  1.00  0.00     0.226 C 
ATOM     53  O   UNL     1       3.864   8.466   6.865  1.00  0.00    -0.275 OA
BRANCH  52  54
ATOM     54  N   UNL     1       4.051  10.723   7.413  1.00  0.00    -0.311 N 
ATOM     55  C   UNL     1       4.916  11.888   7.184  1.00  0.00     0.153 C 
BRANCH  54  56
ATOM     56  C   UNL     1       2.716  10.966   7.777  1.00  0.00     0.102 C 
ATOM     57  C   UNL     1       2.232  10.875   9.027  1.00  0.00     0.043 C 
BRANCH  56  58
ATOM     58  C   UNL     1       1.700  11.409   6.751  1.00  0.00     0.268 C 
ATOM     59  O   UNL     1       0.951  12.362   6.918  1.00  0.00    -0.268 OA
ATOM     60  N   UNL     1       1.750  10.675   5.590  1.00  0.00    -0.339 N 
ATOM     61  H   UNL     1       2.392   9.893   5.535  1.00  0.00     0.164 HD
BRANCH  60  62
ATOM     62  C   UNL     1       0.896  10.975   4.441  1.00  0.00     0.168 CG0
ATOM     63  C   UNL     1       1.595  10.623   3.134  1.00  0.00     0.041 C 
ATOM     64  G   UNL     1       0.502  12.466   4.466  1.00  0.00     0.000 G0
ENDBRANCH  60  62
ENDBRANCH  56  58
ENDBRANCH  54  56
ENDBRANCH  52  54
ENDBRANCH  51  52
ENDBRANCH  50  51
ENDBRANCH  49  50
BRANCH  49  65
ATOM     65  C   UNL     1       6.563   6.197   5.641  1.00  0.00     0.326 C 
ATOM     66  O   UNL     1       7.264   5.408   5.025  1.00  0.00    -0.250 OA
BRANCH  65  67
ATOM     67  O   UNL     1       5.318   6.477   5.196  1.00  0.00    -0.480 OA
ATOM     68  H   UNL     1       4.921   5.591   5.050  1.00  0.00     0.296 HD
ENDBRANCH  65  67
ENDBRANCH  49  65
ENDBRANCH  47  49
ENDBRANCH  43  45
ENDBRANCH   1  43
BRANCH   1  69
ATOM     69  C   UNL     1       4.440   3.191  11.231  1.00  0.00    -0.001 C 
ATOM     70  C   UNL     1       4.653   2.271  12.188  1.00  0.00     0.001 C 
BRANCH  70  71
ATOM     71  C   UNL     1       3.695   1.813  13.196  1.00  0.00    -0.055 C 
ATOM     72  C   UNL     1       4.029   0.733  13.934  1.00  0.00    -0.018 C 
ATOM     73  C   UNL     1       2.409   2.584  13.345  1.00  0.00     0.044 C 
BRANCH  72  74
ATOM     74  C   UNL     1       3.245   0.043  15.041  1.00  0.00     0.038 C 
ATOM     75  C   UNL     1       4.241  -0.301  16.155  1.00  0.00     0.015 C 
BRANCH  74  76
ATOM     76  C   UNL     1       2.493  -1.179  14.436  1.00  0.00     0.128 C 
BRANCH  76  77
ATOM     77  O   UNL     1       1.258  -0.750  13.840  1.00  0.00    -0.381 OA
ATOM     78  C   UNL     1       0.209  -1.703  13.949  1.00  0.00     0.195 C 
ENDBRANCH  76  77
BRANCH  76  79
ATOM     79  C   UNL     1       3.356  -2.036  13.476  1.00  0.00     0.068 C 
BRANCH  79  80
ATOM     80  C   UNL     1       3.677  -3.453  13.888  1.00  0.00    -0.045 A 
ATOM     81  C   UNL     1       2.686  -4.443  13.899  1.00  0.00     0.004 A 
ATOM     82  C   UNL     1       4.975  -3.794  14.295  1.00  0.00     0.004 A 
ATOM     83  C   UNL     1       2.988  -5.748  14.295  1.00  0.00     0.000 A 
ATOM     84  C   UNL     1       5.276  -5.099  14.691  1.00  0.00     0.000 A 
ATOM     85  C   UNL     1       4.283  -6.076  14.690  1.00  0.00     0.000 A 
ENDBRANCH  79  80
ENDBRANCH  76  79
ENDBRANCH  74  76
ENDBRANCH  72  74
ENDBRANCH  70  71
ENDBRANCH   1  69
TORSDOF 17
ENDMDL
MODEL 38
REMARK VINA RESULT:    -5.961      4.234      9.843
REMARK INTER + INTRA:         -23.961
REMARK INTER:                 -17.006
REMARK INTRA:                  -6.955
REMARK UNBOUND:                -6.151
REMARK SMILES C=C1C(=O)N[C@H](C)C(=O)N[C@@H](CC(C)C)C(=O)N[C@@H](C(=O)O)[C@H](C)C(=O)N[C@@H](CCCN=C(N)N)C(=O)N[C@@H](/C=C/C(C)=C/[C@H](C)[C@H](Cc2ccccc2)OC)[C@H](C)C(=O)N[C@@H](C(=O)O)CCC(=O)N1C
REMARK SMILES IDX 39 1 38 2 37 3 36 4 28 6 27 7 25 8 26 9 23 11 24 12 19 13
REMARK SMILES IDX 18 14 16 15 17 16 11 18 10 19 8 20 9 21 12 24 13 25 14 26
REMARK SMILES IDX 15 27 20 28 21 29 22 30 29 32 30 33 31 34 32 35 33 36 34 37
REMARK SMILES IDX 35 38 57 43 58 44 59 45 60 46 61 47 62 49 66 50 67 51 68 52
REMARK SMILES IDX 69 53 70 54 71 55 2 56 1 57 3 58 4 59 5 60 6 62 7 63 63 65
REMARK SMILES IDX 64 66 65 67 40 69 41 70 42 71 44 72 43 73 45 74 46 75 47 76
REMARK SMILES IDX 55 77 56 78 48 79 49 80 50 81 54 82 51 83 53 84 52 85
REMARK H PARENT 38 5 27 10 18 17 10 22 22 31 34 39 34 40 35 41 35 42 61 48
REMARK H PARENT 5 61 65 68
REMARK Flexibility Score:  369.900
ROOT
ATOM      1  C   UNL     1       3.947   1.771  14.294  1.00  0.00     0.117 C 
ENDROOT
BRANCH   1   2
ATOM      2  N   UNL     1       5.089   1.826  13.381  1.00  0.00    -0.347 N 
ATOM      3  O   UNL     1       3.915   1.792  11.408  1.00  0.00    -0.273 OA
ATOM      4  C   UNL     1       4.977   1.925  12.007  1.00  0.00     0.243 C 
ATOM      5  H   UNL     1       6.024   1.845  13.759  1.00  0.00     0.164 HD
BRANCH   4   6
ATOM      6  C   UNL     1       6.339   2.055  11.279  1.00  0.00     0.171 C 
BRANCH   6   7
ATOM      7  N   UNL     1       6.319   3.196  10.350  1.00  0.00    -0.344 N 
ATOM      8  C   UNL     1       5.986   4.457  10.793  1.00  0.00     0.226 C 
ATOM      9  O   UNL     1       5.673   4.688  11.956  1.00  0.00    -0.275 OA
ATOM     10  H   UNL     1       6.505   3.033   9.368  1.00  0.00     0.164 HD
BRANCH   8  11
ATOM     11  C   UNL     1       6.064   5.536   9.727  1.00  0.00     0.109 C 
ATOM     12  C   UNL     1       7.028   5.112   8.619  1.00  0.00     0.021 C 
BRANCH  11  13
ATOM     13  C   UNL     1       4.644   5.899   9.248  1.00  0.00     0.204 C 
BRANCH  13  14
ATOM     14  N   UNL     1       4.651   7.018   8.300  1.00  0.00    -0.340 N 
ATOM     15  C   UNL     1       4.902   8.319   8.680  1.00  0.00     0.243 C 
ATOM     16  O   UNL     1       5.198   8.625   9.834  1.00  0.00    -0.273 OA
ATOM     17  H   UNL     1       4.267   6.858   7.365  1.00  0.00     0.164 HD
BRANCH  15  18
ATOM     18  C   UNL     1       4.651   9.352   7.554  1.00  0.00     0.171 C 
BRANCH  18  19
ATOM     19  N   UNL     1       4.241  10.593   8.208  1.00  0.00    -0.343 N 
ATOM     20  C   UNL     1       2.913  10.958   8.310  1.00  0.00     0.242 CG0
ATOM     21  O   UNL     1       2.026  10.326   7.742  1.00  0.00    -0.273 OA
ATOM     22  H   UNL     1       4.948  11.209   8.594  1.00  0.00     0.164 HD
ATOM     23  G   UNL     1       2.669  12.260   9.102  1.00  0.00     0.000 G0
ENDBRANCH  18  19
BRANCH  18  24
ATOM     24  C   UNL     1       5.917   9.552   6.712  1.00  0.00     0.038 C 
BRANCH  24  25
ATOM     25  C   UNL     1       5.871   8.899   5.314  1.00  0.00    -0.015 C 
ATOM     26  C   UNL     1       4.442   8.678   4.818  1.00  0.00     0.007 C 
ATOM     27  C   UNL     1       6.618   7.563   5.346  1.00  0.00     0.007 C 
ENDBRANCH  24  25
ENDBRANCH  18  24
ENDBRANCH  15  18
ENDBRANCH  13  14
BRANCH  13  28
ATOM     28  C   UNL     1       3.920   4.733   8.568  1.00  0.00     0.327 C 
ATOM     29  O   UNL     1       3.202   3.911   9.115  1.00  0.00    -0.250 OA
BRANCH  28  30
ATOM     30  O   UNL     1       4.237   4.602   7.264  1.00  0.00    -0.480 OA
ATOM     31  H   UNL     1       3.684   3.855   6.955  1.00  0.00     0.296 HD
ENDBRANCH  28  30
ENDBRANCH  13  28
ENDBRANCH  11  13
ENDBRANCH   8  11
ENDBRANCH   6   7
BRANCH   6  32
ATOM     32  C   UNL     1       7.453   2.216  12.319  1.00  0.00     0.037 C 
BRANCH  32  33
ATOM     33  C   UNL     1       8.786   2.632  11.681  1.00  0.00     0.026 C 
BRANCH  33  34
ATOM     34  C   UNL     1       9.308   1.593  10.688  1.00  0.00     0.146 C 
BRANCH  34  35
ATOM     35  N   UNL     1       9.482   2.230   9.390  1.00  0.00    -0.254 NA
ATOM     36  C   UNL     1       8.922   1.702   8.366  1.00  0.00     0.185 C 
ATOM     37  N   UNL     1       9.071   2.284   7.166  1.00  0.00    -0.370 N 
ATOM     38  N   UNL     1       8.164   0.594   8.295  1.00  0.00    -0.370 N 
ATOM     39  H   UNL     1       9.623   3.132   7.138  1.00  0.00     0.159 HD
ATOM     40  H   UNL     1       8.530   2.035   6.356  1.00  0.00     0.159 HD
ATOM     41  H   UNL     1       7.895   0.201   7.408  1.00  0.00     0.159 HD
ATOM     42  H   UNL     1       7.981   0.044   9.121  1.00  0.00     0.159 HD
ENDBRANCH  34  35
ENDBRANCH  33  34
ENDBRANCH  32  33
ENDBRANCH   6  32
ENDBRANCH   4   6
ENDBRANCH   1   2
BRANCH   1  43
ATOM     43  C   UNL     1       4.408   2.266  15.695  1.00  0.00     0.102 C 
ATOM     44  C   UNL     1       3.682   3.539  16.164  1.00  0.00     0.020 C 
BRANCH  43  45
ATOM     45  C   UNL     1       5.935   2.359  15.770  1.00  0.00     0.225 C 
ATOM     46  O   UNL     1       6.562   3.366  15.453  1.00  0.00    -0.275 OA
ATOM     47  N   UNL     1       6.582   1.200  16.132  1.00  0.00    -0.342 N 
ATOM     48  H   UNL     1       6.054   0.437  16.532  1.00  0.00     0.164 HD
BRANCH  47  49
ATOM     49  C   UNL     1       8.039   1.150  16.280  1.00  0.00     0.192 C 
BRANCH  49  50
ATOM     50  C   UNL     1       8.553  -0.228  15.853  1.00  0.00     0.047 C 
BRANCH  50  51
ATOM     51  C   UNL     1       7.476  -1.314  15.978  1.00  0.00     0.103 C 
BRANCH  51  52
ATOM     52  C   UNL     1       6.936  -1.746  14.616  1.00  0.00     0.226 C 
ATOM     53  O   UNL     1       6.544  -0.893  13.818  1.00  0.00    -0.275 OA
BRANCH  52  54
ATOM     54  N   UNL     1       6.994  -3.122  14.326  1.00  0.00    -0.311 N 
ATOM     55  C   UNL     1       5.775  -3.940  14.297  1.00  0.00     0.153 C 
BRANCH  54  56
ATOM     56  C   UNL     1       8.214  -3.761  14.049  1.00  0.00     0.102 C 
ATOM     57  C   UNL     1       9.114  -3.341  13.145  1.00  0.00     0.043 C 
BRANCH  56  58
ATOM     58  C   UNL     1       8.634  -4.994  14.814  1.00  0.00     0.268 C 
ATOM     59  O   UNL     1       8.710  -5.031  16.035  1.00  0.00    -0.268 OA
ATOM     60  N   UNL     1       8.857  -6.082  14.005  1.00  0.00    -0.339 N 
ATOM     61  H   UNL     1       8.784  -5.966  13.001  1.00  0.00     0.164 HD
BRANCH  60  62
ATOM     62  C   UNL     1       9.212  -7.394  14.544  1.00  0.00     0.168 CG0
ATOM     63  C   UNL     1       7.986  -8.292  14.651  1.00  0.00     0.041 C 
ATOM     64  G   UNL     1       9.885  -7.222  15.922  1.00  0.00     0.000 G0
ENDBRANCH  60  62
ENDBRANCH  56  58
ENDBRANCH  54  56
ENDBRANCH  52  54
ENDBRANCH  51  52
ENDBRANCH  50  51
ENDBRANCH  49  50
BRANCH  49  65
ATOM     65  C   UNL     1       8.472   1.428  17.728  1.00  0.00     0.326 C 
ATOM     66  O   UNL     1       9.223   0.729  18.392  1.00  0.00    -0.250 OA
BRANCH  65  67
ATOM     67  O   UNL     1       7.904   2.520  18.286  1.00  0.00    -0.480 OA
ATOM     68  H   UNL     1       8.587   2.841  18.913  1.00  0.00     0.296 HD
ENDBRANCH  65  67
ENDBRANCH  49  65
ENDBRANCH  47  49
ENDBRANCH  43  45
ENDBRANCH   1  43
BRANCH   1  69
ATOM     69  C   UNL     1       3.368   0.374  14.164  1.00  0.00    -0.001 C 
ATOM     70  C   UNL     1       2.125   0.038  13.774  1.00  0.00     0.001 C 
BRANCH  70  71
ATOM     71  C   UNL     1       1.584  -1.316  13.632  1.00  0.00    -0.055 C 
ATOM     72  C   UNL     1       0.419  -1.594  14.254  1.00  0.00    -0.018 C 
ATOM     73  C   UNL     1       2.361  -2.298  12.795  1.00  0.00     0.044 C 
BRANCH  72  74
ATOM     74  C   UNL     1      -0.371  -2.895  14.281  1.00  0.00     0.038 C 
ATOM     75  C   UNL     1      -1.858  -2.521  14.293  1.00  0.00     0.015 C 
BRANCH  74  76
ATOM     76  C   UNL     1       0.099  -3.741  15.501  1.00  0.00     0.128 C 
BRANCH  76  77
ATOM     77  O   UNL     1       1.138  -4.649  15.097  1.00  0.00    -0.381 OA
ATOM     78  C   UNL     1       0.859  -6.009  15.404  1.00  0.00     0.195 C 
ENDBRANCH  76  77
BRANCH  76  79
ATOM     79  C   UNL     1       0.488  -2.897  16.741  1.00  0.00     0.068 C 
BRANCH  79  80
ATOM     80  C   UNL     1       1.871  -3.084  17.318  1.00  0.00    -0.045 A 
ATOM     81  C   UNL     1       2.102  -3.999  18.354  1.00  0.00     0.004 A 
ATOM     82  C   UNL     1       2.946  -2.320  16.841  1.00  0.00     0.004 A 
ATOM     83  C   UNL     1       3.381  -4.156  18.892  1.00  0.00     0.000 A 
ATOM     84  C   UNL     1       4.224  -2.477  17.380  1.00  0.00     0.000 A 
ATOM     85  C   UNL     1       4.442  -3.396  18.404  1.00  0.00     0.000 A 
ENDBRANCH  79  80
ENDBRANCH  76  79
ENDBRANCH  74  76
ENDBRANCH  72  74
ENDBRANCH  70  71
ENDBRANCH   1  69
TORSDOF 17
ENDMDL
MODEL 39
REMARK VINA RESULT:    -5.947      8.045     13.713
REMARK INTER + INTRA:         -23.918
REMARK INTER:                 -16.030
REMARK INTRA:                  -7.888
REMARK UNBOUND:                -6.151
REMARK SMILES C=C1C(=O)N[C@H](C)C(=O)N[C@@H](CC(C)C)C(=O)N[C@@H](C(=O)O)[C@H](C)C(=O)N[C@@H](CCCN=C(N)N)C(=O)N[C@@H](/C=C/C(C)=C/[C@H](C)[C@H](Cc2ccccc2)OC)[C@H](C)C(=O)N[C@@H](C(=O)O)CCC(=O)N1C
REMARK SMILES IDX 39 1 38 2 37 3 36 4 28 6 27 7 25 8 26 9 23 11 24 12 19 13
REMARK SMILES IDX 18 14 16 15 17 16 11 18 10 19 8 20 9 21 12 24 13 25 14 26
REMARK SMILES IDX 15 27 20 28 21 29 22 30 29 32 30 33 31 34 32 35 33 36 34 37
REMARK SMILES IDX 35 38 57 43 58 44 59 45 60 46 61 47 62 49 66 50 67 51 68 52
REMARK SMILES IDX 69 53 70 54 71 55 2 56 1 57 3 58 4 59 5 60 6 62 7 63 63 65
REMARK SMILES IDX 64 66 65 67 40 69 41 70 42 71 44 72 43 73 45 74 46 75 47 76
REMARK SMILES IDX 55 77 56 78 48 79 49 80 50 81 54 82 51 83 53 84 52 85
REMARK H PARENT 38 5 27 10 18 17 10 22 22 31 34 39 34 40 35 41 35 42 61 48
REMARK H PARENT 5 61 65 68
REMARK Flexibility Score:  369.900
ROOT
ATOM      1  C   UNL     1       5.024  10.342   2.952  1.00  0.00     0.117 C 
ENDROOT
BRANCH   1   2
ATOM      2  N   UNL     1       5.750   9.323   3.711  1.00  0.00    -0.347 N 
ATOM      3  O   UNL     1       7.447  10.660   4.486  1.00  0.00    -0.273 OA
ATOM      4  C   UNL     1       6.857   9.585   4.495  1.00  0.00     0.243 C 
ATOM      5  H   UNL     1       5.409   8.373   3.715  1.00  0.00     0.164 HD
BRANCH   4   6
ATOM      6  C   UNL     1       7.385   8.346   5.262  1.00  0.00     0.171 C 
BRANCH   6   7
ATOM      7  N   UNL     1       6.406   7.909   6.270  1.00  0.00    -0.344 N 
ATOM      8  C   UNL     1       6.787   7.708   7.579  1.00  0.00     0.226 C 
ATOM      9  O   UNL     1       7.942   7.856   7.960  1.00  0.00    -0.275 OA
ATOM     10  H   UNL     1       5.456   7.712   5.979  1.00  0.00     0.164 HD
BRANCH   8  11
ATOM     11  C   UNL     1       5.652   7.313   8.508  1.00  0.00     0.109 C 
ATOM     12  C   UNL     1       4.413   8.159   8.213  1.00  0.00     0.021 C 
BRANCH  11  13
ATOM     13  C   UNL     1       5.429   5.789   8.439  1.00  0.00     0.204 C 
BRANCH  13  14
ATOM     14  N   UNL     1       6.629   5.038   8.817  1.00  0.00    -0.340 N 
ATOM     15  C   UNL     1       7.118   3.985   8.074  1.00  0.00     0.243 C 
ATOM     16  O   UNL     1       6.615   3.641   7.006  1.00  0.00    -0.273 OA
ATOM     17  H   UNL     1       7.003   5.172   9.760  1.00  0.00     0.164 HD
BRANCH  15  18
ATOM     18  C   UNL     1       8.266   3.215   8.772  1.00  0.00     0.171 C 
BRANCH  18  19
ATOM     19  N   UNL     1       7.640   2.162   9.569  1.00  0.00    -0.343 N 
ATOM     20  C   UNL     1       7.295   2.357  10.893  1.00  0.00     0.242 CG0
ATOM     21  O   UNL     1       7.620   3.376  11.499  1.00  0.00    -0.273 OA
ATOM     22  H   UNL     1       7.456   1.260   9.144  1.00  0.00     0.164 HD
ATOM     23  G   UNL     1       6.573   1.160  11.545  1.00  0.00     0.000 G0
ENDBRANCH  18  19
BRANCH  18  24
ATOM     24  C   UNL     1       9.237   2.635   7.737  1.00  0.00     0.038 C 
BRANCH  24  25
ATOM     25  C   UNL     1       9.203   1.097   7.613  1.00  0.00    -0.015 C 
ATOM     26  C   UNL     1      10.560   0.456   7.905  1.00  0.00     0.007 C 
ATOM     27  C   UNL     1       8.739   0.704   6.208  1.00  0.00     0.007 C 
ENDBRANCH  24  25
ENDBRANCH  18  24
ENDBRANCH  15  18
ENDBRANCH  13  14
BRANCH  13  28
ATOM     28  C   UNL     1       4.288   5.306   9.340  1.00  0.00     0.327 C 
ATOM     29  O   UNL     1       4.238   5.401  10.557  1.00  0.00    -0.250 OA
BRANCH  28  30
ATOM     30  O   UNL     1       3.336   4.626   8.669  1.00  0.00    -0.480 OA
ATOM     31  H   UNL     1       2.874   4.111   9.362  1.00  0.00     0.296 HD
ENDBRANCH  28  30
ENDBRANCH  13  28
ENDBRANCH  11  13
ENDBRANCH   8  11
ENDBRANCH   6   7
BRANCH   6  32
ATOM     32  C   UNL     1       7.678   7.222   4.261  1.00  0.00     0.037 C 
BRANCH  32  33
ATOM     33  C   UNL     1       8.685   7.652   3.186  1.00  0.00     0.026 C 
BRANCH  33  34
ATOM     34  C   UNL     1       8.238   7.261   1.776  1.00  0.00     0.146 C 
BRANCH  34  35
ATOM     35  N   UNL     1       8.060   5.817   1.723  1.00  0.00    -0.254 NA
ATOM     36  C   UNL     1       8.516   5.178   0.710  1.00  0.00     0.185 C 
ATOM     37  N   UNL     1       8.362   3.846   0.654  1.00  0.00    -0.370 N 
ATOM     38  N   UNL     1       9.162   5.655  -0.368  1.00  0.00    -0.370 N 
ATOM     39  H   UNL     1       7.892   3.410   1.437  1.00  0.00     0.159 HD
ATOM     40  H   UNL     1       8.836   3.259  -0.010  1.00  0.00     0.159 HD
ATOM     41  H   UNL     1       9.348   5.070  -1.165  1.00  0.00     0.159 HD
ATOM     42  H   UNL     1       9.334   6.644  -0.467  1.00  0.00     0.159 HD
ENDBRANCH  34  35
ENDBRANCH  33  34
ENDBRANCH  32  33
ENDBRANCH   6  32
ENDBRANCH   4   6
ENDBRANCH   1   2
BRANCH   1  43
ATOM     43  C   UNL     1       3.558  10.397   3.473  1.00  0.00     0.102 C 
ATOM     44  C   UNL     1       3.423  11.061   4.853  1.00  0.00     0.020 C 
BRANCH  43  45
ATOM     45  C   UNL     1       2.889   9.022   3.377  1.00  0.00     0.225 C 
ATOM     46  O   UNL     1       3.273   8.043   4.011  1.00  0.00    -0.275 OA
ATOM     47  N   UNL     1       1.873   8.921   2.454  1.00  0.00    -0.342 N 
ATOM     48  H   UNL     1       1.473   9.759   2.057  1.00  0.00     0.164 HD
BRANCH  47  49
ATOM     49  C   UNL     1       1.119   7.677   2.278  1.00  0.00     0.192 C 
BRANCH  49  50
ATOM     50  C   UNL     1       1.746   6.849   1.153  1.00  0.00     0.047 C 
BRANCH  50  51
ATOM     51  C   UNL     1       2.519   7.719   0.152  1.00  0.00     0.103 C 
BRANCH  51  52
ATOM     52  C   UNL     1       1.599   8.339  -0.898  1.00  0.00     0.226 C 
ATOM     53  O   UNL     1       1.573   9.563  -1.039  1.00  0.00    -0.275 OA
BRANCH  52  54
ATOM     54  N   UNL     1       0.878   7.442  -1.708  1.00  0.00    -0.311 N 
ATOM     55  C   UNL     1       1.404   6.104  -2.009  1.00  0.00     0.153 C 
BRANCH  54  56
ATOM     56  C   UNL     1      -0.370   7.789  -2.252  1.00  0.00     0.102 C 
ATOM     57  C   UNL     1      -1.519   7.857  -1.558  1.00  0.00     0.043 C 
BRANCH  56  58
ATOM     58  C   UNL     1      -0.503   8.167  -3.708  1.00  0.00     0.268 C 
ATOM     59  O   UNL     1      -1.352   7.691  -4.449  1.00  0.00    -0.268 OA
ATOM     60  N   UNL     1       0.382   9.145  -4.095  1.00  0.00    -0.339 N 
ATOM     61  H   UNL     1       1.062   9.480  -3.423  1.00  0.00     0.164 HD
BRANCH  60  62
ATOM     62  C   UNL     1       0.384   9.704  -5.446  1.00  0.00     0.168 CG0
ATOM     63  C   UNL     1       0.577  11.215  -5.413  1.00  0.00     0.041 C 
ATOM     64  G   UNL     1      -0.934   9.337  -6.159  1.00  0.00     0.000 G0
ENDBRANCH  60  62
ENDBRANCH  56  58
ENDBRANCH  54  56
ENDBRANCH  52  54
ENDBRANCH  51  52
ENDBRANCH  50  51
ENDBRANCH  49  50
BRANCH  49  65
ATOM     65  C   UNL     1      -0.357   7.950   1.947  1.00  0.00     0.326 C 
ATOM     66  O   UNL     1      -0.850   9.053   1.759  1.00  0.00    -0.250 OA
BRANCH  65  67
ATOM     67  O   UNL     1      -1.143   6.852   1.927  1.00  0.00    -0.480 OA
ATOM     68  H   UNL     1      -2.017   7.198   1.644  1.00  0.00     0.296 HD
ENDBRANCH  65  67
ENDBRANCH  49  65
ENDBRANCH  47  49
ENDBRANCH  43  45
ENDBRANCH   1  43
BRANCH   1  69
ATOM     69  C   UNL     1       5.270  10.036   1.487  1.00  0.00    -0.001 C 
ATOM     70  C   UNL     1       4.822  10.723   0.421  1.00  0.00     0.001 C 
BRANCH  70  71
ATOM     71  C   UNL     1       5.085  10.429  -0.989  1.00  0.00    -0.055 C 
ATOM     72  C   UNL     1       5.298   9.142  -1.333  1.00  0.00    -0.018 C 
ATOM     73  C   UNL     1       5.090  11.584  -1.957  1.00  0.00     0.044 C 
BRANCH  72  74
ATOM     74  C   UNL     1       5.589   8.547  -2.703  1.00  0.00     0.038 C 
ATOM     75  C   UNL     1       4.237   8.277  -3.375  1.00  0.00     0.015 C 
BRANCH  74  76
ATOM     76  C   UNL     1       6.491   7.290  -2.523  1.00  0.00     0.128 C 
BRANCH  76  77
ATOM     77  O   UNL     1       7.731   7.662  -1.899  1.00  0.00    -0.381 OA
ATOM     78  C   UNL     1       8.652   8.284  -2.785  1.00  0.00     0.195 C 
ENDBRANCH  76  77
BRANCH  76  79
ATOM     79  C   UNL     1       5.789   6.110  -1.805  1.00  0.00     0.068 C 
BRANCH  79  80
ATOM     80  C   UNL     1       5.643   4.810  -2.560  1.00  0.00    -0.045 A 
ATOM     81  C   UNL     1       4.599   4.620  -3.475  1.00  0.00     0.004 A 
ATOM     82  C   UNL     1       6.541   3.756  -2.333  1.00  0.00     0.004 A 
ATOM     83  C   UNL     1       4.462   3.410  -4.158  1.00  0.00     0.000 A 
ATOM     84  C   UNL     1       6.402   2.546  -3.016  1.00  0.00     0.000 A 
ATOM     85  C   UNL     1       5.365   2.374  -3.930  1.00  0.00     0.000 A 
ENDBRANCH  79  80
ENDBRANCH  76  79
ENDBRANCH  74  76
ENDBRANCH  72  74
ENDBRANCH  70  71
ENDBRANCH   1  69
TORSDOF 17
ENDMDL
MODEL 40
REMARK VINA RESULT:    -5.886      5.128     12.607
REMARK INTER + INTRA:         -23.736
REMARK INTER:                 -18.787
REMARK INTRA:                  -4.948
REMARK UNBOUND:                -6.151
REMARK SMILES C=C1C(=O)N[C@H](C)C(=O)N[C@@H](CC(C)C)C(=O)N[C@@H](C(=O)O)[C@H](C)C(=O)N[C@@H](CCCN=C(N)N)C(=O)N[C@@H](/C=C/C(C)=C/[C@H](C)[C@H](Cc2ccccc2)OC)[C@H](C)C(=O)N[C@@H](C(=O)O)CCC(=O)N1C
REMARK SMILES IDX 39 1 38 2 37 3 36 4 28 6 27 7 25 8 26 9 23 11 24 12 19 13
REMARK SMILES IDX 18 14 16 15 17 16 11 18 10 19 8 20 9 21 12 24 13 25 14 26
REMARK SMILES IDX 15 27 20 28 21 29 22 30 29 32 30 33 31 34 32 35 33 36 34 37
REMARK SMILES IDX 35 38 57 43 58 44 59 45 60 46 61 47 62 49 66 50 67 51 68 52
REMARK SMILES IDX 69 53 70 54 71 55 2 56 1 57 3 58 4 59 5 60 6 62 7 63 63 65
REMARK SMILES IDX 64 66 65 67 40 69 41 70 42 71 44 72 43 73 45 74 46 75 47 76
REMARK SMILES IDX 55 77 56 78 48 79 49 80 50 81 54 82 51 83 53 84 52 85
REMARK H PARENT 38 5 27 10 18 17 10 22 22 31 34 39 34 40 35 41 35 42 61 48
REMARK H PARENT 5 61 65 68
REMARK Flexibility Score:  369.900
ROOT
ATOM      1  C   UNL     1       6.937   4.191   8.141  1.00  0.00     0.117 C 
ENDROOT
BRANCH   1   2
ATOM      2  N   UNL     1       7.263   3.709   9.484  1.00  0.00    -0.347 N 
ATOM      3  O   UNL     1       6.526   1.550   9.228  1.00  0.00    -0.273 OA
ATOM      4  C   UNL     1       7.114   2.398   9.892  1.00  0.00     0.243 C 
ATOM      5  H   UNL     1       7.667   4.346  10.154  1.00  0.00     0.164 HD
BRANCH   4   6
ATOM      6  C   UNL     1       7.613   2.133  11.335  1.00  0.00     0.171 C 
BRANCH   6   7
ATOM      7  N   UNL     1       6.503   1.679  12.188  1.00  0.00    -0.344 N 
ATOM      8  C   UNL     1       5.737   2.587  12.887  1.00  0.00     0.226 C 
ATOM      9  O   UNL     1       5.949   3.794  12.854  1.00  0.00    -0.275 OA
ATOM     10  H   UNL     1       6.340   0.686  12.294  1.00  0.00     0.164 HD
BRANCH   8  11
ATOM     11  C   UNL     1       4.598   1.967  13.676  1.00  0.00     0.109 C 
ATOM     12  C   UNL     1       3.784   3.059  14.371  1.00  0.00     0.021 C 
BRANCH  11  13
ATOM     13  C   UNL     1       3.780   1.030  12.765  1.00  0.00     0.204 C 
BRANCH  13  14
ATOM     14  N   UNL     1       2.878   0.165  13.531  1.00  0.00    -0.340 N 
ATOM     15  C   UNL     1       3.149  -1.163  13.781  1.00  0.00     0.243 C 
ATOM     16  O   UNL     1       4.198  -1.701  13.431  1.00  0.00    -0.273 OA
ATOM     17  H   UNL     1       1.930   0.504  13.717  1.00  0.00     0.164 HD
BRANCH  15  18
ATOM     18  C   UNL     1       1.964  -1.926  14.423  1.00  0.00     0.171 C 
BRANCH  18  19
ATOM     19  N   UNL     1       2.083  -1.744  15.869  1.00  0.00    -0.343 N 
ATOM     20  C   UNL     1       2.535  -2.754  16.695  1.00  0.00     0.242 CG0
ATOM     21  O   UNL     1       2.731  -3.891  16.274  1.00  0.00    -0.273 OA
ATOM     22  H   UNL     1       1.822  -0.855  16.281  1.00  0.00     0.164 HD
ATOM     23  G   UNL     1       2.669  -2.351  18.179  1.00  0.00     0.000 G0
ENDBRANCH  18  19
BRANCH  18  24
ATOM     24  C   UNL     1       0.626  -1.389  13.898  1.00  0.00     0.038 C 
BRANCH  24  25
ATOM     25  C   UNL     1      -0.494  -2.445  13.790  1.00  0.00    -0.015 C 
ATOM     26  C   UNL     1      -1.592  -2.243  14.834  1.00  0.00     0.007 C 
ATOM     27  C   UNL     1       0.104  -3.847  13.937  1.00  0.00     0.007 C 
ENDBRANCH  24  25
ENDBRANCH  18  24
ENDBRANCH  15  18
ENDBRANCH  13  14
BRANCH  13  28
ATOM     28  C   UNL     1       2.927   1.781  11.738  1.00  0.00     0.327 C 
ATOM     29  O   UNL     1       3.338   2.526  10.862  1.00  0.00    -0.250 OA
BRANCH  28  30
ATOM     30  O   UNL     1       1.602   1.642  11.949  1.00  0.00    -0.480 OA
ATOM     31  H   UNL     1       1.217   2.483  11.626  1.00  0.00     0.296 HD
ENDBRANCH  28  30
ENDBRANCH  13  28
ENDBRANCH  11  13
ENDBRANCH   8  11
ENDBRANCH   6   7
BRANCH   6  32
ATOM     32  C   UNL     1       8.736   1.091  11.297  1.00  0.00     0.037 C 
BRANCH  32  33
ATOM     33  C   UNL     1       9.850   1.474  10.312  1.00  0.00     0.026 C 
BRANCH  33  34
ATOM     34  C   UNL     1      10.187   0.343   9.340  1.00  0.00     0.146 C 
BRANCH  34  35
ATOM     35  N   UNL     1      11.579  -0.039   9.529  1.00  0.00    -0.254 NA
ATOM     36  C   UNL     1      12.294  -0.285   8.495  1.00  0.00     0.185 C 
ATOM     37  N   UNL     1      13.580  -0.634   8.658  1.00  0.00    -0.370 N 
ATOM     38  N   UNL     1      11.944  -0.248   7.197  1.00  0.00    -0.370 N 
ATOM     39  H   UNL     1      13.923  -0.674   9.609  1.00  0.00     0.159 HD
ATOM     40  H   UNL     1      14.245  -0.672   7.904  1.00  0.00     0.159 HD
ATOM     41  H   UNL     1      12.560  -0.598   6.482  1.00  0.00     0.159 HD
ATOM     42  H   UNL     1      11.001  -0.016   6.927  1.00  0.00     0.159 HD
ENDBRANCH  34  35
ENDBRANCH  33  34
ENDBRANCH  32  33
ENDBRANCH   6  32
ENDBRANCH   4   6
ENDBRANCH   1   2
BRANCH   1  43
ATOM     43  C   UNL     1       8.220   4.117   7.264  1.00  0.00     0.102 C 
ATOM     44  C   UNL     1       9.448   4.772   7.919  1.00  0.00     0.020 C 
BRANCH  43  45
ATOM     45  C   UNL     1       7.941   4.604   5.839  1.00  0.00     0.225 C 
ATOM     46  O   UNL     1       7.737   3.843   4.898  1.00  0.00    -0.275 OA
ATOM     47  N   UNL     1       8.026   5.965   5.651  1.00  0.00    -0.342 N 
ATOM     48  H   UNL     1       8.042   6.580   6.452  1.00  0.00     0.164 HD
BRANCH  47  49
ATOM     49  C   UNL     1       7.749   6.577   4.348  1.00  0.00     0.192 C 
BRANCH  49  50
ATOM     50  C   UNL     1       8.810   7.637   4.042  1.00  0.00     0.047 C 
BRANCH  50  51
ATOM     51  C   UNL     1       9.464   7.426   2.670  1.00  0.00     0.103 C 
BRANCH  51  52
ATOM     52  C   UNL     1      10.507   8.498   2.361  1.00  0.00     0.226 C 
ATOM     53  O   UNL     1      11.405   8.728   3.174  1.00  0.00    -0.275 OA
BRANCH  52  54
ATOM     54  N   UNL     1      10.416   9.118   1.101  1.00  0.00    -0.311 N 
ATOM     55  C   UNL     1      10.320  10.579   0.981  1.00  0.00     0.153 C 
BRANCH  54  56
ATOM     56  C   UNL     1      10.418   8.366  -0.086  1.00  0.00     0.102 C 
ATOM     57  C   UNL     1      11.328   7.430  -0.401  1.00  0.00     0.043 C 
BRANCH  56  58
ATOM     58  C   UNL     1       9.324   8.537  -1.114  1.00  0.00     0.268 C 
ATOM     59  O   UNL     1       9.493   9.105  -2.184  1.00  0.00    -0.268 OA
ATOM     60  N   UNL     1       8.144   7.933  -0.751  1.00  0.00    -0.339 N 
ATOM     61  H   UNL     1       8.082   7.491   0.158  1.00  0.00     0.164 HD
BRANCH  60  62
ATOM     62  C   UNL     1       6.973   7.922  -1.627  1.00  0.00     0.168 CG0
ATOM     63  C   UNL     1       6.855   6.595  -2.366  1.00  0.00     0.041 C 
ATOM     64  G   UNL     1       7.063   9.096  -2.624  1.00  0.00     0.000 G0
ENDBRANCH  60  62
ENDBRANCH  56  58
ENDBRANCH  54  56
ENDBRANCH  52  54
ENDBRANCH  51  52
ENDBRANCH  50  51
ENDBRANCH  49  50
BRANCH  49  65
ATOM     65  C   UNL     1       6.356   7.225   4.311  1.00  0.00     0.326 C 
ATOM     66  O   UNL     1       5.326   6.721   4.736  1.00  0.00    -0.250 OA
BRANCH  65  67
ATOM     67  O   UNL     1       6.311   8.429   3.699  1.00  0.00    -0.480 OA
ATOM     68  H   UNL     1       5.681   8.288   2.959  1.00  0.00     0.296 HD
ENDBRANCH  65  67
ENDBRANCH  49  65
ENDBRANCH  47  49
ENDBRANCH  43  45
ENDBRANCH   1  43
BRANCH   1  69
ATOM     69  C   UNL     1       6.253   5.534   8.327  1.00  0.00    -0.001 C 
ATOM     70  C   UNL     1       6.385   6.381   9.362  1.00  0.00     0.001 C 
BRANCH  70  71
ATOM     71  C   UNL     1       5.735   7.684   9.520  1.00  0.00    -0.055 C 
ATOM     72  C   UNL     1       5.506   8.411   8.406  1.00  0.00    -0.018 C 
ATOM     73  C   UNL     1       5.362   8.118  10.914  1.00  0.00     0.044 C 
BRANCH  72  74
ATOM     74  C   UNL     1       4.855   9.779   8.265  1.00  0.00     0.038 C 
ATOM     75  C   UNL     1       3.446   9.673   8.860  1.00  0.00     0.015 C 
BRANCH  74  76
ATOM     76  C   UNL     1       4.901  10.204   6.768  1.00  0.00     0.128 C 
BRANCH  76  77
ATOM     77  O   UNL     1       6.246  10.101   6.270  1.00  0.00    -0.381 OA
ATOM     78  C   UNL     1       6.776  11.332   5.797  1.00  0.00     0.195 C 
ENDBRANCH  76  77
BRANCH  76  79
ATOM     79  C   UNL     1       3.872   9.469   5.873  1.00  0.00     0.068 C 
BRANCH  79  80
ATOM     80  C   UNL     1       3.070  10.293   4.895  1.00  0.00    -0.045 A 
ATOM     81  C   UNL     1       2.122  11.223   5.342  1.00  0.00     0.004 A 
ATOM     82  C   UNL     1       3.244  10.118   3.514  1.00  0.00     0.004 A 
ATOM     83  C   UNL     1       1.374  11.971   4.430  1.00  0.00     0.000 A 
ATOM     84  C   UNL     1       2.495  10.866   2.603  1.00  0.00     0.000 A 
ATOM     85  C   UNL     1       1.561  11.793   3.061  1.00  0.00     0.000 A 
ENDBRANCH  79  80
ENDBRANCH  76  79
ENDBRANCH  74  76
ENDBRANCH  72  74
ENDBRANCH  70  71
ENDBRANCH   1  69
TORSDOF 17
ENDMDL
MODEL 41
REMARK VINA RESULT:    -5.814     14.936     19.924
REMARK INTER + INTRA:         -23.522
REMARK INTER:                 -15.894
REMARK INTRA:                  -7.628
REMARK UNBOUND:                -6.151
REMARK SMILES C=C1C(=O)N[C@H](C)C(=O)N[C@@H](CC(C)C)C(=O)N[C@@H](C(=O)O)[C@H](C)C(=O)N[C@@H](CCCN=C(N)N)C(=O)N[C@@H](/C=C/C(C)=C/[C@H](C)[C@H](Cc2ccccc2)OC)[C@H](C)C(=O)N[C@@H](C(=O)O)CCC(=O)N1C
REMARK SMILES IDX 39 1 38 2 37 3 36 4 28 6 27 7 25 8 26 9 23 11 24 12 19 13
REMARK SMILES IDX 18 14 16 15 17 16 11 18 10 19 8 20 9 21 12 24 13 25 14 26
REMARK SMILES IDX 15 27 20 28 21 29 22 30 29 32 30 33 31 34 32 35 33 36 34 37
REMARK SMILES IDX 35 38 57 43 58 44 59 45 60 46 61 47 62 49 66 50 67 51 68 52
REMARK SMILES IDX 69 53 70 54 71 55 2 56 1 57 3 58 4 59 5 60 6 62 7 63 63 65
REMARK SMILES IDX 64 66 65 67 40 69 41 70 42 71 44 72 43 73 45 74 46 75 47 76
REMARK SMILES IDX 55 77 56 78 48 79 49 80 50 81 54 82 51 83 53 84 52 85
REMARK H PARENT 38 5 27 10 18 17 10 22 22 31 34 39 34 40 35 41 35 42 61 48
REMARK H PARENT 5 61 65 68
REMARK Flexibility Score:  369.900
ROOT
ATOM      1  C   UNL     1      -9.739   1.283   2.318  1.00  0.00     0.117 C 
ENDROOT
BRANCH   1   2
ATOM      2  N   UNL     1      -9.496   2.726   2.308  1.00  0.00    -0.347 N 
ATOM      3  O   UNL     1      -7.511   2.701   1.154  1.00  0.00    -0.273 OA
ATOM      4  C   UNL     1      -8.444   3.329   1.645  1.00  0.00     0.243 C 
ATOM      5  H   UNL     1     -10.152   3.341   2.766  1.00  0.00     0.164 HD
BRANCH   4   6
ATOM      6  C   UNL     1      -8.465   4.876   1.720  1.00  0.00     0.171 C 
BRANCH   6   7
ATOM      7  N   UNL     1      -9.009   5.321   3.013  1.00  0.00    -0.344 N 
ATOM      8  C   UNL     1      -9.873   6.393   3.081  1.00  0.00     0.226 C 
ATOM      9  O   UNL     1     -10.209   7.034   2.092  1.00  0.00    -0.275 OA
ATOM     10  H   UNL     1      -8.702   4.859   3.860  1.00  0.00     0.164 HD
BRANCH   8  11
ATOM     11  C   UNL     1     -10.389   6.693   4.477  1.00  0.00     0.109 C 
ATOM     12  C   UNL     1     -11.768   7.348   4.399  1.00  0.00     0.021 C 
BRANCH  11  13
ATOM     13  C   UNL     1     -10.325   5.418   5.342  1.00  0.00     0.204 C 
BRANCH  13  14
ATOM     14  N   UNL     1      -9.671   5.659   6.632  1.00  0.00    -0.340 N 
ATOM     15  C   UNL     1      -8.311   5.540   6.815  1.00  0.00     0.243 C 
ATOM     16  O   UNL     1      -7.540   5.282   5.892  1.00  0.00    -0.273 OA
ATOM     17  H   UNL     1     -10.262   5.726   7.465  1.00  0.00     0.164 HD
BRANCH  15  18
ATOM     18  C   UNL     1      -7.875   5.636   8.298  1.00  0.00     0.171 C 
BRANCH  18  19
ATOM     19  N   UNL     1      -8.187   6.994   8.739  1.00  0.00    -0.343 N 
ATOM     20  C   UNL     1      -7.360   8.062   8.447  1.00  0.00     0.242 CG0
ATOM     21  O   UNL     1      -6.262   7.901   7.921  1.00  0.00    -0.273 OA
ATOM     22  H   UNL     1      -9.028   7.161   9.279  1.00  0.00     0.164 HD
ATOM     23  G   UNL     1      -7.893   9.429   8.927  1.00  0.00     0.000 G0
ENDBRANCH  18  19
BRANCH  18  24
ATOM     24  C   UNL     1      -8.607   4.588   9.146  1.00  0.00     0.038 C 
BRANCH  24  25
ATOM     25  C   UNL     1      -9.425   5.166  10.320  1.00  0.00    -0.015 C 
ATOM     26  C   UNL     1      -9.636   4.151  11.443  1.00  0.00     0.007 C 
ATOM     27  C   UNL     1     -10.782   5.658   9.808  1.00  0.00     0.007 C 
ENDBRANCH  24  25
ENDBRANCH  18  24
ENDBRANCH  15  18
ENDBRANCH  13  14
BRANCH  13  28
ATOM     28  C   UNL     1     -11.704   4.819   5.637  1.00  0.00     0.327 C 
ATOM     29  O   UNL     1     -12.373   5.005   6.642  1.00  0.00    -0.250 OA
BRANCH  28  30
ATOM     30  O   UNL     1     -12.104   3.930   4.705  1.00  0.00    -0.480 OA
ATOM     31  H   UNL     1     -12.644   3.283   5.205  1.00  0.00     0.296 HD
ENDBRANCH  28  30
ENDBRANCH  13  28
ENDBRANCH  11  13
ENDBRANCH   8  11
ENDBRANCH   6   7
BRANCH   6  32
ATOM     32  C   UNL     1      -7.043   5.410   1.513  1.00  0.00     0.037 C 
BRANCH  32  33
ATOM     33  C   UNL     1      -7.013   6.634   0.587  1.00  0.00     0.026 C 
BRANCH  33  34
ATOM     34  C   UNL     1      -6.377   7.855   1.253  1.00  0.00     0.146 C 
BRANCH  34  35
ATOM     35  N   UNL     1      -6.790   7.897   2.650  1.00  0.00    -0.254 NA
ATOM     36  C   UNL     1      -5.895   7.776   3.558  1.00  0.00     0.185 C 
ATOM     37  N   UNL     1      -6.263   7.817   4.848  1.00  0.00    -0.370 N 
ATOM     38  N   UNL     1      -4.568   7.605   3.420  1.00  0.00    -0.370 N 
ATOM     39  H   UNL     1      -7.248   7.955   5.035  1.00  0.00     0.159 HD
ATOM     40  H   UNL     1      -5.612   7.905   5.610  1.00  0.00     0.159 HD
ATOM     41  H   UNL     1      -3.986   7.383   4.211  1.00  0.00     0.159 HD
ATOM     42  H   UNL     1      -4.152   7.539   2.504  1.00  0.00     0.159 HD
ENDBRANCH  34  35
ENDBRANCH  33  34
ENDBRANCH  32  33
ENDBRANCH   6  32
ENDBRANCH   4   6
ENDBRANCH   1   2
BRANCH   1  43
ATOM     43  C   UNL     1     -10.491   0.898   1.011  1.00  0.00     0.102 C 
ATOM     44  C   UNL     1      -9.646   0.050   0.046  1.00  0.00     0.020 C 
BRANCH  43  45
ATOM     45  C   UNL     1     -11.128   2.130   0.360  1.00  0.00     0.225 C 
ATOM     46  O   UNL     1     -12.050   2.758   0.873  1.00  0.00    -0.275 OA
ATOM     47  N   UNL     1     -10.664   2.443  -0.897  1.00  0.00    -0.342 N 
ATOM     48  H   UNL     1      -9.813   2.017  -1.236  1.00  0.00     0.164 HD
BRANCH  47  49
ATOM     49  C   UNL     1     -11.157   3.616  -1.625  1.00  0.00     0.192 C 
BRANCH  49  50
ATOM     50  C   UNL     1     -12.178   3.176  -2.678  1.00  0.00     0.047 C 
BRANCH  50  51
ATOM     51  C   UNL     1     -11.716   1.934  -3.453  1.00  0.00     0.103 C 
BRANCH  51  52
ATOM     52  C   UNL     1     -11.738   2.161  -4.964  1.00  0.00     0.226 C 
ATOM     53  O   UNL     1     -10.864   2.854  -5.489  1.00  0.00    -0.275 OA
BRANCH  52  54
ATOM     54  N   UNL     1     -12.739   1.484  -5.685  1.00  0.00    -0.311 N 
ATOM     55  C   UNL     1     -13.007   0.059  -5.450  1.00  0.00     0.153 C 
BRANCH  54  56
ATOM     56  C   UNL     1     -13.520   2.143  -6.648  1.00  0.00     0.102 C 
ATOM     57  C   UNL     1     -14.511   3.007  -6.374  1.00  0.00     0.043 C 
BRANCH  56  58
ATOM     58  C   UNL     1     -13.258   1.949  -8.123  1.00  0.00     0.268 C 
ATOM     59  O   UNL     1     -14.140   1.980  -8.970  1.00  0.00    -0.268 OA
ATOM     60  N   UNL     1     -11.924   1.801  -8.420  1.00  0.00    -0.339 N 
ATOM     61  H   UNL     1     -11.256   1.775  -7.659  1.00  0.00     0.164 HD
BRANCH  60  62
ATOM     62  C   UNL     1     -11.442   1.662  -9.793  1.00  0.00     0.168 CG0
ATOM     63  C   UNL     1     -11.010   3.009 -10.360  1.00  0.00     0.041 C 
ATOM     64  G   UNL     1     -12.545   1.031 -10.667  1.00  0.00     0.000 G0
ENDBRANCH  60  62
ENDBRANCH  56  58
ENDBRANCH  54  56
ENDBRANCH  52  54
ENDBRANCH  51  52
ENDBRANCH  50  51
ENDBRANCH  49  50
BRANCH  49  65
ATOM     65  C   UNL     1     -10.013   4.377  -2.313  1.00  0.00     0.326 C 
ATOM     66  O   UNL     1      -8.859   4.436  -1.915  1.00  0.00    -0.250 OA
BRANCH  65  67
ATOM     67  O   UNL     1     -10.378   5.068  -3.415  1.00  0.00    -0.480 OA
ATOM     68  H   UNL     1     -10.543   5.974  -3.077  1.00  0.00     0.296 HD
ENDBRANCH  65  67
ENDBRANCH  49  65
ENDBRANCH  47  49
ENDBRANCH  43  45
ENDBRANCH   1  43
BRANCH   1  69
ATOM     69  C   UNL     1     -10.385   0.971   3.655  1.00  0.00    -0.001 C 
ATOM     70  C   UNL     1     -11.167  -0.080   3.959  1.00  0.00     0.001 C 
BRANCH  70  71
ATOM     71  C   UNL     1     -11.768  -0.382   5.260  1.00  0.00    -0.055 C 
ATOM     72  C   UNL     1     -12.197   0.655   6.009  1.00  0.00    -0.018 C 
ATOM     73  C   UNL     1     -11.872  -1.829   5.666  1.00  0.00     0.044 C 
BRANCH  72  74
ATOM     74  C   UNL     1     -12.855   0.645   7.381  1.00  0.00     0.038 C 
ATOM     75  C   UNL     1     -14.345   0.350   7.166  1.00  0.00     0.015 C 
BRANCH  74  76
ATOM     76  C   UNL     1     -12.553   1.997   8.092  1.00  0.00     0.128 C 
BRANCH  76  77
ATOM     77  O   UNL     1     -13.607   2.311   9.018  1.00  0.00    -0.381 OA
ATOM     78  C   UNL     1     -13.184   3.112  10.114  1.00  0.00     0.195 C 
ENDBRANCH  76  77
BRANCH  76  79
ATOM     79  C   UNL     1     -11.146   2.068   8.737  1.00  0.00     0.068 C 
BRANCH  79  80
ATOM     80  C   UNL     1     -10.612   0.825   9.407  1.00  0.00    -0.045 A 
ATOM     81  C   UNL     1     -10.543   0.730  10.803  1.00  0.00     0.004 A 
ATOM     82  C   UNL     1     -10.146  -0.250   8.634  1.00  0.00     0.004 A 
ATOM     83  C   UNL     1     -10.034  -0.417  11.414  1.00  0.00     0.000 A 
ATOM     84  C   UNL     1      -9.637  -1.397   9.247  1.00  0.00     0.000 A 
ATOM     85  C   UNL     1      -9.582  -1.481  10.636  1.00  0.00     0.000 A 
ENDBRANCH  79  80
ENDBRANCH  76  79
ENDBRANCH  74  76
ENDBRANCH  72  74
ENDBRANCH  70  71
ENDBRANCH   1  69
TORSDOF 17
ENDMDL
MODEL 42
REMARK VINA RESULT:    -5.792     16.184     21.157
REMARK INTER + INTRA:         -23.456
REMARK INTER:                 -16.986
REMARK INTRA:                  -6.469
REMARK UNBOUND:                -6.151
REMARK SMILES C=C1C(=O)N[C@H](C)C(=O)N[C@@H](CC(C)C)C(=O)N[C@@H](C(=O)O)[C@H](C)C(=O)N[C@@H](CCCN=C(N)N)C(=O)N[C@@H](/C=C/C(C)=C/[C@H](C)[C@H](Cc2ccccc2)OC)[C@H](C)C(=O)N[C@@H](C(=O)O)CCC(=O)N1C
REMARK SMILES IDX 39 1 38 2 37 3 36 4 28 6 27 7 25 8 26 9 23 11 24 12 19 13
REMARK SMILES IDX 18 14 16 15 17 16 11 18 10 19 8 20 9 21 12 24 13 25 14 26
REMARK SMILES IDX 15 27 20 28 21 29 22 30 29 32 30 33 31 34 32 35 33 36 34 37
REMARK SMILES IDX 35 38 57 43 58 44 59 45 60 46 61 47 62 49 66 50 67 51 68 52
REMARK SMILES IDX 69 53 70 54 71 55 2 56 1 57 3 58 4 59 5 60 6 62 7 63 63 65
REMARK SMILES IDX 64 66 65 67 40 69 41 70 42 71 44 72 43 73 45 74 46 75 47 76
REMARK SMILES IDX 55 77 56 78 48 79 49 80 50 81 54 82 51 83 53 84 52 85
REMARK H PARENT 38 5 27 10 18 17 10 22 22 31 34 39 34 40 35 41 35 42 61 48
REMARK H PARENT 5 61 65 68
REMARK Flexibility Score:  369.900
ROOT
ATOM      1  C   UNL     1     -11.275  -0.097   1.419  1.00  0.00     0.117 C 
ENDROOT
BRANCH   1   2
ATOM      2  N   UNL     1     -11.580   0.899   0.392  1.00  0.00    -0.347 N 
ATOM      3  O   UNL     1      -9.563   0.849  -0.703  1.00  0.00    -0.273 OA
ATOM      4  C   UNL     1     -10.728   1.227  -0.646  1.00  0.00     0.243 C 
ATOM      5  H   UNL     1     -12.482   1.351   0.394  1.00  0.00     0.164 HD
BRANCH   4   6
ATOM      6  C   UNL     1     -11.328   2.248  -1.645  1.00  0.00     0.171 C 
BRANCH   6   7
ATOM      7  N   UNL     1     -12.185   1.565  -2.627  1.00  0.00    -0.344 N 
ATOM      8  C   UNL     1     -11.698   1.226  -3.871  1.00  0.00     0.226 C 
ATOM      9  O   UNL     1     -10.556   1.491  -4.227  1.00  0.00    -0.275 OA
ATOM     10  H   UNL     1     -13.155   1.390  -2.394  1.00  0.00     0.164 HD
BRANCH   8  11
ATOM     11  C   UNL     1     -12.687   0.478  -4.748  1.00  0.00     0.109 C 
ATOM     12  C   UNL     1     -13.762  -0.181  -3.884  1.00  0.00     0.021 C 
BRANCH  11  13
ATOM     13  C   UNL     1     -13.224   1.417  -5.846  1.00  0.00     0.204 C 
BRANCH  13  14
ATOM     14  N   UNL     1     -12.600   2.743  -5.792  1.00  0.00    -0.340 N 
ATOM     15  C   UNL     1     -13.322   3.904  -5.616  1.00  0.00     0.243 C 
ATOM     16  O   UNL     1     -14.537   3.903  -5.430  1.00  0.00    -0.273 OA
ATOM     17  H   UNL     1     -11.624   2.827  -6.089  1.00  0.00     0.164 HD
BRANCH  15  18
ATOM     18  C   UNL     1     -12.480   5.190  -5.801  1.00  0.00     0.171 C 
BRANCH  18  19
ATOM     19  N   UNL     1     -13.427   6.299  -5.904  1.00  0.00    -0.343 N 
ATOM     20  C   UNL     1     -13.343   7.237  -6.915  1.00  0.00     0.242 CG0
ATOM     21  O   UNL     1     -12.394   7.260  -7.694  1.00  0.00    -0.273 OA
ATOM     22  H   UNL     1     -14.163   6.390  -5.213  1.00  0.00     0.164 HD
ATOM     23  G   UNL     1     -14.475   8.285  -6.906  1.00  0.00     0.000 G0
ENDBRANCH  18  19
BRANCH  18  24
ATOM     24  C   UNL     1     -11.517   5.381  -4.623  1.00  0.00     0.038 C 
BRANCH  24  25
ATOM     25  C   UNL     1     -10.050   5.008  -4.922  1.00  0.00    -0.015 C 
ATOM     26  C   UNL     1      -9.184   4.977  -3.662  1.00  0.00     0.007 C 
ATOM     27  C   UNL     1      -9.461   6.002  -5.927  1.00  0.00     0.007 C 
ENDBRANCH  24  25
ENDBRANCH  18  24
ENDBRANCH  15  18
ENDBRANCH  13  14
BRANCH  13  28
ATOM     28  C   UNL     1     -13.012   0.873  -7.262  1.00  0.00     0.327 C 
ATOM     29  O   UNL     1     -12.949   1.533  -8.288  1.00  0.00    -0.250 OA
BRANCH  28  30
ATOM     30  O   UNL     1     -13.011  -0.474  -7.316  1.00  0.00    -0.480 OA
ATOM     31  H   UNL     1     -13.940  -0.723  -7.128  1.00  0.00     0.296 HD
ENDBRANCH  28  30
ENDBRANCH  13  28
ENDBRANCH  11  13
ENDBRANCH   8  11
ENDBRANCH   6   7
BRANCH   6  32
ATOM     32  C   UNL     1     -12.120   3.306  -0.870  1.00  0.00     0.037 C 
BRANCH  32  33
ATOM     33  C   UNL     1     -11.356   4.633  -0.755  1.00  0.00     0.026 C 
BRANCH  33  34
ATOM     34  C   UNL     1     -10.578   4.749   0.556  1.00  0.00     0.146 C 
BRANCH  34  35
ATOM     35  N   UNL     1      -9.251   5.277   0.271  1.00  0.00    -0.254 NA
ATOM     36  C   UNL     1      -8.239   4.504   0.407  1.00  0.00     0.185 C 
ATOM     37  N   UNL     1      -7.012   4.979   0.142  1.00  0.00    -0.370 N 
ATOM     38  N   UNL     1      -8.206   3.217   0.796  1.00  0.00    -0.370 N 
ATOM     39  H   UNL     1      -6.955   5.940  -0.168  1.00  0.00     0.159 HD
ATOM     40  H   UNL     1      -6.197   4.396   0.056  1.00  0.00     0.159 HD
ATOM     41  H   UNL     1      -7.334   2.756   0.999  1.00  0.00     0.159 HD
ATOM     42  H   UNL     1      -9.056   2.734   1.044  1.00  0.00     0.159 HD
ENDBRANCH  34  35
ENDBRANCH  33  34
ENDBRANCH  32  33
ENDBRANCH   6  32
ENDBRANCH   4   6
ENDBRANCH   1   2
BRANCH   1  43
ATOM     43  C   UNL     1     -12.391  -1.181   1.404  1.00  0.00     0.102 C 
ATOM     44  C   UNL     1     -13.740  -0.664   0.878  1.00  0.00     0.020 C 
BRANCH  43  45
ATOM     45  C   UNL     1     -12.484  -1.893   2.758  1.00  0.00     0.225 C 
ATOM     46  O   UNL     1     -11.833  -2.897   3.034  1.00  0.00    -0.275 OA
ATOM     47  N   UNL     1     -13.423  -1.390   3.628  1.00  0.00    -0.342 N 
ATOM     48  H   UNL     1     -13.836  -0.485   3.451  1.00  0.00     0.164 HD
BRANCH  47  49
ATOM     49  C   UNL     1     -13.598  -1.948   4.972  1.00  0.00     0.192 C 
BRANCH  49  50
ATOM     50  C   UNL     1     -12.231  -2.131   5.636  1.00  0.00     0.047 C 
BRANCH  50  51
ATOM     51  C   UNL     1     -11.512  -0.795   5.865  1.00  0.00     0.103 C 
BRANCH  51  52
ATOM     52  C   UNL     1     -11.818  -0.207   7.241  1.00  0.00     0.226 C 
ATOM     53  O   UNL     1     -12.982   0.061   7.545  1.00  0.00    -0.275 OA
BRANCH  52  54
ATOM     54  N   UNL     1     -10.730  -0.077   8.124  1.00  0.00    -0.311 N 
ATOM     55  C   UNL     1      -9.930  -1.245   8.516  1.00  0.00     0.153 C 
BRANCH  54  56
ATOM     56  C   UNL     1     -10.364   1.171   8.656  1.00  0.00     0.102 C 
ATOM     57  C   UNL     1      -9.640   2.099   8.010  1.00  0.00     0.043 C 
BRANCH  56  58
ATOM     58  C   UNL     1     -10.818   1.588  10.035  1.00  0.00     0.268 C 
ATOM     59  O   UNL     1     -11.879   1.228  10.528  1.00  0.00    -0.268 OA
ATOM     60  N   UNL     1      -9.892   2.355  10.700  1.00  0.00    -0.339 N 
ATOM     61  H   UNL     1      -9.041   2.619  10.217  1.00  0.00     0.164 HD
BRANCH  60  62
ATOM     62  C   UNL     1     -10.102   2.815  12.072  1.00  0.00     0.168 CG0
ATOM     63  C   UNL     1     -10.393   4.311  12.109  1.00  0.00     0.041 C 
ATOM     64  G   UNL     1      -8.862   2.479  12.926  1.00  0.00     0.000 G0
ENDBRANCH  60  62
ENDBRANCH  56  58
ENDBRANCH  54  56
ENDBRANCH  52  54
ENDBRANCH  51  52
ENDBRANCH  50  51
ENDBRANCH  49  50
BRANCH  49  65
ATOM     65  C   UNL     1     -14.330  -3.299   4.934  1.00  0.00     0.326 C 
ATOM     66  O   UNL     1     -14.409  -4.091   5.862  1.00  0.00    -0.250 OA
BRANCH  65  67
ATOM     67  O   UNL     1     -14.868  -3.615   3.736  1.00  0.00    -0.480 OA
ATOM     68  H   UNL     1     -15.490  -2.877   3.559  1.00  0.00     0.296 HD
ENDBRANCH  65  67
ENDBRANCH  49  65
ENDBRANCH  47  49
ENDBRANCH  43  45
ENDBRANCH   1  43
BRANCH   1  69
ATOM     69  C   UNL     1     -11.021   0.677   2.699  1.00  0.00    -0.001 C 
ATOM     70  C   UNL     1     -11.024   2.012   2.860  1.00  0.00     0.001 C 
BRANCH  70  71
ATOM     71  C   UNL     1     -10.799   2.749   4.106  1.00  0.00    -0.055 C 
ATOM     72  C   UNL     1      -9.654   3.454   4.220  1.00  0.00    -0.018 C 
ATOM     73  C   UNL     1     -11.864   2.674   5.168  1.00  0.00     0.044 C 
BRANCH  72  74
ATOM     74  C   UNL     1      -9.158   4.305   5.380  1.00  0.00     0.038 C 
ATOM     75  C   UNL     1      -9.728   5.715   5.183  1.00  0.00     0.015 C 
BRANCH  74  76
ATOM     76  C   UNL     1      -7.604   4.230   5.429  1.00  0.00     0.128 C 
BRANCH  76  77
ATOM     77  O   UNL     1      -7.037   5.175   4.506  1.00  0.00    -0.381 OA
ATOM     78  C   UNL     1      -6.095   4.603   3.609  1.00  0.00     0.195 C 
ENDBRANCH  76  77
BRANCH  76  79
ATOM     79  C   UNL     1      -7.012   4.356   6.856  1.00  0.00     0.068 C 
BRANCH  79  80
ATOM     80  C   UNL     1      -7.475   5.508   7.714  1.00  0.00    -0.045 A 
ATOM     81  C   UNL     1      -7.071   6.821   7.439  1.00  0.00     0.004 A 
ATOM     82  C   UNL     1      -8.301   5.276   8.824  1.00  0.00     0.004 A 
ATOM     83  C   UNL     1      -7.493   7.880   8.246  1.00  0.00     0.000 A 
ATOM     84  C   UNL     1      -8.721   6.335   9.631  1.00  0.00     0.000 A 
ATOM     85  C   UNL     1      -8.319   7.637   9.341  1.00  0.00     0.000 A 
ENDBRANCH  79  80
ENDBRANCH  76  79
ENDBRANCH  74  76
ENDBRANCH  72  74
ENDBRANCH  70  71
ENDBRANCH   1  69
TORSDOF 17
ENDMDL
MODEL 43
REMARK VINA RESULT:    -5.792      5.165     12.732
REMARK INTER + INTRA:         -23.456
REMARK INTER:                 -17.948
REMARK INTRA:                  -5.508
REMARK UNBOUND:                -6.151
REMARK SMILES C=C1C(=O)N[C@H](C)C(=O)N[C@@H](CC(C)C)C(=O)N[C@@H](C(=O)O)[C@H](C)C(=O)N[C@@H](CCCN=C(N)N)C(=O)N[C@@H](/C=C/C(C)=C/[C@H](C)[C@H](Cc2ccccc2)OC)[C@H](C)C(=O)N[C@@H](C(=O)O)CCC(=O)N1C
REMARK SMILES IDX 39 1 38 2 37 3 36 4 28 6 27 7 25 8 26 9 23 11 24 12 19 13
REMARK SMILES IDX 18 14 16 15 17 16 11 18 10 19 8 20 9 21 12 24 13 25 14 26
REMARK SMILES IDX 15 27 20 28 21 29 22 30 29 32 30 33 31 34 32 35 33 36 34 37
REMARK SMILES IDX 35 38 57 43 58 44 59 45 60 46 61 47 62 49 66 50 67 51 68 52
REMARK SMILES IDX 69 53 70 54 71 55 2 56 1 57 3 58 4 59 5 60 6 62 7 63 63 65
REMARK SMILES IDX 64 66 65 67 40 69 41 70 42 71 44 72 43 73 45 74 46 75 47 76
REMARK SMILES IDX 55 77 56 78 48 79 49 80 50 81 54 82 51 83 53 84 52 85
REMARK H PARENT 38 5 27 10 18 17 10 22 22 31 34 39 34 40 35 41 35 42 61 48
REMARK H PARENT 5 61 65 68
REMARK Flexibility Score:  369.900
ROOT
ATOM      1  C   UNL     1       6.883   4.342   8.169  1.00  0.00     0.117 C 
ENDROOT
BRANCH   1   2
ATOM      2  N   UNL     1       7.174   3.886   9.529  1.00  0.00    -0.347 N 
ATOM      3  O   UNL     1       6.324   1.763   9.336  1.00  0.00    -0.273 OA
ATOM      4  C   UNL     1       6.953   2.598   9.977  1.00  0.00     0.243 C 
ATOM      5  H   UNL     1       7.608   4.522  10.181  1.00  0.00     0.164 HD
BRANCH   4   6
ATOM      6  C   UNL     1       7.429   2.354  11.432  1.00  0.00     0.171 C 
BRANCH   6   7
ATOM      7  N   UNL     1       6.320   1.851  12.258  1.00  0.00    -0.344 N 
ATOM      8  C   UNL     1       5.474   2.724  12.906  1.00  0.00     0.226 C 
ATOM      9  O   UNL     1       5.610   3.941  12.849  1.00  0.00    -0.275 OA
ATOM     10  H   UNL     1       6.216   0.852  12.384  1.00  0.00     0.164 HD
BRANCH   8  11
ATOM     11  C   UNL     1       4.348   2.052  13.673  1.00  0.00     0.109 C 
ATOM     12  C   UNL     1       3.402   3.105  14.249  1.00  0.00     0.021 C 
BRANCH  11  13
ATOM     13  C   UNL     1       3.672   0.991  12.782  1.00  0.00     0.204 C 
BRANCH  13  14
ATOM     14  N   UNL     1       2.781   0.114  13.549  1.00  0.00    -0.340 N 
ATOM     15  C   UNL     1       3.043  -1.223  13.756  1.00  0.00     0.243 C 
ATOM     16  O   UNL     1       4.077  -1.762  13.363  1.00  0.00    -0.273 OA
ATOM     17  H   UNL     1       1.842   0.458  13.770  1.00  0.00     0.164 HD
BRANCH  15  18
ATOM     18  C   UNL     1       1.868  -1.990  14.409  1.00  0.00     0.171 C 
BRANCH  18  19
ATOM     19  N   UNL     1       1.963  -1.754  15.849  1.00  0.00    -0.343 N 
ATOM     20  C   UNL     1       2.583  -2.653  16.695  1.00  0.00     0.242 CG0
ATOM     21  O   UNL     1       2.966  -3.751  16.299  1.00  0.00    -0.273 OA
ATOM     22  H   UNL     1       1.558  -0.912  16.243  1.00  0.00     0.164 HD
ATOM     23  G   UNL     1       2.655  -2.196  18.167  1.00  0.00     0.000 G0
ENDBRANCH  18  19
BRANCH  18  24
ATOM     24  C   UNL     1       0.526  -1.505  13.848  1.00  0.00     0.038 C 
BRANCH  24  25
ATOM     25  C   UNL     1      -0.600  -2.560  13.866  1.00  0.00    -0.015 C 
ATOM     26  C   UNL     1      -1.573  -2.358  15.029  1.00  0.00     0.007 C 
ATOM     27  C   UNL     1       0.010  -3.962  13.943  1.00  0.00     0.007 C 
ENDBRANCH  24  25
ENDBRANCH  18  24
ENDBRANCH  15  18
ENDBRANCH  13  14
BRANCH  13  28
ATOM     28  C   UNL     1       2.844   1.596  11.644  1.00  0.00     0.327 C 
ATOM     29  O   UNL     1       1.642   1.814  11.662  1.00  0.00    -0.250 OA
BRANCH  28  30
ATOM     30  O   UNL     1       3.555   1.780  10.513  1.00  0.00    -0.480 OA
ATOM     31  H   UNL     1       4.326   1.184  10.613  1.00  0.00     0.296 HD
ENDBRANCH  28  30
ENDBRANCH  13  28
ENDBRANCH  11  13
ENDBRANCH   8  11
ENDBRANCH   6   7
BRANCH   6  32
ATOM     32  C   UNL     1       8.596   1.362  11.419  1.00  0.00     0.037 C 
BRANCH  32  33
ATOM     33  C   UNL     1       9.529   1.549  12.624  1.00  0.00     0.026 C 
BRANCH  33  34
ATOM     34  C   UNL     1       9.428   2.950  13.229  1.00  0.00     0.146 C 
BRANCH  34  35
ATOM     35  N   UNL     1      10.769   3.423  13.544  1.00  0.00    -0.254 NA
ATOM     36  C   UNL     1      11.024   3.793  14.744  1.00  0.00     0.185 C 
ATOM     37  N   UNL     1      12.258   4.227  15.046  1.00  0.00    -0.370 N 
ATOM     38  N   UNL     1      10.207   3.818  15.812  1.00  0.00    -0.370 N 
ATOM     39  H   UNL     1      12.935   4.228  14.295  1.00  0.00     0.159 HD
ATOM     40  H   UNL     1      12.583   4.367  15.987  1.00  0.00     0.159 HD
ATOM     41  H   UNL     1      10.487   4.262  16.671  1.00  0.00     0.159 HD
ATOM     42  H   UNL     1       9.244   3.534  15.727  1.00  0.00     0.159 HD
ENDBRANCH  34  35
ENDBRANCH  33  34
ENDBRANCH  32  33
ENDBRANCH   6  32
ENDBRANCH   4   6
ENDBRANCH   1   2
BRANCH   1  43
ATOM     43  C   UNL     1       8.153   4.135   7.295  1.00  0.00     0.102 C 
ATOM     44  C   UNL     1       9.429   4.723   7.921  1.00  0.00     0.020 C 
BRANCH  43  45
ATOM     45  C   UNL     1       7.906   4.584   5.851  1.00  0.00     0.225 C 
ATOM     46  O   UNL     1       7.726   3.798   4.926  1.00  0.00    -0.275 OA
ATOM     47  N   UNL     1       7.992   5.940   5.630  1.00  0.00    -0.342 N 
ATOM     48  H   UNL     1       7.988   6.576   6.414  1.00  0.00     0.164 HD
BRANCH  47  49
ATOM     49  C   UNL     1       7.744   6.516   4.305  1.00  0.00     0.192 C 
BRANCH  49  50
ATOM     50  C   UNL     1       8.897   7.448   3.925  1.00  0.00     0.047 C 
BRANCH  50  51
ATOM     51  C   UNL     1       9.364   7.236   2.478  1.00  0.00     0.103 C 
BRANCH  51  52
ATOM     52  C   UNL     1      10.423   8.255   2.062  1.00  0.00     0.226 C 
ATOM     53  O   UNL     1      11.618   7.974   2.177  1.00  0.00    -0.275 OA
BRANCH  52  54
ATOM     54  N   UNL     1       9.952   9.451   1.491  1.00  0.00    -0.311 N 
ATOM     55  C   UNL     1      10.624  10.731   1.752  1.00  0.00     0.153 C 
BRANCH  54  56
ATOM     56  C   UNL     1       8.828   9.467   0.648  1.00  0.00     0.102 C 
ATOM     57  C   UNL     1       7.635   9.995   0.967  1.00  0.00     0.043 C 
BRANCH  56  58
ATOM     58  C   UNL     1       8.902   8.906  -0.753  1.00  0.00     0.268 C 
ATOM     59  O   UNL     1       9.489   9.467  -1.668  1.00  0.00    -0.268 OA
ATOM     60  N   UNL     1       8.302   7.676  -0.875  1.00  0.00    -0.339 N 
ATOM     61  H   UNL     1       7.827   7.284  -0.071  1.00  0.00     0.164 HD
BRANCH  60  62
ATOM     62  C   UNL     1       8.312   6.926  -2.130  1.00  0.00     0.168 CG0
ATOM     63  C   UNL     1       9.096   5.628  -1.985  1.00  0.00     0.041 C 
ATOM     64  G   UNL     1       8.908   7.801  -3.252  1.00  0.00     0.000 G0
ENDBRANCH  60  62
ENDBRANCH  56  58
ENDBRANCH  54  56
ENDBRANCH  52  54
ENDBRANCH  51  52
ENDBRANCH  50  51
ENDBRANCH  49  50
BRANCH  49  65
ATOM     65  C   UNL     1       6.423   7.300   4.266  1.00  0.00     0.326 C 
ATOM     66  O   UNL     1       5.317   6.842   4.514  1.00  0.00    -0.250 OA
BRANCH  65  67
ATOM     67  O   UNL     1       6.541   8.585   3.866  1.00  0.00    -0.480 OA
ATOM     68  H   UNL     1       7.397   8.871   4.253  1.00  0.00     0.296 HD
ENDBRANCH  65  67
ENDBRANCH  49  65
ENDBRANCH  47  49
ENDBRANCH  43  45
ENDBRANCH   1  43
BRANCH   1  69
ATOM     69  C   UNL     1       6.305   5.739   8.305  1.00  0.00    -0.001 C 
ATOM     70  C   UNL     1       6.099   6.431   9.439  1.00  0.00     0.001 C 
BRANCH  70  71
ATOM     71  C   UNL     1       5.560   7.788   9.556  1.00  0.00    -0.055 C 
ATOM     72  C   UNL     1       5.259   8.444   8.415  1.00  0.00    -0.018 C 
ATOM     73  C   UNL     1       5.372   8.352  10.940  1.00  0.00     0.044 C 
BRANCH  72  74
ATOM     74  C   UNL     1       4.690   9.843   8.231  1.00  0.00     0.038 C 
ATOM     75  C   UNL     1       3.261   9.828   8.789  1.00  0.00     0.015 C 
BRANCH  74  76
ATOM     76  C   UNL     1       4.799  10.235   6.728  1.00  0.00     0.128 C 
BRANCH  76  77
ATOM     77  O   UNL     1       6.165  10.129   6.291  1.00  0.00    -0.381 OA
ATOM     78  C   UNL     1       6.861  11.368   6.290  1.00  0.00     0.195 C 
ENDBRANCH  76  77
BRANCH  76  79
ATOM     79  C   UNL     1       3.814   9.473   5.806  1.00  0.00     0.068 C 
BRANCH  79  80
ATOM     80  C   UNL     1       3.503  10.072   4.455  1.00  0.00    -0.045 A 
ATOM     81  C   UNL     1       2.938   9.296   3.435  1.00  0.00     0.004 A 
ATOM     82  C   UNL     1       3.803  11.417   4.192  1.00  0.00     0.004 A 
ATOM     83  C   UNL     1       2.666   9.854   2.184  1.00  0.00     0.000 A 
ATOM     84  C   UNL     1       3.531  11.974   2.941  1.00  0.00     0.000 A 
ATOM     85  C   UNL     1       2.961  11.193   1.938  1.00  0.00     0.000 A 
ENDBRANCH  79  80
ENDBRANCH  76  79
ENDBRANCH  74  76
ENDBRANCH  72  74
ENDBRANCH  70  71
ENDBRANCH   1  69
TORSDOF 17
ENDMDL
MODEL 44
REMARK VINA RESULT:    -5.790      7.307     14.558
REMARK INTER + INTRA:         -23.449
REMARK INTER:                 -17.603
REMARK INTRA:                  -5.846
REMARK UNBOUND:                -6.151
REMARK SMILES C=C1C(=O)N[C@H](C)C(=O)N[C@@H](CC(C)C)C(=O)N[C@@H](C(=O)O)[C@H](C)C(=O)N[C@@H](CCCN=C(N)N)C(=O)N[C@@H](/C=C/C(C)=C/[C@H](C)[C@H](Cc2ccccc2)OC)[C@H](C)C(=O)N[C@@H](C(=O)O)CCC(=O)N1C
REMARK SMILES IDX 39 1 38 2 37 3 36 4 28 6 27 7 25 8 26 9 23 11 24 12 19 13
REMARK SMILES IDX 18 14 16 15 17 16 11 18 10 19 8 20 9 21 12 24 13 25 14 26
REMARK SMILES IDX 15 27 20 28 21 29 22 30 29 32 30 33 31 34 32 35 33 36 34 37
REMARK SMILES IDX 35 38 57 43 58 44 59 45 60 46 61 47 62 49 66 50 67 51 68 52
REMARK SMILES IDX 69 53 70 54 71 55 2 56 1 57 3 58 4 59 5 60 6 62 7 63 63 65
REMARK SMILES IDX 64 66 65 67 40 69 41 70 42 71 44 72 43 73 45 74 46 75 47 76
REMARK SMILES IDX 55 77 56 78 48 79 49 80 50 81 54 82 51 83 53 84 52 85
REMARK H PARENT 38 5 27 10 18 17 10 22 22 31 34 39 34 40 35 41 35 42 61 48
REMARK H PARENT 5 61 65 68
REMARK Flexibility Score:  369.900
ROOT
ATOM      1  C   UNL     1       6.087   7.669   3.722  1.00  0.00     0.117 C 
ENDROOT
BRANCH   1   2
ATOM      2  N   UNL     1       6.175   7.305   5.137  1.00  0.00    -0.347 N 
ATOM      3  O   UNL     1       7.708   5.609   4.929  1.00  0.00    -0.273 OA
ATOM      4  C   UNL     1       7.050   6.361   5.639  1.00  0.00     0.243 C 
ATOM      5  H   UNL     1       5.605   7.795   5.810  1.00  0.00     0.164 HD
BRANCH   4   6
ATOM      6  C   UNL     1       7.002   6.227   7.183  1.00  0.00     0.171 C 
BRANCH   6   7
ATOM      7  N   UNL     1       5.872   6.993   7.731  1.00  0.00    -0.344 N 
ATOM      8  C   UNL     1       6.078   7.956   8.695  1.00  0.00     0.226 C 
ATOM      9  O   UNL     1       7.186   8.205   9.154  1.00  0.00    -0.275 OA
ATOM     10  H   UNL     1       4.933   6.769   7.426  1.00  0.00     0.164 HD
BRANCH   8  11
ATOM     11  C   UNL     1       4.821   8.696   9.119  1.00  0.00     0.109 C 
ATOM     12  C   UNL     1       4.268   9.506   7.947  1.00  0.00     0.021 C 
BRANCH  11  13
ATOM     13  C   UNL     1       3.822   7.706   9.751  1.00  0.00     0.204 C 
BRANCH  13  14
ATOM     14  N   UNL     1       4.485   6.743  10.635  1.00  0.00    -0.340 N 
ATOM     15  C   UNL     1       4.422   5.380  10.438  1.00  0.00     0.243 C 
ATOM     16  O   UNL     1       3.855   4.879   9.469  1.00  0.00    -0.273 OA
ATOM     17  H   UNL     1       4.841   7.080  11.534  1.00  0.00     0.164 HD
BRANCH  15  18
ATOM     18  C   UNL     1       5.018   4.558  11.607  1.00  0.00     0.171 C 
BRANCH  18  19
ATOM     19  N   UNL     1       4.143   3.402  11.794  1.00  0.00    -0.343 N 
ATOM     20  C   UNL     1       3.259   3.320  12.853  1.00  0.00     0.242 CG0
ATOM     21  O   UNL     1       3.261   4.151  13.758  1.00  0.00    -0.273 OA
ATOM     22  H   UNL     1       4.187   2.633  11.134  1.00  0.00     0.164 HD
ATOM     23  G   UNL     1       2.364   2.064  12.840  1.00  0.00     0.000 G0
ENDBRANCH  18  19
BRANCH  18  24
ATOM     24  C   UNL     1       6.456   4.129  11.290  1.00  0.00     0.038 C 
BRANCH  24  25
ATOM     25  C   UNL     1       6.702   2.607  11.349  1.00  0.00    -0.015 C 
ATOM     26  C   UNL     1       8.146   2.261  11.714  1.00  0.00     0.007 C 
ATOM     27  C   UNL     1       6.347   1.975  10.001  1.00  0.00     0.007 C 
ENDBRANCH  24  25
ENDBRANCH  18  24
ENDBRANCH  15  18
ENDBRANCH  13  14
BRANCH  13  28
ATOM     28  C   UNL     1       2.727   8.396  10.571  1.00  0.00     0.327 C 
ATOM     29  O   UNL     1       1.624   8.729  10.168  1.00  0.00    -0.250 OA
BRANCH  28  30
ATOM     30  O   UNL     1       3.129   8.730  11.814  1.00  0.00    -0.480 OA
ATOM     31  H   UNL     1       3.959   9.232  11.673  1.00  0.00     0.296 HD
ENDBRANCH  28  30
ENDBRANCH  13  28
ENDBRANCH  11  13
ENDBRANCH   8  11
ENDBRANCH   6   7
BRANCH   6  32
ATOM     32  C   UNL     1       6.891   4.744   7.555  1.00  0.00     0.037 C 
BRANCH  32  33
ATOM     33  C   UNL     1       8.254   4.130   7.903  1.00  0.00     0.026 C 
BRANCH  33  34
ATOM     34  C   UNL     1       8.745   3.153   6.833  1.00  0.00     0.146 C 
BRANCH  34  35
ATOM     35  N   UNL     1       8.394   1.799   7.237  1.00  0.00    -0.254 NA
ATOM     36  C   UNL     1       9.303   1.055   7.748  1.00  0.00     0.185 C 
ATOM     37  N   UNL     1       8.989  -0.193   8.128  1.00  0.00    -0.370 N 
ATOM     38  N   UNL     1      10.597   1.340   7.979  1.00  0.00    -0.370 N 
ATOM     39  H   UNL     1       8.028  -0.480   7.996  1.00  0.00     0.159 HD
ATOM     40  H   UNL     1       9.591  -0.772   8.689  1.00  0.00     0.159 HD
ATOM     41  H   UNL     1      11.247   0.623   8.258  1.00  0.00     0.159 HD
ATOM     42  H   UNL     1      10.977   2.239   7.728  1.00  0.00     0.159 HD
ENDBRANCH  34  35
ENDBRANCH  33  34
ENDBRANCH  32  33
ENDBRANCH   6  32
ENDBRANCH   4   6
ENDBRANCH   1   2
BRANCH   1  43
ATOM     43  C   UNL     1       7.195   8.717   3.412  1.00  0.00     0.102 C 
ATOM     44  C   UNL     1       6.691  10.170   3.453  1.00  0.00     0.020 C 
BRANCH  43  45
ATOM     45  C   UNL     1       7.948   8.357   2.128  1.00  0.00     0.225 C 
ATOM     46  O   UNL     1       8.202   9.174   1.247  1.00  0.00    -0.275 OA
ATOM     47  N   UNL     1       8.249   7.024   1.972  1.00  0.00    -0.342 N 
ATOM     48  H   UNL     1       8.172   6.398   2.761  1.00  0.00     0.164 HD
BRANCH  47  49
ATOM     49  C   UNL     1       9.000   6.538   0.810  1.00  0.00     0.192 C 
BRANCH  49  50
ATOM     50  C   UNL     1       8.577   5.103   0.488  1.00  0.00     0.047 C 
BRANCH  50  51
ATOM     51  C   UNL     1       7.896   4.990  -0.883  1.00  0.00     0.103 C 
BRANCH  51  52
ATOM     52  C   UNL     1       8.182   3.650  -1.557  1.00  0.00     0.226 C 
ATOM     53  O   UNL     1       8.710   2.742  -0.911  1.00  0.00    -0.275 OA
BRANCH  52  54
ATOM     54  N   UNL     1       7.743   3.510  -2.887  1.00  0.00    -0.311 N 
ATOM     55  C   UNL     1       6.546   2.724  -3.210  1.00  0.00     0.153 C 
BRANCH  54  56
ATOM     56  C   UNL     1       8.428   4.120  -3.952  1.00  0.00     0.102 C 
ATOM     57  C   UNL     1       9.719   3.910  -4.256  1.00  0.00     0.043 C 
BRANCH  56  58
ATOM     58  C   UNL     1       7.714   5.061  -4.894  1.00  0.00     0.268 C 
ATOM     59  O   UNL     1       7.305   6.164  -4.558  1.00  0.00    -0.268 OA
ATOM     60  N   UNL     1       7.631   4.578  -6.179  1.00  0.00    -0.339 N 
ATOM     61  H   UNL     1       7.985   3.649  -6.374  1.00  0.00     0.164 HD
BRANCH  60  62
ATOM     62  C   UNL     1       7.035   5.354  -7.265  1.00  0.00     0.168 CG0
ATOM     63  C   UNL     1       5.566   4.996  -7.451  1.00  0.00     0.041 C 
ATOM     64  G   UNL     1       7.825   5.111  -8.568  1.00  0.00     0.000 G0
ENDBRANCH  60  62
ENDBRANCH  56  58
ENDBRANCH  54  56
ENDBRANCH  52  54
ENDBRANCH  51  52
ENDBRANCH  50  51
ENDBRANCH  49  50
BRANCH  49  65
ATOM     65  C   UNL     1      10.516   6.579   1.057  1.00  0.00     0.326 C 
ATOM     66  O   UNL     1      11.201   7.590   1.104  1.00  0.00    -0.250 OA
BRANCH  65  67
ATOM     67  O   UNL     1      11.102   5.367   1.170  1.00  0.00    -0.480 OA
ATOM     68  H   UNL     1      10.699   4.846   0.442  1.00  0.00     0.296 HD
ENDBRANCH  65  67
ENDBRANCH  49  65
ENDBRANCH  47  49
ENDBRANCH  43  45
ENDBRANCH   1  43
BRANCH   1  69
ATOM     69  C   UNL     1       4.637   8.037   3.468  1.00  0.00    -0.001 C 
ATOM     70  C   UNL     1       4.051   8.277   2.282  1.00  0.00     0.001 C 
BRANCH  70  71
ATOM     71  C   UNL     1       2.644   8.611   2.048  1.00  0.00    -0.055 C 
ATOM     72  C   UNL     1       1.946   7.826   1.199  1.00  0.00    -0.018 C 
ATOM     73  C   UNL     1       2.074   9.800   2.776  1.00  0.00     0.044 C 
BRANCH  72  74
ATOM     74  C   UNL     1       0.489   7.928   0.772  1.00  0.00     0.038 C 
ATOM     75  C   UNL     1      -0.285   6.853   1.545  1.00  0.00     0.015 C 
BRANCH  74  76
ATOM     76  C   UNL     1       0.412   7.801  -0.778  1.00  0.00     0.128 C 
BRANCH  76  77
ATOM     77  O   UNL     1      -0.627   8.654  -1.289  1.00  0.00    -0.381 OA
ATOM     78  C   UNL     1      -1.735   7.946  -1.828  1.00  0.00     0.195 C 
ENDBRANCH  76  77
BRANCH  76  79
ATOM     79  C   UNL     1       1.769   8.012  -1.496  1.00  0.00     0.068 C 
BRANCH  79  80
ATOM     80  C   UNL     1       2.345   6.854  -2.272  1.00  0.00    -0.045 A 
ATOM     81  C   UNL     1       1.516   5.981  -2.990  1.00  0.00     0.004 A 
ATOM     82  C   UNL     1       3.728   6.615  -2.264  1.00  0.00     0.004 A 
ATOM     83  C   UNL     1       2.057   4.903  -3.694  1.00  0.00     0.000 A 
ATOM     84  C   UNL     1       4.267   5.536  -2.968  1.00  0.00     0.000 A 
ATOM     85  C   UNL     1       3.432   4.682  -3.684  1.00  0.00     0.000 A 
ENDBRANCH  79  80
ENDBRANCH  76  79
ENDBRANCH  74  76
ENDBRANCH  72  74
ENDBRANCH  70  71
ENDBRANCH   1  69
TORSDOF 17
ENDMDL
MODEL 45
REMARK VINA RESULT:    -5.786      8.555     14.846
REMARK INTER + INTRA:         -23.437
REMARK INTER:                 -15.102
REMARK INTRA:                  -8.335
REMARK UNBOUND:                -6.151
REMARK SMILES C=C1C(=O)N[C@H](C)C(=O)N[C@@H](CC(C)C)C(=O)N[C@@H](C(=O)O)[C@H](C)C(=O)N[C@@H](CCCN=C(N)N)C(=O)N[C@@H](/C=C/C(C)=C/[C@H](C)[C@H](Cc2ccccc2)OC)[C@H](C)C(=O)N[C@@H](C(=O)O)CCC(=O)N1C
REMARK SMILES IDX 39 1 38 2 37 3 36 4 28 6 27 7 25 8 26 9 23 11 24 12 19 13
REMARK SMILES IDX 18 14 16 15 17 16 11 18 10 19 8 20 9 21 12 24 13 25 14 26
REMARK SMILES IDX 15 27 20 28 21 29 22 30 29 32 30 33 31 34 32 35 33 36 34 37
REMARK SMILES IDX 35 38 57 43 58 44 59 45 60 46 61 47 62 49 66 50 67 51 68 52
REMARK SMILES IDX 69 53 70 54 71 55 2 56 1 57 3 58 4 59 5 60 6 62 7 63 63 65
REMARK SMILES IDX 64 66 65 67 40 69 41 70 42 71 44 72 43 73 45 74 46 75 47 76
REMARK SMILES IDX 55 77 56 78 48 79 49 80 50 81 54 82 51 83 53 84 52 85
REMARK H PARENT 38 5 27 10 18 17 10 22 22 31 34 39 34 40 35 41 35 42 61 48
REMARK H PARENT 5 61 65 68
REMARK Flexibility Score:  369.900
ROOT
ATOM      1  C   UNL     1       8.108   6.892   2.149  1.00  0.00     0.117 C 
ENDROOT
BRANCH   1   2
ATOM      2  N   UNL     1       7.003   7.850   2.099  1.00  0.00    -0.347 N 
ATOM      3  O   UNL     1       8.255   9.760   1.862  1.00  0.00    -0.273 OA
ATOM      4  C   UNL     1       7.162   9.203   1.867  1.00  0.00     0.243 C 
ATOM      5  H   UNL     1       6.055   7.516   2.187  1.00  0.00     0.164 HD
BRANCH   4   6
ATOM      6  C   UNL     1       5.825   9.981   1.777  1.00  0.00     0.171 C 
BRANCH   6   7
ATOM      7  N   UNL     1       4.689   9.086   2.052  1.00  0.00    -0.344 N 
ATOM      8  C   UNL     1       3.691   8.911   1.119  1.00  0.00     0.226 C 
ATOM      9  O   UNL     1       3.683   9.495   0.042  1.00  0.00    -0.275 OA
ATOM     10  H   UNL     1       4.626   8.638   2.958  1.00  0.00     0.164 HD
BRANCH   8  11
ATOM     11  C   UNL     1       2.619   7.916   1.529  1.00  0.00     0.109 C 
ATOM     12  C   UNL     1       2.772   7.558   3.008  1.00  0.00     0.021 C 
BRANCH  11  13
ATOM     13  C   UNL     1       1.229   8.453   1.133  1.00  0.00     0.204 C 
BRANCH  13  14
ATOM     14  N   UNL     1       0.964   8.291  -0.300  1.00  0.00    -0.340 N 
ATOM     15  C   UNL     1       1.250   7.132  -0.988  1.00  0.00     0.243 C 
ATOM     16  O   UNL     1       1.693   6.127  -0.434  1.00  0.00    -0.273 OA
ATOM     17  H   UNL     1       0.741   9.129  -0.845  1.00  0.00     0.164 HD
BRANCH  15  18
ATOM     18  C   UNL     1       1.080   7.265  -2.522  1.00  0.00     0.171 C 
BRANCH  18  19
ATOM     19  N   UNL     1       2.413   7.124  -3.104  1.00  0.00    -0.343 N 
ATOM     20  C   UNL     1       3.212   8.220  -3.371  1.00  0.00     0.242 CG0
ATOM     21  O   UNL     1       2.788   9.368  -3.255  1.00  0.00    -0.273 OA
ATOM     22  H   UNL     1       2.764   6.199  -3.326  1.00  0.00     0.164 HD
ATOM     23  G   UNL     1       4.614   7.870  -3.910  1.00  0.00     0.000 G0
ENDBRANCH  18  19
BRANCH  18  24
ATOM     24  C   UNL     1       0.119   6.195  -3.055  1.00  0.00     0.038 C 
BRANCH  24  25
ATOM     25  C   UNL     1      -1.233   6.740  -3.564  1.00  0.00    -0.015 C 
ATOM     26  C   UNL     1      -2.031   5.693  -4.340  1.00  0.00     0.007 C 
ATOM     27  C   UNL     1      -0.993   7.966  -4.449  1.00  0.00     0.007 C 
ENDBRANCH  24  25
ENDBRANCH  18  24
ENDBRANCH  15  18
ENDBRANCH  13  14
BRANCH  13  28
ATOM     28  C   UNL     1       0.082   7.773   1.886  1.00  0.00     0.327 C 
ATOM     29  O   UNL     1      -0.396   6.677   1.638  1.00  0.00    -0.250 OA
BRANCH  28  30
ATOM     30  O   UNL     1      -0.472   8.562   2.829  1.00  0.00    -0.480 OA
ATOM     31  H   UNL     1      -0.421   9.464   2.449  1.00  0.00     0.296 HD
ENDBRANCH  28  30
ENDBRANCH  13  28
ENDBRANCH  11  13
ENDBRANCH   8  11
ENDBRANCH   6   7
BRANCH   6  32
ATOM     32  C   UNL     1       5.854  11.149   2.769  1.00  0.00     0.037 C 
BRANCH  32  33
ATOM     33  C   UNL     1       5.796  10.672   4.227  1.00  0.00     0.026 C 
BRANCH  33  34
ATOM     34  C   UNL     1       4.618  11.277   4.993  1.00  0.00     0.146 C 
BRANCH  34  35
ATOM     35  N   UNL     1       3.402  11.081   4.215  1.00  0.00    -0.254 NA
ATOM     36  C   UNL     1       2.320  10.784   4.832  1.00  0.00     0.185 C 
ATOM     37  N   UNL     1       1.192  10.607   4.126  1.00  0.00    -0.370 N 
ATOM     38  N   UNL     1       2.119  10.611   6.151  1.00  0.00    -0.370 N 
ATOM     39  H   UNL     1       1.260  10.730   3.124  1.00  0.00     0.159 HD
ATOM     40  H   UNL     1       0.279  10.545   4.543  1.00  0.00     0.159 HD
ATOM     41  H   UNL     1       1.251  10.241   6.501  1.00  0.00     0.159 HD
ATOM     42  H   UNL     1       2.884  10.698   6.802  1.00  0.00     0.159 HD
ENDBRANCH  34  35
ENDBRANCH  33  34
ENDBRANCH  32  33
ENDBRANCH   6  32
ENDBRANCH   4   6
ENDBRANCH   1   2
BRANCH   1  43
ATOM     43  C   UNL     1       7.920   5.859   1.000  1.00  0.00     0.102 C 
ATOM     44  C   UNL     1       9.027   4.793   0.949  1.00  0.00     0.020 C 
BRANCH  43  45
ATOM     45  C   UNL     1       7.672   6.562  -0.337  1.00  0.00     0.225 C 
ATOM     46  O   UNL     1       6.580   7.018  -0.663  1.00  0.00    -0.275 OA
ATOM     47  N   UNL     1       8.738   6.573  -1.208  1.00  0.00    -0.342 N 
ATOM     48  H   UNL     1       9.661   6.334  -0.871  1.00  0.00     0.164 HD
BRANCH  47  49
ATOM     49  C   UNL     1       8.658   7.241  -2.510  1.00  0.00     0.192 C 
BRANCH  49  50
ATOM     50  C   UNL     1       9.155   6.294  -3.606  1.00  0.00     0.047 C 
BRANCH  50  51
ATOM     51  C   UNL     1       9.224   4.837  -3.128  1.00  0.00     0.103 C 
BRANCH  51  52
ATOM     52  C   UNL     1       8.174   3.961  -3.809  1.00  0.00     0.226 C 
ATOM     53  O   UNL     1       8.461   3.360  -4.847  1.00  0.00    -0.275 OA
BRANCH  52  54
ATOM     54  N   UNL     1       6.939   3.834  -3.148  1.00  0.00    -0.311 N 
ATOM     55  C   UNL     1       6.864   3.294  -1.783  1.00  0.00     0.153 C 
BRANCH  54  56
ATOM     56  C   UNL     1       5.736   4.221  -3.762  1.00  0.00     0.102 C 
ATOM     57  C   UNL     1       4.638   3.453  -3.853  1.00  0.00     0.043 C 
BRANCH  56  58
ATOM     58  C   UNL     1       5.575   5.605  -4.346  1.00  0.00     0.268 C 
ATOM     59  O   UNL     1       5.931   5.898  -5.480  1.00  0.00    -0.268 OA
ATOM     60  N   UNL     1       4.931   6.476  -3.501  1.00  0.00    -0.339 N 
ATOM     61  H   UNL     1       4.677   6.158  -2.574  1.00  0.00     0.164 HD
BRANCH  60  62
ATOM     62  C   UNL     1       4.615   7.850  -3.892  1.00  0.00     0.168 CG0
ATOM     63  C   UNL     1       5.663   8.822  -3.365  1.00  0.00     0.041 C 
ATOM     64  G   UNL     1       3.212   8.225  -3.373  1.00  0.00     0.000 G0
ENDBRANCH  60  62
ENDBRANCH  56  58
ENDBRANCH  54  56
ENDBRANCH  52  54
ENDBRANCH  51  52
ENDBRANCH  50  51
ENDBRANCH  49  50
BRANCH  49  65
ATOM     65  C   UNL     1       9.491   8.532  -2.537  1.00  0.00     0.326 C 
ATOM     66  O   UNL     1       9.046   9.662  -2.674  1.00  0.00    -0.250 OA
BRANCH  65  67
ATOM     67  O   UNL     1      10.827   8.343  -2.453  1.00  0.00    -0.480 OA
ATOM     68  H   UNL     1      11.183   8.884  -3.190  1.00  0.00     0.296 HD
ENDBRANCH  65  67
ENDBRANCH  49  65
ENDBRANCH  47  49
ENDBRANCH  43  45
ENDBRANCH   1  43
BRANCH   1  69
ATOM     69  C   UNL     1       8.172   6.393   3.581  1.00  0.00    -0.001 C 
ATOM     70  C   UNL     1       7.999   7.111   4.704  1.00  0.00     0.001 C 
BRANCH  70  71
ATOM     71  C   UNL     1       8.042   6.614   6.081  1.00  0.00    -0.055 C 
ATOM     72  C   UNL     1       7.667   5.336   6.299  1.00  0.00    -0.018 C 
ATOM     73  C   UNL     1       8.509   7.562   7.155  1.00  0.00     0.044 C 
BRANCH  72  74
ATOM     74  C   UNL     1       7.614   4.558   7.606  1.00  0.00     0.038 C 
ATOM     75  C   UNL     1       8.812   3.601   7.612  1.00  0.00     0.015 C 
BRANCH  74  76
ATOM     76  C   UNL     1       6.224   3.865   7.719  1.00  0.00     0.128 C 
BRANCH  76  77
ATOM     77  O   UNL     1       6.389   2.501   8.144  1.00  0.00    -0.381 OA
ATOM     78  C   UNL     1       6.420   2.342   9.556  1.00  0.00     0.195 C 
ENDBRANCH  76  77
BRANCH  76  79
ATOM     79  C   UNL     1       5.201   4.643   8.585  1.00  0.00     0.068 C 
BRANCH  79  80
ATOM     80  C   UNL     1       5.175   6.148   8.467  1.00  0.00    -0.045 A 
ATOM     81  C   UNL     1       4.625   6.773   7.340  1.00  0.00     0.004 A 
ATOM     82  C   UNL     1       5.730   6.947   9.478  1.00  0.00     0.004 A 
ATOM     83  C   UNL     1       4.617   8.166   7.232  1.00  0.00     0.000 A 
ATOM     84  C   UNL     1       5.722   8.339   9.368  1.00  0.00     0.000 A 
ATOM     85  C   UNL     1       5.164   8.948   8.246  1.00  0.00     0.000 A 
ENDBRANCH  79  80
ENDBRANCH  76  79
ENDBRANCH  74  76
ENDBRANCH  72  74
ENDBRANCH  70  71
ENDBRANCH   1  69
TORSDOF 17
ENDMDL
MODEL 46
REMARK VINA RESULT:    -5.786      7.108     14.106
REMARK INTER + INTRA:         -23.436
REMARK INTER:                 -17.384
REMARK INTRA:                  -6.052
REMARK UNBOUND:                -6.151
REMARK SMILES C=C1C(=O)N[C@H](C)C(=O)N[C@@H](CC(C)C)C(=O)N[C@@H](C(=O)O)[C@H](C)C(=O)N[C@@H](CCCN=C(N)N)C(=O)N[C@@H](/C=C/C(C)=C/[C@H](C)[C@H](Cc2ccccc2)OC)[C@H](C)C(=O)N[C@@H](C(=O)O)CCC(=O)N1C
REMARK SMILES IDX 39 1 38 2 37 3 36 4 28 6 27 7 25 8 26 9 23 11 24 12 19 13
REMARK SMILES IDX 18 14 16 15 17 16 11 18 10 19 8 20 9 21 12 24 13 25 14 26
REMARK SMILES IDX 15 27 20 28 21 29 22 30 29 32 30 33 31 34 32 35 33 36 34 37
REMARK SMILES IDX 35 38 57 43 58 44 59 45 60 46 61 47 62 49 66 50 67 51 68 52
REMARK SMILES IDX 69 53 70 54 71 55 2 56 1 57 3 58 4 59 5 60 6 62 7 63 63 65
REMARK SMILES IDX 64 66 65 67 40 69 41 70 42 71 44 72 43 73 45 74 46 75 47 76
REMARK SMILES IDX 55 77 56 78 48 79 49 80 50 81 54 82 51 83 53 84 52 85
REMARK H PARENT 38 5 27 10 18 17 10 22 22 31 34 39 34 40 35 41 35 42 61 48
REMARK H PARENT 5 61 65 68
REMARK Flexibility Score:  369.900
ROOT
ATOM      1  C   UNL     1       7.773   6.954   3.374  1.00  0.00     0.117 C 
ENDROOT
BRANCH   1   2
ATOM      2  N   UNL     1       7.961   6.415   4.721  1.00  0.00    -0.347 N 
ATOM      3  O   UNL     1       7.989   4.188   4.166  1.00  0.00    -0.273 OA
ATOM      4  C   UNL     1       8.147   5.074   4.999  1.00  0.00     0.243 C 
ATOM      5  H   UNL     1       8.011   7.048   5.505  1.00  0.00     0.164 HD
BRANCH   4   6
ATOM      6  C   UNL     1       8.410   4.778   6.497  1.00  0.00     0.171 C 
BRANCH   6   7
ATOM      7  N   UNL     1       7.269   5.218   7.316  1.00  0.00    -0.344 N 
ATOM      8  C   UNL     1       7.286   6.445   7.944  1.00  0.00     0.226 C 
ATOM      9  O   UNL     1       8.241   7.209   7.873  1.00  0.00    -0.275 OA
ATOM     10  H   UNL     1       6.490   4.586   7.453  1.00  0.00     0.164 HD
BRANCH   8  11
ATOM     11  C   UNL     1       6.014   6.776   8.705  1.00  0.00     0.109 C 
ATOM     12  C   UNL     1       5.252   7.894   7.995  1.00  0.00     0.021 C 
BRANCH  11  13
ATOM     13  C   UNL     1       5.201   5.488   8.946  1.00  0.00     0.204 C 
BRANCH  13  14
ATOM     14  N   UNL     1       5.608   4.800  10.175  1.00  0.00    -0.340 N 
ATOM     15  C   UNL     1       5.372   3.460  10.395  1.00  0.00     0.243 C 
ATOM     16  O   UNL     1       4.856   2.733   9.549  1.00  0.00    -0.273 OA
ATOM     17  H   UNL     1       5.900   5.372  10.971  1.00  0.00     0.164 HD
BRANCH  15  18
ATOM     18  C   UNL     1       5.699   3.004  11.838  1.00  0.00     0.171 C 
BRANCH  18  19
ATOM     19  N   UNL     1       4.571   2.191  12.287  1.00  0.00    -0.343 N 
ATOM     20  C   UNL     1       3.560   2.715  13.069  1.00  0.00     0.242 CG0
ATOM     21  O   UNL     1       3.630   3.851  13.534  1.00  0.00    -0.273 OA
ATOM     22  H   UNL     1       4.527   1.213  12.024  1.00  0.00     0.164 HD
ATOM     23  G   UNL     1       2.416   1.728  13.377  1.00  0.00     0.000 G0
ENDBRANCH  18  19
BRANCH  18  24
ATOM     24  C   UNL     1       7.012   2.211  11.871  1.00  0.00     0.038 C 
BRANCH  24  25
ATOM     25  C   UNL     1       7.916   2.511  13.084  1.00  0.00    -0.015 C 
ATOM     26  C   UNL     1       7.671   1.552  14.249  1.00  0.00     0.007 C 
ATOM     27  C   UNL     1       7.694   3.953  13.549  1.00  0.00     0.007 C 
ENDBRANCH  24  25
ENDBRANCH  18  24
ENDBRANCH  15  18
ENDBRANCH  13  14
BRANCH  13  28
ATOM     28  C   UNL     1       3.692   5.737   9.043  1.00  0.00     0.327 C 
ATOM     29  O   UNL     1       3.147   6.644   9.653  1.00  0.00    -0.250 OA
BRANCH  28  30
ATOM     30  O   UNL     1       2.958   4.763   8.468  1.00  0.00    -0.480 OA
ATOM     31  H   UNL     1       3.249   4.762   7.532  1.00  0.00     0.296 HD
ENDBRANCH  28  30
ENDBRANCH  13  28
ENDBRANCH  11  13
ENDBRANCH   8  11
ENDBRANCH   6   7
BRANCH   6  32
ATOM     32  C   UNL     1       8.666   3.278   6.676  1.00  0.00     0.037 C 
BRANCH  32  33
ATOM     33  C   UNL     1       7.660   2.629   7.637  1.00  0.00     0.026 C 
BRANCH  33  34
ATOM     34  C   UNL     1       8.245   1.421   8.369  1.00  0.00     0.146 C 
BRANCH  34  35
ATOM     35  N   UNL     1       9.508   1.057   7.741  1.00  0.00    -0.254 NA
ATOM     36  C   UNL     1      10.522   0.826   8.488  1.00  0.00     0.185 C 
ATOM     37  N   UNL     1      11.689   0.485   7.919  1.00  0.00    -0.370 N 
ATOM     38  N   UNL     1      10.611   0.871   9.829  1.00  0.00    -0.370 N 
ATOM     39  H   UNL     1      11.700   0.419   6.909  1.00  0.00     0.159 HD
ATOM     40  H   UNL     1      12.473   0.122   8.433  1.00  0.00     0.159 HD
ATOM     41  H   UNL     1      11.502   0.805  10.294  1.00  0.00     0.159 HD
ATOM     42  H   UNL     1       9.813   1.130  10.387  1.00  0.00     0.159 HD
ENDBRANCH  34  35
ENDBRANCH  33  34
ENDBRANCH  32  33
ENDBRANCH   6  32
ENDBRANCH   4   6
ENDBRANCH   1   2
BRANCH   1  43
ATOM     43  C   UNL     1       9.169   7.118   2.707  1.00  0.00     0.102 C 
ATOM     44  C   UNL     1       9.533   8.581   2.401  1.00  0.00     0.020 C 
BRANCH  43  45
ATOM     45  C   UNL     1       9.321   6.176   1.509  1.00  0.00     0.225 C 
ATOM     46  O   UNL     1      10.393   5.680   1.176  1.00  0.00    -0.275 OA
ATOM     47  N   UNL     1       8.184   5.988   0.756  1.00  0.00    -0.342 N 
ATOM     48  H   UNL     1       7.287   6.274   1.124  1.00  0.00     0.164 HD
BRANCH  47  49
ATOM     49  C   UNL     1       8.170   5.085  -0.399  1.00  0.00     0.192 C 
BRANCH  49  50
ATOM     50  C   UNL     1       7.036   5.480  -1.347  1.00  0.00     0.047 C 
BRANCH  50  51
ATOM     51  C   UNL     1       7.515   5.626  -2.798  1.00  0.00     0.103 C 
BRANCH  51  52
ATOM     52  C   UNL     1       7.385   4.321  -3.579  1.00  0.00     0.226 C 
ATOM     53  O   UNL     1       8.398   3.681  -3.871  1.00  0.00    -0.275 OA
BRANCH  52  54
ATOM     54  N   UNL     1       6.077   3.884  -3.858  1.00  0.00    -0.311 N 
ATOM     55  C   UNL     1       5.706   2.469  -3.716  1.00  0.00     0.153 C 
BRANCH  54  56
ATOM     56  C   UNL     1       5.078   4.780  -4.273  1.00  0.00     0.102 C 
ATOM     57  C   UNL     1       3.898   4.956  -3.656  1.00  0.00     0.043 C 
BRANCH  56  58
ATOM     58  C   UNL     1       5.292   5.678  -5.469  1.00  0.00     0.268 C 
ATOM     59  O   UNL     1       5.381   6.895  -5.385  1.00  0.00    -0.268 OA
ATOM     60  N   UNL     1       5.441   4.983  -6.646  1.00  0.00    -0.339 N 
ATOM     61  H   UNL     1       5.343   3.975  -6.633  1.00  0.00     0.164 HD
BRANCH  60  62
ATOM     62  C   UNL     1       5.720   5.653  -7.916  1.00  0.00     0.168 CG0
ATOM     63  C   UNL     1       7.219   5.736  -8.173  1.00  0.00     0.041 C 
ATOM     64  G   UNL     1       5.088   7.061  -7.907  1.00  0.00     0.000 G0
ENDBRANCH  60  62
ENDBRANCH  56  58
ENDBRANCH  54  56
ENDBRANCH  52  54
ENDBRANCH  51  52
ENDBRANCH  50  51
ENDBRANCH  49  50
BRANCH  49  65
ATOM     65  C   UNL     1       7.989   3.620   0.029  1.00  0.00     0.326 C 
ATOM     66  O   UNL     1       7.803   2.677  -0.726  1.00  0.00    -0.250 OA
BRANCH  65  67
ATOM     67  O   UNL     1       7.989   3.419   1.365  1.00  0.00    -0.480 OA
ATOM     68  H   UNL     1       7.217   2.830   1.510  1.00  0.00     0.296 HD
ENDBRANCH  65  67
ENDBRANCH  49  65
ENDBRANCH  47  49
ENDBRANCH  43  45
ENDBRANCH   1  43
BRANCH   1  69
ATOM     69  C   UNL     1       6.885   8.176   3.526  1.00  0.00    -0.001 C 
ATOM     70  C   UNL     1       5.825   8.514   2.771  1.00  0.00     0.001 C 
BRANCH  70  71
ATOM     71  C   UNL     1       4.963   9.685   2.941  1.00  0.00    -0.055 C 
ATOM     72  C   UNL     1       3.918   9.577   3.790  1.00  0.00    -0.018 C 
ATOM     73  C   UNL     1       5.306  10.929   2.164  1.00  0.00     0.044 C 
BRANCH  72  74
ATOM     74  C   UNL     1       2.869  10.615   4.163  1.00  0.00     0.038 C 
ATOM     75  C   UNL     1       2.775  10.633   5.693  1.00  0.00     0.015 C 
BRANCH  74  76
ATOM     76  C   UNL     1       1.539  10.268   3.431  1.00  0.00     0.128 C 
BRANCH  76  77
ATOM     77  O   UNL     1       0.445  10.975   4.040  1.00  0.00    -0.381 OA
ATOM     78  C   UNL     1      -0.788  10.821   3.350  1.00  0.00     0.195 C 
ENDBRANCH  76  77
BRANCH  76  79
ATOM     79  C   UNL     1       1.597  10.463   1.895  1.00  0.00     0.068 C 
BRANCH  79  80
ATOM     80  C   UNL     1       1.894   9.254   1.040  1.00  0.00    -0.045 A 
ATOM     81  C   UNL     1       2.434   9.394  -0.246  1.00  0.00     0.004 A 
ATOM     82  C   UNL     1       1.606   7.965   1.513  1.00  0.00     0.004 A 
ATOM     83  C   UNL     1       2.693   8.272  -1.035  1.00  0.00     0.000 A 
ATOM     84  C   UNL     1       1.865   6.844   0.722  1.00  0.00     0.000 A 
ATOM     85  C   UNL     1       2.410   6.997  -0.551  1.00  0.00     0.000 A 
ENDBRANCH  79  80
ENDBRANCH  76  79
ENDBRANCH  74  76
ENDBRANCH  72  74
ENDBRANCH  70  71
ENDBRANCH   1  69
TORSDOF 17
ENDMDL
MODEL 47
REMARK VINA RESULT:    -5.782      5.078      9.730
REMARK INTER + INTRA:         -23.426
REMARK INTER:                 -17.473
REMARK INTRA:                  -5.952
REMARK UNBOUND:                -6.151
REMARK SMILES C=C1C(=O)N[C@H](C)C(=O)N[C@@H](CC(C)C)C(=O)N[C@@H](C(=O)O)[C@H](C)C(=O)N[C@@H](CCCN=C(N)N)C(=O)N[C@@H](/C=C/C(C)=C/[C@H](C)[C@H](Cc2ccccc2)OC)[C@H](C)C(=O)N[C@@H](C(=O)O)CCC(=O)N1C
REMARK SMILES IDX 39 1 38 2 37 3 36 4 28 6 27 7 25 8 26 9 23 11 24 12 19 13
REMARK SMILES IDX 18 14 16 15 17 16 11 18 10 19 8 20 9 21 12 24 13 25 14 26
REMARK SMILES IDX 15 27 20 28 21 29 22 30 29 32 30 33 31 34 32 35 33 36 34 37
REMARK SMILES IDX 35 38 57 43 58 44 59 45 60 46 61 47 62 49 66 50 67 51 68 52
REMARK SMILES IDX 69 53 70 54 71 55 2 56 1 57 3 58 4 59 5 60 6 62 7 63 63 65
REMARK SMILES IDX 64 66 65 67 40 69 41 70 42 71 44 72 43 73 45 74 46 75 47 76
REMARK SMILES IDX 55 77 56 78 48 79 49 80 50 81 54 82 51 83 53 84 52 85
REMARK H PARENT 38 5 27 10 18 17 10 22 22 31 34 39 34 40 35 41 35 42 61 48
REMARK H PARENT 5 61 65 68
REMARK Flexibility Score:  369.900
ROOT
ATOM      1  C   UNL     1       3.813   0.733  14.127  1.00  0.00     0.117 C 
ENDROOT
BRANCH   1   2
ATOM      2  N   UNL     1       3.499  -0.653  14.477  1.00  0.00    -0.347 N 
ATOM      3  O   UNL     1       3.862  -0.494  16.738  1.00  0.00    -0.273 OA
ATOM      4  C   UNL     1       3.460  -1.133  15.772  1.00  0.00     0.243 C 
ATOM      5  H   UNL     1       3.245  -1.301  13.748  1.00  0.00     0.164 HD
BRANCH   4   6
ATOM      6  C   UNL     1       3.017  -2.615  15.873  1.00  0.00     0.171 C 
BRANCH   6   7
ATOM      7  N   UNL     1       4.186  -3.507  15.818  1.00  0.00    -0.344 N 
ATOM      8  C   UNL     1       4.655  -3.978  14.611  1.00  0.00     0.226 C 
ATOM      9  O   UNL     1       4.121  -3.703  13.543  1.00  0.00    -0.275 OA
ATOM     10  H   UNL     1       4.613  -3.810  16.685  1.00  0.00     0.164 HD
BRANCH   8  11
ATOM     11  C   UNL     1       5.900  -4.841  14.717  1.00  0.00     0.109 C 
ATOM     12  C   UNL     1       6.523  -4.698  16.106  1.00  0.00     0.021 C 
BRANCH  11  13
ATOM     13  C   UNL     1       5.567  -6.288  14.302  1.00  0.00     0.204 C 
BRANCH  13  14
ATOM     14  N   UNL     1       6.774  -7.079  14.042  1.00  0.00    -0.340 N 
ATOM     15  C   UNL     1       7.465  -7.020  12.851  1.00  0.00     0.243 C 
ATOM     16  O   UNL     1       7.151  -6.253  11.943  1.00  0.00    -0.273 OA
ATOM     17  H   UNL     1       6.999  -7.840  14.688  1.00  0.00     0.164 HD
BRANCH  15  18
ATOM     18  C   UNL     1       8.577  -8.090  12.727  1.00  0.00     0.171 C 
BRANCH  18  19
ATOM     19  N   UNL     1       8.667  -8.752  14.027  1.00  0.00    -0.343 N 
ATOM     20  C   UNL     1       9.848  -8.794  14.743  1.00  0.00     0.242 CG0
ATOM     21  O   UNL     1      10.906  -8.395  14.263  1.00  0.00    -0.273 OA
ATOM     22  H   UNL     1       7.845  -9.200  14.415  1.00  0.00     0.164 HD
ATOM     23  G   UNL     1       9.730  -9.467  16.127  1.00  0.00     0.000 G0
ENDBRANCH  18  19
BRANCH  18  24
ATOM     24  C   UNL     1       8.247  -9.088  11.610  1.00  0.00     0.038 C 
BRANCH  24  25
ATOM     25  C   UNL     1       8.953 -10.454  11.737  1.00  0.00    -0.015 C 
ATOM     26  C   UNL     1      10.242 -10.526  10.919  1.00  0.00     0.007 C 
ATOM     27  C   UNL     1       8.000 -11.568  11.296  1.00  0.00     0.007 C 
ENDBRANCH  24  25
ENDBRANCH  18  24
ENDBRANCH  15  18
ENDBRANCH  13  14
BRANCH  13  28
ATOM     28  C   UNL     1       4.747  -7.044  15.352  1.00  0.00     0.327 C 
ATOM     29  O   UNL     1       3.700  -6.671  15.858  1.00  0.00    -0.250 OA
BRANCH  28  30
ATOM     30  O   UNL     1       5.354  -8.166  15.790  1.00  0.00    -0.480 OA
ATOM     31  H   UNL     1       5.963  -7.853  16.491  1.00  0.00     0.296 HD
ENDBRANCH  28  30
ENDBRANCH  13  28
ENDBRANCH  11  13
ENDBRANCH   8  11
ENDBRANCH   6   7
BRANCH   6  32
ATOM     32  C   UNL     1       2.234  -2.818  17.175  1.00  0.00     0.037 C 
BRANCH  32  33
ATOM     33  C   UNL     1       0.720  -2.897  16.935  1.00  0.00     0.026 C 
BRANCH  33  34
ATOM     34  C   UNL     1       0.305  -4.197  16.244  1.00  0.00     0.146 C 
BRANCH  34  35
ATOM     35  N   UNL     1       0.091  -3.929  14.829  1.00  0.00    -0.254 NA
ATOM     36  C   UNL     1       0.728  -4.632  13.967  1.00  0.00     0.185 C 
ATOM     37  N   UNL     1       0.534  -4.397  12.660  1.00  0.00    -0.370 N 
ATOM     38  N   UNL     1       1.609  -5.627  14.174  1.00  0.00    -0.370 N 
ATOM     39  H   UNL     1      -0.125  -3.667  12.423  1.00  0.00     0.159 HD
ATOM     40  H   UNL     1       0.856  -5.011  11.931  1.00  0.00     0.159 HD
ATOM     41  H   UNL     1       2.149  -6.010  13.415  1.00  0.00     0.159 HD
ATOM     42  H   UNL     1       1.863  -5.900  15.110  1.00  0.00     0.159 HD
ENDBRANCH  34  35
ENDBRANCH  33  34
ENDBRANCH  32  33
ENDBRANCH   6  32
ENDBRANCH   4   6
ENDBRANCH   1   2
BRANCH   1  43
ATOM     43  C   UNL     1       2.894   1.166  12.948  1.00  0.00     0.102 C 
ATOM     44  C   UNL     1       2.913   0.184  11.765  1.00  0.00     0.020 C 
BRANCH  43  45
ATOM     45  C   UNL     1       3.158   2.622  12.551  1.00  0.00     0.225 C 
ATOM     46  O   UNL     1       2.697   3.579  13.166  1.00  0.00    -0.275 OA
ATOM     47  N   UNL     1       3.878   2.799  11.392  1.00  0.00    -0.342 N 
ATOM     48  H   UNL     1       4.374   2.017  10.987  1.00  0.00     0.164 HD
BRANCH  47  49
ATOM     49  C   UNL     1       4.236   4.136  10.909  1.00  0.00     0.192 C 
BRANCH  49  50
ATOM     50  C   UNL     1       4.735   4.044   9.464  1.00  0.00     0.047 C 
BRANCH  50  51
ATOM     51  C   UNL     1       4.064   5.079   8.551  1.00  0.00     0.103 C 
BRANCH  51  52
ATOM     52  C   UNL     1       4.996   5.548   7.435  1.00  0.00     0.226 C 
ATOM     53  O   UNL     1       5.665   4.722   6.811  1.00  0.00    -0.275 OA
BRANCH  52  54
ATOM     54  N   UNL     1       4.971   6.922   7.134  1.00  0.00    -0.311 N 
ATOM     55  C   UNL     1       4.613   7.396   5.790  1.00  0.00     0.153 C 
BRANCH  54  56
ATOM     56  C   UNL     1       5.282   7.890   8.104  1.00  0.00     0.102 C 
ATOM     57  C   UNL     1       6.485   8.040   8.682  1.00  0.00     0.043 C 
BRANCH  56  58
ATOM     58  C   UNL     1       4.251   8.900   8.549  1.00  0.00     0.268 C 
ATOM     59  O   UNL     1       3.398   8.659   9.393  1.00  0.00    -0.268 OA
ATOM     60  N   UNL     1       4.411  10.131   7.960  1.00  0.00    -0.339 N 
ATOM     61  H   UNL     1       5.136  10.247   7.262  1.00  0.00     0.164 HD
BRANCH  60  62
ATOM     62  C   UNL     1       3.559  11.272   8.295  1.00  0.00     0.168 CG0
ATOM     63  C   UNL     1       4.239  12.587   7.934  1.00  0.00     0.041 C 
ATOM     64  G   UNL     1       3.210  11.232   9.797  1.00  0.00     0.000 G0
ENDBRANCH  60  62
ENDBRANCH  56  58
ENDBRANCH  54  56
ENDBRANCH  52  54
ENDBRANCH  51  52
ENDBRANCH  50  51
ENDBRANCH  49  50
BRANCH  49  65
ATOM     65  C   UNL     1       5.323   4.781  11.783  1.00  0.00     0.326 C 
ATOM     66  O   UNL     1       6.043   4.190  12.573  1.00  0.00    -0.250 OA
BRANCH  65  67
ATOM     67  O   UNL     1       5.412   6.125  11.670  1.00  0.00    -0.480 OA
ATOM     68  H   UNL     1       4.514   6.393  11.379  1.00  0.00     0.296 HD
ENDBRANCH  65  67
ENDBRANCH  49  65
ENDBRANCH  47  49
ENDBRANCH  43  45
ENDBRANCH   1  43
BRANCH   1  69
ATOM     69  C   UNL     1       5.319   0.794  13.944  1.00  0.00    -0.001 C 
ATOM     70  C   UNL     1       6.227   1.283  14.806  1.00  0.00     0.001 C 
BRANCH  70  71
ATOM     71  C   UNL     1       7.680   1.317  14.628  1.00  0.00    -0.055 C 
ATOM     72  C   UNL     1       8.194   2.289  13.845  1.00  0.00    -0.018 C 
ATOM     73  C   UNL     1       8.499   0.270  15.336  1.00  0.00     0.044 C 
BRANCH  72  74
ATOM     74  C   UNL     1       9.646   2.569  13.486  1.00  0.00     0.038 C 
ATOM     75  C   UNL     1       9.948   4.011  13.910  1.00  0.00     0.015 C 
BRANCH  74  76
ATOM     76  C   UNL     1       9.852   2.278  11.970  1.00  0.00     0.128 C 
BRANCH  76  77
ATOM     77  O   UNL     1      10.656   1.098  11.801  1.00  0.00    -0.381 OA
ATOM     78  C   UNL     1       9.897  -0.086  11.598  1.00  0.00     0.195 C 
ENDBRANCH  76  77
BRANCH  76  79
ATOM     79  C   UNL     1       8.536   2.228  11.154  1.00  0.00     0.068 C 
BRANCH  79  80
ATOM     80  C   UNL     1       8.597   2.595   9.691  1.00  0.00    -0.045 A 
ATOM     81  C   UNL     1       7.884   1.862   8.732  1.00  0.00     0.004 A 
ATOM     82  C   UNL     1       9.396   3.666   9.263  1.00  0.00     0.004 A 
ATOM     83  C   UNL     1       7.957   2.199   7.379  1.00  0.00     0.000 A 
ATOM     84  C   UNL     1       9.469   4.002   7.909  1.00  0.00     0.000 A 
ATOM     85  C   UNL     1       8.748   3.270   6.968  1.00  0.00     0.000 A 
ENDBRANCH  79  80
ENDBRANCH  76  79
ENDBRANCH  74  76
ENDBRANCH  72  74
ENDBRANCH  70  71
ENDBRANCH   1  69
TORSDOF 17
ENDMDL
MODEL 48
REMARK VINA RESULT:    -5.726      3.791      6.093
REMARK INTER + INTRA:         -23.259
REMARK INTER:                 -16.287
REMARK INTRA:                  -6.972
REMARK UNBOUND:                -6.151
REMARK SMILES C=C1C(=O)N[C@H](C)C(=O)N[C@@H](CC(C)C)C(=O)N[C@@H](C(=O)O)[C@H](C)C(=O)N[C@@H](CCCN=C(N)N)C(=O)N[C@@H](/C=C/C(C)=C/[C@H](C)[C@H](Cc2ccccc2)OC)[C@H](C)C(=O)N[C@@H](C(=O)O)CCC(=O)N1C
REMARK SMILES IDX 39 1 38 2 37 3 36 4 28 6 27 7 25 8 26 9 23 11 24 12 19 13
REMARK SMILES IDX 18 14 16 15 17 16 11 18 10 19 8 20 9 21 12 24 13 25 14 26
REMARK SMILES IDX 15 27 20 28 21 29 22 30 29 32 30 33 31 34 32 35 33 36 34 37
REMARK SMILES IDX 35 38 57 43 58 44 59 45 60 46 61 47 62 49 66 50 67 51 68 52
REMARK SMILES IDX 69 53 70 54 71 55 2 56 1 57 3 58 4 59 5 60 6 62 7 63 63 65
REMARK SMILES IDX 64 66 65 67 40 69 41 70 42 71 44 72 43 73 45 74 46 75 47 76
REMARK SMILES IDX 55 77 56 78 48 79 49 80 50 81 54 82 51 83 53 84 52 85
REMARK H PARENT 38 5 27 10 18 17 10 22 22 31 34 39 34 40 35 41 35 42 61 48
REMARK H PARENT 5 61 65 68
REMARK Flexibility Score:  369.900
ROOT
ATOM      1  C   UNL     1       5.078   4.486   9.986  1.00  0.00     0.117 C 
ENDROOT
BRANCH   1   2
ATOM      2  N   UNL     1       6.359   3.777   9.988  1.00  0.00    -0.347 N 
ATOM      3  O   UNL     1       5.954   2.395   8.201  1.00  0.00    -0.273 OA
ATOM      4  C   UNL     1       6.730   2.849   9.035  1.00  0.00     0.243 C 
ATOM      5  H   UNL     1       7.047   4.001  10.691  1.00  0.00     0.164 HD
BRANCH   4   6
ATOM      6  C   UNL     1       8.172   2.311   9.218  1.00  0.00     0.171 C 
BRANCH   6   7
ATOM      7  N   UNL     1       8.470   2.112  10.645  1.00  0.00    -0.344 N 
ATOM      8  C   UNL     1       9.496   2.803  11.252  1.00  0.00     0.226 C 
ATOM      9  O   UNL     1      10.215   3.587  10.643  1.00  0.00    -0.275 OA
ATOM     10  H   UNL     1       7.941   1.423  11.165  1.00  0.00     0.164 HD
BRANCH   8  11
ATOM     11  C   UNL     1       9.641   2.530  12.739  1.00  0.00     0.109 C 
ATOM     12  C   UNL     1      10.322   3.713  13.427  1.00  0.00     0.021 C 
BRANCH  11  13
ATOM     13  C   UNL     1       8.274   2.134  13.332  1.00  0.00     0.204 C 
BRANCH  13  14
ATOM     14  N   UNL     1       8.407   1.160  14.420  1.00  0.00    -0.340 N 
ATOM     15  C   UNL     1       8.091  -0.173  14.274  1.00  0.00     0.243 C 
ATOM     16  O   UNL     1       7.732  -0.653  13.200  1.00  0.00    -0.273 OA
ATOM     17  H   UNL     1       8.551   1.517  15.369  1.00  0.00     0.164 HD
BRANCH  15  18
ATOM     18  C   UNL     1       8.109  -0.963  15.606  1.00  0.00     0.171 C 
BRANCH  18  19
ATOM     19  N   UNL     1       9.307  -1.800  15.579  1.00  0.00    -0.343 N 
ATOM     20  C   UNL     1       9.252  -3.140  15.244  1.00  0.00     0.242 CG0
ATOM     21  O   UNL     1       8.181  -3.719  15.083  1.00  0.00    -0.273 OA
ATOM     22  H   UNL     1      10.204  -1.394  15.819  1.00  0.00     0.164 HD
ATOM     23  G   UNL     1      10.626  -3.840  15.193  1.00  0.00     0.000 G0
ENDBRANCH  18  19
BRANCH  18  24
ATOM     24  C   UNL     1       8.120  -0.005  16.804  1.00  0.00     0.038 C 
BRANCH  24  25
ATOM     25  C   UNL     1       7.493  -0.577  18.093  1.00  0.00    -0.015 C 
ATOM     26  C   UNL     1       8.545  -1.087  19.078  1.00  0.00     0.007 C 
ATOM     27  C   UNL     1       6.529  -1.711  17.736  1.00  0.00     0.007 C 
ENDBRANCH  24  25
ENDBRANCH  18  24
ENDBRANCH  15  18
ENDBRANCH  13  14
BRANCH  13  28
ATOM     28  C   UNL     1       7.487   3.326  13.883  1.00  0.00     0.327 C 
ATOM     29  O   UNL     1       7.058   4.270  13.236  1.00  0.00    -0.250 OA
BRANCH  28  30
ATOM     30  O   UNL     1       7.391   3.321  15.228  1.00  0.00    -0.480 OA
ATOM     31  H   UNL     1       7.119   4.234  15.454  1.00  0.00     0.296 HD
ENDBRANCH  28  30
ENDBRANCH  13  28
ENDBRANCH  11  13
ENDBRANCH   8  11
ENDBRANCH   6   7
BRANCH   6  32
ATOM     32  C   UNL     1       8.322   0.999   8.439  1.00  0.00     0.037 C 
BRANCH  32  33
ATOM     33  C   UNL     1       9.770   0.488   8.439  1.00  0.00     0.026 C 
BRANCH  33  34
ATOM     34  C   UNL     1      10.018  -0.565   7.358  1.00  0.00     0.146 C 
BRANCH  34  35
ATOM     35  N   UNL     1      10.203  -1.860   7.998  1.00  0.00    -0.254 NA
ATOM     36  C   UNL     1       9.216  -2.676   8.031  1.00  0.00     0.185 C 
ATOM     37  N   UNL     1       9.376  -3.874   8.613  1.00  0.00    -0.370 N 
ATOM     38  N   UNL     1       7.972  -2.516   7.545  1.00  0.00    -0.370 N 
ATOM     39  H   UNL     1      10.292  -4.074   8.995  1.00  0.00     0.159 HD
ATOM     40  H   UNL     1       8.716  -4.627   8.527  1.00  0.00     0.159 HD
ATOM     41  H   UNL     1       7.242  -3.176   7.756  1.00  0.00     0.159 HD
ATOM     42  H   UNL     1       7.704  -1.655   7.094  1.00  0.00     0.159 HD
ENDBRANCH  34  35
ENDBRANCH  33  34
ENDBRANCH  32  33
ENDBRANCH   6  32
ENDBRANCH   4   6
ENDBRANCH   1   2
BRANCH   1  43
ATOM     43  C   UNL     1       5.359   6.016  10.015  1.00  0.00     0.102 C 
ATOM     44  C   UNL     1       4.192   6.841  10.583  1.00  0.00     0.020 C 
BRANCH  43  45
ATOM     45  C   UNL     1       5.864   6.508   8.655  1.00  0.00     0.225 C 
ATOM     46  O   UNL     1       7.042   6.447   8.315  1.00  0.00    -0.275 OA
ATOM     47  N   UNL     1       4.922   7.118   7.858  1.00  0.00    -0.342 N 
ATOM     48  H   UNL     1       3.941   7.024   8.083  1.00  0.00     0.164 HD
BRANCH  47  49
ATOM     49  C   UNL     1       5.253   7.605   6.516  1.00  0.00     0.192 C 
BRANCH  49  50
ATOM     50  C   UNL     1       4.249   8.683   6.098  1.00  0.00     0.047 C 
BRANCH  50  51
ATOM     51  C   UNL     1       4.814  10.100   6.263  1.00  0.00     0.103 C 
BRANCH  51  52
ATOM     52  C   UNL     1       4.273  10.791   7.514  1.00  0.00     0.226 C 
ATOM     53  O   UNL     1       4.307  10.204   8.597  1.00  0.00    -0.275 OA
BRANCH  52  54
ATOM     54  N   UNL     1       3.829  12.117   7.355  1.00  0.00    -0.311 N 
ATOM     55  C   UNL     1       4.226  13.166   8.304  1.00  0.00     0.153 C 
BRANCH  54  56
ATOM     56  C   UNL     1       2.998  12.487   6.285  1.00  0.00     0.102 C 
ATOM     57  C   UNL     1       3.384  13.228   5.233  1.00  0.00     0.043 C 
BRANCH  56  58
ATOM     58  C   UNL     1       1.563  12.020   6.220  1.00  0.00     0.268 C 
ATOM     59  O   UNL     1       1.100  11.411   5.265  1.00  0.00    -0.268 OA
ATOM     60  N   UNL     1       0.855  12.289   7.366  1.00  0.00    -0.339 N 
ATOM     61  H   UNL     1       1.309  12.808   8.109  1.00  0.00     0.164 HD
BRANCH  60  62
ATOM     62  C   UNL     1      -0.535  11.868   7.541  1.00  0.00     0.168 CG0
ATOM     63  C   UNL     1      -0.619  10.592   8.369  1.00  0.00     0.041 C 
ATOM     64  G   UNL     1      -1.191  11.666   6.160  1.00  0.00     0.000 G0
ENDBRANCH  60  62
ENDBRANCH  56  58
ENDBRANCH  54  56
ENDBRANCH  52  54
ENDBRANCH  51  52
ENDBRANCH  50  51
ENDBRANCH  49  50
BRANCH  49  65
ATOM     65  C   UNL     1       5.241   6.469   5.482  1.00  0.00     0.326 C 
ATOM     66  O   UNL     1       4.241   5.953   5.004  1.00  0.00    -0.250 OA
BRANCH  65  67
ATOM     67  O   UNL     1       6.463   6.000   5.145  1.00  0.00    -0.480 OA
ATOM     68  H   UNL     1       6.778   6.639   4.470  1.00  0.00     0.296 HD
ENDBRANCH  65  67
ENDBRANCH  49  65
ENDBRANCH  47  49
ENDBRANCH  43  45
ENDBRANCH   1  43
BRANCH   1  69
ATOM     69  C   UNL     1       4.252   3.871  11.101  1.00  0.00    -0.001 C 
ATOM     70  C   UNL     1       4.451   2.687  11.708  1.00  0.00     0.001 C 
BRANCH  70  71
ATOM     71  C   UNL     1       3.659   2.114  12.798  1.00  0.00    -0.055 C 
ATOM     72  C   UNL     1       4.318   1.441  13.766  1.00  0.00    -0.018 C 
ATOM     73  C   UNL     1       2.167   2.321  12.767  1.00  0.00     0.044 C 
BRANCH  72  74
ATOM     74  C   UNL     1       3.766   0.751  15.005  1.00  0.00     0.038 C 
ATOM     75  C   UNL     1       4.739   1.039  16.155  1.00  0.00     0.015 C 
BRANCH  74  76
ATOM     76  C   UNL     1       3.560  -0.759  14.687  1.00  0.00     0.128 C 
BRANCH  76  77
ATOM     77  O   UNL     1       4.829  -1.385  14.433  1.00  0.00    -0.381 OA
ATOM     78  C   UNL     1       4.754  -2.800  14.316  1.00  0.00     0.195 C 
ENDBRANCH  76  77
BRANCH  76  79
ATOM     79  C   UNL     1       2.719  -1.516  15.746  1.00  0.00     0.068 C 
BRANCH  79  80
ATOM     80  C   UNL     1       1.324  -1.950  15.363  1.00  0.00    -0.045 A 
ATOM     81  C   UNL     1       0.671  -1.387  14.258  1.00  0.00     0.004 A 
ATOM     82  C   UNL     1       0.646  -2.909  16.131  1.00  0.00     0.004 A 
ATOM     83  C   UNL     1      -0.624  -1.783  13.920  1.00  0.00     0.000 A 
ATOM     84  C   UNL     1      -0.650  -3.304  15.791  1.00  0.00     0.000 A 
ATOM     85  C   UNL     1      -1.284  -2.742  14.685  1.00  0.00     0.000 A 
ENDBRANCH  79  80
ENDBRANCH  76  79
ENDBRANCH  74  76
ENDBRANCH  72  74
ENDBRANCH  70  71
ENDBRANCH   1  69
TORSDOF 17
ENDMDL
MODEL 49
REMARK VINA RESULT:    -5.704     13.796     19.145
REMARK INTER + INTRA:         -23.192
REMARK INTER:                 -16.599
REMARK INTRA:                  -6.593
REMARK UNBOUND:                -6.151
REMARK SMILES C=C1C(=O)N[C@H](C)C(=O)N[C@@H](CC(C)C)C(=O)N[C@@H](C(=O)O)[C@H](C)C(=O)N[C@@H](CCCN=C(N)N)C(=O)N[C@@H](/C=C/C(C)=C/[C@H](C)[C@H](Cc2ccccc2)OC)[C@H](C)C(=O)N[C@@H](C(=O)O)CCC(=O)N1C
REMARK SMILES IDX 39 1 38 2 37 3 36 4 28 6 27 7 25 8 26 9 23 11 24 12 19 13
REMARK SMILES IDX 18 14 16 15 17 16 11 18 10 19 8 20 9 21 12 24 13 25 14 26
REMARK SMILES IDX 15 27 20 28 21 29 22 30 29 32 30 33 31 34 32 35 33 36 34 37
REMARK SMILES IDX 35 38 57 43 58 44 59 45 60 46 61 47 62 49 66 50 67 51 68 52
REMARK SMILES IDX 69 53 70 54 71 55 2 56 1 57 3 58 4 59 5 60 6 62 7 63 63 65
REMARK SMILES IDX 64 66 65 67 40 69 41 70 42 71 44 72 43 73 45 74 46 75 47 76
REMARK SMILES IDX 55 77 56 78 48 79 49 80 50 81 54 82 51 83 53 84 52 85
REMARK H PARENT 38 5 27 10 18 17 10 22 22 31 34 39 34 40 35 41 35 42 61 48
REMARK H PARENT 5 61 65 68
REMARK Flexibility Score:  369.900
ROOT
ATOM      1  C   UNL     1      -9.004   3.550   2.182  1.00  0.00     0.117 C 
ENDROOT
BRANCH   1   2
ATOM      2  N   UNL     1      -8.329   4.151   3.333  1.00  0.00    -0.347 N 
ATOM      3  O   UNL     1      -6.168   3.854   2.618  1.00  0.00    -0.273 OA
ATOM      4  C   UNL     1      -6.963   4.338   3.417  1.00  0.00     0.243 C 
ATOM      5  H   UNL     1      -8.880   4.503   4.101  1.00  0.00     0.164 HD
BRANCH   4   6
ATOM      6  C   UNL     1      -6.513   5.076   4.704  1.00  0.00     0.171 C 
BRANCH   6   7
ATOM      7  N   UNL     1      -7.023   6.456   4.710  1.00  0.00    -0.344 N 
ATOM      8  C   UNL     1      -6.296   7.477   4.136  1.00  0.00     0.226 C 
ATOM      9  O   UNL     1      -5.199   7.297   3.620  1.00  0.00    -0.275 OA
ATOM     10  H   UNL     1      -7.894   6.655   5.186  1.00  0.00     0.164 HD
BRANCH   8  11
ATOM     11  C   UNL     1      -6.981   8.831   4.175  1.00  0.00     0.109 C 
ATOM     12  C   UNL     1      -8.480   8.656   4.417  1.00  0.00     0.021 C 
BRANCH  11  13
ATOM     13  C   UNL     1      -6.264   9.749   5.185  1.00  0.00     0.204 C 
BRANCH  13  14
ATOM     14  N   UNL     1      -6.199   9.153   6.523  1.00  0.00    -0.340 N 
ATOM     15  C   UNL     1      -6.833   9.699   7.617  1.00  0.00     0.243 C 
ATOM     16  O   UNL     1      -7.550  10.695   7.537  1.00  0.00    -0.273 OA
ATOM     17  H   UNL     1      -5.504   8.420   6.688  1.00  0.00     0.164 HD
BRANCH  15  18
ATOM     18  C   UNL     1      -6.453   9.019   8.956  1.00  0.00     0.171 C 
BRANCH  18  19
ATOM     19  N   UNL     1      -5.547   9.933   9.648  1.00  0.00    -0.343 N 
ATOM     20  C   UNL     1      -4.190   9.947   9.392  1.00  0.00     0.242 CG0
ATOM     21  O   UNL     1      -3.662   9.103   8.671  1.00  0.00    -0.273 OA
ATOM     22  H   UNL     1      -5.920  10.573  10.340  1.00  0.00     0.164 HD
ATOM     23  G   UNL     1      -3.408  11.033  10.160  1.00  0.00     0.000 G0
ENDBRANCH  18  19
BRANCH  18  24
ATOM     24  C   UNL     1      -7.706   8.730   9.791  1.00  0.00     0.038 C 
BRANCH  24  25
ATOM     25  C   UNL     1      -8.666   7.689   9.175  1.00  0.00    -0.015 C 
ATOM     26  C   UNL     1     -10.007   8.299   8.768  1.00  0.00     0.007 C 
ATOM     27  C   UNL     1      -8.898   6.550  10.171  1.00  0.00     0.007 C 
ENDBRANCH  24  25
ENDBRANCH  18  24
ENDBRANCH  15  18
ENDBRANCH  13  14
BRANCH  13  28
ATOM     28  C   UNL     1      -4.831  10.097   4.772  1.00  0.00     0.327 C 
ATOM     29  O   UNL     1      -3.868  10.194   5.518  1.00  0.00    -0.250 OA
BRANCH  28  30
ATOM     30  O   UNL     1      -4.719  10.417   3.467  1.00  0.00    -0.480 OA
ATOM     31  H   UNL     1      -5.506  10.972   3.287  1.00  0.00     0.296 HD
ENDBRANCH  28  30
ENDBRANCH  13  28
ENDBRANCH  11  13
ENDBRANCH   8  11
ENDBRANCH   6   7
BRANCH   6  32
ATOM     32  C   UNL     1      -7.012   4.302   5.929  1.00  0.00     0.037 C 
BRANCH  32  33
ATOM     33  C   UNL     1      -7.924   5.156   6.821  1.00  0.00     0.026 C 
BRANCH  33  34
ATOM     34  C   UNL     1      -9.303   4.525   7.021  1.00  0.00     0.146 C 
BRANCH  34  35
ATOM     35  N   UNL     1      -9.130   3.153   7.476  1.00  0.00    -0.254 NA
ATOM     36  C   UNL     1     -10.159   2.505   7.879  1.00  0.00     0.185 C 
ATOM     37  N   UNL     1     -10.012   1.237   8.295  1.00  0.00    -0.370 N 
ATOM     38  N   UNL     1     -11.438   2.914   7.957  1.00  0.00    -0.370 N 
ATOM     39  H   UNL     1      -9.077   0.852   8.257  1.00  0.00     0.159 HD
ATOM     40  H   UNL     1     -10.783   0.613   8.459  1.00  0.00     0.159 HD
ATOM     41  H   UNL     1     -12.135   2.357   8.423  1.00  0.00     0.159 HD
ATOM     42  H   UNL     1     -11.693   3.852   7.691  1.00  0.00     0.159 HD
ENDBRANCH  34  35
ENDBRANCH  33  34
ENDBRANCH  32  33
ENDBRANCH   6  32
ENDBRANCH   4   6
ENDBRANCH   1   2
BRANCH   1  43
ATOM     43  C   UNL     1      -9.525   4.691   1.262  1.00  0.00     0.102 C 
ATOM     44  C   UNL     1     -10.989   4.505   0.826  1.00  0.00     0.020 C 
BRANCH  43  45
ATOM     45  C   UNL     1      -8.559   4.946   0.101  1.00  0.00     0.225 C 
ATOM     46  O   UNL     1      -7.684   4.151  -0.230  1.00  0.00    -0.275 OA
ATOM     47  N   UNL     1      -8.669   6.178  -0.501  1.00  0.00    -0.342 N 
ATOM     48  H   UNL     1      -9.481   6.752  -0.322  1.00  0.00     0.164 HD
BRANCH  47  49
ATOM     49  C   UNL     1      -7.834   6.548  -1.648  1.00  0.00     0.192 C 
BRANCH  49  50
ATOM     50  C   UNL     1      -7.993   5.506  -2.757  1.00  0.00     0.047 C 
BRANCH  50  51
ATOM     51  C   UNL     1      -7.609   6.060  -4.136  1.00  0.00     0.103 C 
BRANCH  51  52
ATOM     52  C   UNL     1      -6.789   5.059  -4.948  1.00  0.00     0.226 C 
ATOM     53  O   UNL     1      -7.014   3.853  -4.837  1.00  0.00    -0.275 OA
BRANCH  52  54
ATOM     54  N   UNL     1      -5.856   5.601  -5.852  1.00  0.00    -0.311 N 
ATOM     55  C   UNL     1      -4.804   6.518  -5.393  1.00  0.00     0.153 C 
BRANCH  54  56
ATOM     56  C   UNL     1      -5.891   5.283  -7.219  1.00  0.00     0.102 C 
ATOM     57  C   UNL     1      -6.712   5.848  -8.119  1.00  0.00     0.043 C 
BRANCH  56  58
ATOM     58  C   UNL     1      -4.933   4.271  -7.804  1.00  0.00     0.268 C 
ATOM     59  O   UNL     1      -4.647   3.220  -7.247  1.00  0.00    -0.268 OA
ATOM     60  N   UNL     1      -4.471   4.622  -9.050  1.00  0.00    -0.339 N 
ATOM     61  H   UNL     1      -4.748   5.516  -9.439  1.00  0.00     0.164 HD
BRANCH  60  62
ATOM     62  C   UNL     1      -3.583   3.756  -9.824  1.00  0.00     0.168 CG0
ATOM     63  C   UNL     1      -2.137   4.226  -9.723  1.00  0.00     0.041 C 
ATOM     64  G   UNL     1      -4.045   3.724 -11.296  1.00  0.00     0.000 G0
ENDBRANCH  60  62
ENDBRANCH  56  58
ENDBRANCH  54  56
ENDBRANCH  52  54
ENDBRANCH  51  52
ENDBRANCH  50  51
ENDBRANCH  49  50
BRANCH  49  65
ATOM     65  C   UNL     1      -6.351   6.654  -1.258  1.00  0.00     0.326 C 
ATOM     66  O   UNL     1      -5.865   7.514  -0.538  1.00  0.00    -0.250 OA
BRANCH  65  67
ATOM     67  O   UNL     1      -5.550   5.728  -1.830  1.00  0.00    -0.480 OA
ATOM     68  H   UNL     1      -5.042   6.240  -2.495  1.00  0.00     0.296 HD
ENDBRANCH  65  67
ENDBRANCH  49  65
ENDBRANCH  47  49
ENDBRANCH  43  45
ENDBRANCH   1  43
BRANCH   1  69
ATOM     69  C   UNL     1      -9.998   2.552   2.748  1.00  0.00    -0.001 C 
ATOM     70  C   UNL     1     -10.571   2.570   3.964  1.00  0.00     0.001 C 
BRANCH  70  71
ATOM     71  C   UNL     1     -11.546   1.612   4.491  1.00  0.00    -0.055 C 
ATOM     72  C   UNL     1     -11.137   0.340   4.680  1.00  0.00    -0.018 C 
ATOM     73  C   UNL     1     -12.933   2.117   4.794  1.00  0.00     0.044 C 
BRANCH  72  74
ATOM     74  C   UNL     1     -11.918  -0.854   5.210  1.00  0.00     0.038 C 
ATOM     75  C   UNL     1     -11.149  -1.397   6.420  1.00  0.00     0.015 C 
BRANCH  74  76
ATOM     76  C   UNL     1     -12.119  -1.875   4.052  1.00  0.00     0.128 C 
BRANCH  76  77
ATOM     77  O   UNL     1     -12.695  -3.089   4.563  1.00  0.00    -0.381 OA
ATOM     78  C   UNL     1     -14.089  -2.994   4.824  1.00  0.00     0.195 C 
ENDBRANCH  76  77
BRANCH  76  79
ATOM     79  C   UNL     1     -12.897  -1.306   2.839  1.00  0.00     0.068 C 
BRANCH  79  80
ATOM     80  C   UNL     1     -12.110  -0.594   1.765  1.00  0.00    -0.045 A 
ATOM     81  C   UNL     1     -12.711   0.377   0.953  1.00  0.00     0.004 A 
ATOM     82  C   UNL     1     -10.762  -0.916   1.545  1.00  0.00     0.004 A 
ATOM     83  C   UNL     1     -11.980   1.021  -0.047  1.00  0.00     0.000 A 
ATOM     84  C   UNL     1     -10.032  -0.272   0.544  1.00  0.00     0.000 A 
ATOM     85  C   UNL     1     -10.640   0.698  -0.250  1.00  0.00     0.000 A 
ENDBRANCH  79  80
ENDBRANCH  76  79
ENDBRANCH  74  76
ENDBRANCH  72  74
ENDBRANCH  70  71
ENDBRANCH   1  69
TORSDOF 17
ENDMDL
MODEL 50
REMARK VINA RESULT:    -5.702      4.668      7.519
REMARK INTER + INTRA:         -23.185
REMARK INTER:                 -17.451
REMARK INTRA:                  -5.735
REMARK UNBOUND:                -6.151
REMARK SMILES C=C1C(=O)N[C@H](C)C(=O)N[C@@H](CC(C)C)C(=O)N[C@@H](C(=O)O)[C@H](C)C(=O)N[C@@H](CCCN=C(N)N)C(=O)N[C@@H](/C=C/C(C)=C/[C@H](C)[C@H](Cc2ccccc2)OC)[C@H](C)C(=O)N[C@@H](C(=O)O)CCC(=O)N1C
REMARK SMILES IDX 39 1 38 2 37 3 36 4 28 6 27 7 25 8 26 9 23 11 24 12 19 13
REMARK SMILES IDX 18 14 16 15 17 16 11 18 10 19 8 20 9 21 12 24 13 25 14 26
REMARK SMILES IDX 15 27 20 28 21 29 22 30 29 32 30 33 31 34 32 35 33 36 34 37
REMARK SMILES IDX 35 38 57 43 58 44 59 45 60 46 61 47 62 49 66 50 67 51 68 52
REMARK SMILES IDX 69 53 70 54 71 55 2 56 1 57 3 58 4 59 5 60 6 62 7 63 63 65
REMARK SMILES IDX 64 66 65 67 40 69 41 70 42 71 44 72 43 73 45 74 46 75 47 76
REMARK SMILES IDX 55 77 56 78 48 79 49 80 50 81 54 82 51 83 53 84 52 85
REMARK H PARENT 38 5 27 10 18 17 10 22 22 31 34 39 34 40 35 41 35 42 61 48
REMARK H PARENT 5 61 65 68
REMARK Flexibility Score:  369.900
ROOT
ATOM      1  C   UNL     1       7.462   2.236   8.910  1.00  0.00     0.117 C 
ENDROOT
BRANCH   1   2
ATOM      2  N   UNL     1       8.658   1.775   9.615  1.00  0.00    -0.347 N 
ATOM      3  O   UNL     1       8.491  -0.454   9.093  1.00  0.00    -0.273 OA
ATOM      4  C   UNL     1       9.129   0.477   9.573  1.00  0.00     0.243 C 
ATOM      5  H   UNL     1       9.216   2.440  10.129  1.00  0.00     0.164 HD
BRANCH   4   6
ATOM      6  C   UNL     1      10.462   0.272  10.336  1.00  0.00     0.171 C 
BRANCH   6   7
ATOM      7  N   UNL     1      10.332  -0.816  11.317  1.00  0.00    -0.344 N 
ATOM      8  C   UNL     1      10.970  -0.743  12.537  1.00  0.00     0.226 C 
ATOM      9  O   UNL     1      11.682   0.202  12.854  1.00  0.00    -0.275 OA
ATOM     10  H   UNL     1       9.807  -1.644  11.065  1.00  0.00     0.164 HD
BRANCH   8  11
ATOM     11  C   UNL     1      10.693  -1.918  13.459  1.00  0.00     0.109 C 
ATOM     12  C   UNL     1      11.994  -2.401  14.100  1.00  0.00     0.021 C 
BRANCH  11  13
ATOM     13  C   UNL     1       9.577  -1.546  14.456  1.00  0.00     0.204 C 
BRANCH  13  14
ATOM     14  N   UNL     1       9.610  -0.126  14.816  1.00  0.00    -0.340 N 
ATOM     15  C   UNL     1       9.997   0.322  16.061  1.00  0.00     0.243 C 
ATOM     16  O   UNL     1      10.402  -0.437  16.939  1.00  0.00    -0.273 OA
ATOM     17  H   UNL     1       9.146   0.539  14.192  1.00  0.00     0.164 HD
BRANCH  15  18
ATOM     18  C   UNL     1       9.753   1.836  16.277  1.00  0.00     0.171 C 
BRANCH  18  19
ATOM     19  N   UNL     1      10.796   2.302  17.189  1.00  0.00    -0.343 N 
ATOM     20  C   UNL     1      10.533   2.579  18.517  1.00  0.00     0.242 CG0
ATOM     21  O   UNL     1       9.387   2.575  18.960  1.00  0.00    -0.273 OA
ATOM     22  H   UNL     1      11.739   2.432  16.841  1.00  0.00     0.164 HD
ATOM     23  G   UNL     1      11.773   2.982  19.341  1.00  0.00     0.000 G0
ENDBRANCH  18  19
BRANCH  18  24
ATOM     24  C   UNL     1       9.798   2.588  14.942  1.00  0.00     0.038 C 
BRANCH  24  25
ATOM     25  C   UNL     1       8.426   3.076  14.431  1.00  0.00    -0.015 C 
ATOM     26  C   UNL     1       8.141   2.627  12.997  1.00  0.00     0.007 C 
ATOM     27  C   UNL     1       8.358   4.603  14.516  1.00  0.00     0.007 C 
ENDBRANCH  24  25
ENDBRANCH  18  24
ENDBRANCH  15  18
ENDBRANCH  13  14
BRANCH  13  28
ATOM     28  C   UNL     1       8.171  -1.849  13.929  1.00  0.00     0.327 C 
ATOM     29  O   UNL     1       7.351  -1.028  13.545  1.00  0.00    -0.250 OA
BRANCH  28  30
ATOM     30  O   UNL     1       7.838  -3.152  14.028  1.00  0.00    -0.480 OA
ATOM     31  H   UNL     1       8.266  -3.569  13.251  1.00  0.00     0.296 HD
ENDBRANCH  28  30
ENDBRANCH  13  28
ENDBRANCH  11  13
ENDBRANCH   8  11
ENDBRANCH   6   7
BRANCH   6  32
ATOM     32  C   UNL     1      11.577  -0.030   9.328  1.00  0.00     0.037 C 
BRANCH  32  33
ATOM     33  C   UNL     1      11.185   0.361   7.896  1.00  0.00     0.026 C 
BRANCH  33  34
ATOM     34  C   UNL     1      11.449  -0.760   6.891  1.00  0.00     0.146 C 
BRANCH  34  35
ATOM     35  N   UNL     1      10.248  -0.969   6.094  1.00  0.00    -0.254 NA
ATOM     36  C   UNL     1       9.475  -1.946   6.393  1.00  0.00     0.185 C 
ATOM     37  N   UNL     1       8.363  -2.144   5.669  1.00  0.00    -0.370 N 
ATOM     38  N   UNL     1       9.605  -2.857   7.373  1.00  0.00    -0.370 N 
ATOM     39  H   UNL     1       8.188  -1.491   4.916  1.00  0.00     0.159 HD
ATOM     40  H   UNL     1       7.625  -2.771   5.942  1.00  0.00     0.159 HD
ATOM     41  H   UNL     1       9.002  -3.662   7.419  1.00  0.00     0.159 HD
ATOM     42  H   UNL     1      10.405  -2.839   7.987  1.00  0.00     0.159 HD
ENDBRANCH  34  35
ENDBRANCH  33  34
ENDBRANCH  32  33
ENDBRANCH   6  32
ENDBRANCH   4   6
ENDBRANCH   1   2
BRANCH   1  43
ATOM     43  C   UNL     1       7.825   3.515   8.101  1.00  0.00     0.102 C 
ATOM     44  C   UNL     1       9.202   4.097   8.463  1.00  0.00     0.020 C 
BRANCH  43  45
ATOM     45  C   UNL     1       6.686   4.537   8.148  1.00  0.00     0.225 C 
ATOM     46  O   UNL     1       6.561   5.361   9.049  1.00  0.00    -0.275 OA
ATOM     47  N   UNL     1       5.741   4.418   7.154  1.00  0.00    -0.342 N 
ATOM     48  H   UNL     1       5.936   3.844   6.346  1.00  0.00     0.164 HD
BRANCH  47  49
ATOM     49  C   UNL     1       4.614   5.349   7.052  1.00  0.00     0.192 C 
BRANCH  49  50
ATOM     50  C   UNL     1       5.140   6.773   6.852  1.00  0.00     0.047 C 
BRANCH  50  51
ATOM     51  C   UNL     1       6.086   6.880   5.648  1.00  0.00     0.103 C 
BRANCH  51  52
ATOM     52  C   UNL     1       7.101   8.009   5.815  1.00  0.00     0.226 C 
ATOM     53  O   UNL     1       8.217   7.764   6.277  1.00  0.00    -0.275 OA
BRANCH  52  54
ATOM     54  N   UNL     1       6.710   9.278   5.346  1.00  0.00    -0.311 N 
ATOM     55  C   UNL     1       6.497  10.395   6.276  1.00  0.00     0.153 C 
BRANCH  54  56
ATOM     56  C   UNL     1       6.515   9.524   3.977  1.00  0.00     0.102 C 
ATOM     57  C   UNL     1       7.498   9.647   3.071  1.00  0.00     0.043 C 
BRANCH  56  58
ATOM     58  C   UNL     1       5.123   9.629   3.399  1.00  0.00     0.268 C 
ATOM     59  O   UNL     1       4.401  10.602   3.564  1.00  0.00    -0.268 OA
ATOM     60  N   UNL     1       4.780   8.551   2.618  1.00  0.00    -0.339 N 
ATOM     61  H   UNL     1       5.432   7.779   2.540  1.00  0.00     0.164 HD
BRANCH  60  62
ATOM     62  C   UNL     1       3.502   8.476   1.911  1.00  0.00     0.168 CG0
ATOM     63  C   UNL     1       2.508   7.606   2.670  1.00  0.00     0.041 C 
ATOM     64  G   UNL     1       3.730   7.930   0.487  1.00  0.00     0.000 G0
ENDBRANCH  60  62
ENDBRANCH  56  58
ENDBRANCH  54  56
ENDBRANCH  52  54
ENDBRANCH  51  52
ENDBRANCH  50  51
ENDBRANCH  49  50
BRANCH  49  65
ATOM     65  C   UNL     1       3.728   5.306   8.307  1.00  0.00     0.326 C 
ATOM     66  O   UNL     1       3.067   4.347   8.678  1.00  0.00    -0.250 OA
BRANCH  65  67
ATOM     67  O   UNL     1       3.665   6.468   8.993  1.00  0.00    -0.480 OA
ATOM     68  H   UNL     1       2.742   6.490   9.327  1.00  0.00     0.296 HD
ENDBRANCH  65  67
ENDBRANCH  49  65
ENDBRANCH  47  49
ENDBRANCH  43  45
ENDBRANCH   1  43
BRANCH   1  69
ATOM     69  C   UNL     1       6.360   2.314   9.951  1.00  0.00    -0.001 C 
ATOM     70  C   UNL     1       5.219   1.604   9.987  1.00  0.00     0.001 C 
BRANCH  70  71
ATOM     71  C   UNL     1       4.172   1.674  11.009  1.00  0.00    -0.055 C 
ATOM     72  C   UNL     1       4.558   1.674  12.303  1.00  0.00    -0.018 C 
ATOM     73  C   UNL     1       2.741   1.748  10.545  1.00  0.00     0.044 C 
BRANCH  72  74
ATOM     74  C   UNL     1       3.705   1.740  13.562  1.00  0.00     0.038 C 
ATOM     75  C   UNL     1       4.553   2.411  14.649  1.00  0.00     0.015 C 
BRANCH  74  76
ATOM     76  C   UNL     1       3.214   0.304  13.911  1.00  0.00     0.128 C 
BRANCH  76  77
ATOM     77  O   UNL     1       3.490   0.013  15.291  1.00  0.00    -0.381 OA
ATOM     78  C   UNL     1       4.354  -1.100  15.479  1.00  0.00     0.195 C 
ENDBRANCH  76  77
BRANCH  76  79
ATOM     79  C   UNL     1       1.739   0.031  13.523  1.00  0.00     0.068 C 
BRANCH  79  80
ATOM     80  C   UNL     1       1.260  -1.401  13.527  1.00  0.00    -0.045 A 
ATOM     81  C   UNL     1       0.109  -1.775  14.233  1.00  0.00     0.004 A 
ATOM     82  C   UNL     1       1.982  -2.389  12.841  1.00  0.00     0.004 A 
ATOM     83  C   UNL     1      -0.319  -3.104  14.243  1.00  0.00     0.000 A 
ATOM     84  C   UNL     1       1.553  -3.718  12.853  1.00  0.00     0.000 A 
ATOM     85  C   UNL     1       0.402  -4.075  13.551  1.00  0.00     0.000 A 
ENDBRANCH  79  80
ENDBRANCH  76  79
ENDBRANCH  74  76
ENDBRANCH  72  74
ENDBRANCH  70  71
ENDBRANCH   1  69
TORSDOF 17
ENDMDL
