MODEL 1
REMARK VINA RESULT:    -6.637      0.000      0.000
REMARK INTER + INTRA:         -22.023
REMARK INTER:                 -16.532
REMARK INTRA:                  -5.490
REMARK UNBOUND:                -5.490
REMARK SMILES CCCCCCC[C@H](N)[C@H](O)C(=O)N[C@H](C)C(=O)N(C)[C@H](CC(C)C)C(=O)N[C@@H](Cc1ccc(O)cc1)C(=O)N[C@@H](Cc1ccc(O)cc1)C(=O)O
REMARK SMILES IDX 18 1 17 2 15 3 16 4 14 5 12 6 13 7 10 9 11 10 8 12 9 13 7 16
REMARK SMILES IDX 6 17 5 18 4 19 3 20 2 21 1 22 19 23 20 24 21 25 22 26 23 27
REMARK SMILES IDX 24 28 25 29 26 30 27 31 28 32 29 34 30 35 31 36 32 37 37 38
REMARK SMILES IDX 33 39 36 40 34 41 35 42 38 44 39 45 40 46 41 48 42 49 43 50
REMARK SMILES IDX 44 51 49 52 45 53 48 54 46 55 47 56 50 58 51 59 52 60
REMARK H PARENT 14 8 11 11 9 14 9 15 28 33 35 43 40 47 47 57 52 61
ROOT
ATOM      1  O   UNL     1      -8.956   2.851  -6.857  1.00  0.00    -0.272 OA
ATOM      2  C   UNL     1      -8.616   2.861  -5.664  1.00  0.00     0.245 C 
ENDROOT
BRANCH   2   3
ATOM      3  C   UNL     1      -8.921   4.122  -4.818  1.00  0.00     0.168 C 
ATOM      4  C   UNL     1     -10.367   4.113  -4.334  1.00  0.00     0.041 C 
BRANCH   3   5
ATOM      5  N   UNL     1      -7.988   4.369  -3.730  1.00  0.00    -0.342 N 
ATOM      6  C   UNL     1      -7.170   5.479  -3.710  1.00  0.00     0.251 C 
ATOM      7  O   UNL     1      -7.135   6.310  -4.611  1.00  0.00    -0.272 OA
ATOM      8  H   UNL     1      -7.901   3.731  -2.942  1.00  0.00     0.164 HD
BRANCH   6   9
ATOM      9  C   UNL     1      -6.374   5.607  -2.402  1.00  0.00     0.219 C 
BRANCH   9  10
ATOM     10  O   UNL     1      -7.185   5.400  -1.239  1.00  0.00    -0.382 OA
ATOM     11  H   UNL     1      -7.419   6.312  -0.955  1.00  0.00     0.211 HD
ENDBRANCH   9  10
BRANCH   9  12
ATOM     12  C   UNL     1      -5.115   4.701  -2.363  1.00  0.00     0.089 C 
BRANCH  12  13
ATOM     13  N   UNL     1      -5.556   3.288  -2.360  1.00  0.00    -0.325 NA
ATOM     14  H   UNL     1      -4.909   2.733  -2.923  1.00  0.00     0.119 HD
ATOM     15  H   UNL     1      -6.455   3.221  -2.844  1.00  0.00     0.119 HD
ENDBRANCH  12  13
BRANCH  12  16
ATOM     16  C   UNL     1      -4.079   4.932  -3.490  1.00  0.00     0.022 C 
BRANCH  16  17
ATOM     17  C   UNL     1      -2.595   5.073  -3.122  1.00  0.00     0.002 C 
BRANCH  17  18
ATOM     18  C   UNL     1      -1.814   6.076  -3.968  1.00  0.00     0.000 C 
BRANCH  18  19
ATOM     19  C   UNL     1      -0.573   5.485  -4.651  1.00  0.00    -0.000 C 
BRANCH  19  20
ATOM     20  C   UNL     1      -0.588   3.963  -4.820  1.00  0.00    -0.000 C 
BRANCH  20  21
ATOM     21  C   UNL     1      -0.091   3.509  -6.195  1.00  0.00    -0.003 C 
ATOM     22  C   UNL     1      -0.244   4.610  -7.232  1.00  0.00     0.004 C 
ENDBRANCH  20  21
ENDBRANCH  19  20
ENDBRANCH  18  19
ENDBRANCH  17  18
ENDBRANCH  16  17
ENDBRANCH  12  16
ENDBRANCH   9  12
ENDBRANCH   6   9
ENDBRANCH   3   5
ENDBRANCH   2   3
BRANCH   2  23
ATOM     23  N   UNL     1      -8.086   1.715  -5.082  1.00  0.00    -0.332 N 
ATOM     24  C   UNL     1      -8.852   0.756  -4.300  1.00  0.00     0.147 C 
BRANCH  23  25
ATOM     25  C   UNL     1      -6.674   1.324  -5.344  1.00  0.00     0.174 C 
BRANCH  25  26
ATOM     26  C   UNL     1      -5.775   2.526  -5.714  1.00  0.00     0.038 C 
BRANCH  26  27
ATOM     27  C   UNL     1      -4.317   2.212  -6.120  1.00  0.00    -0.015 C 
ATOM     28  C   UNL     1      -3.616   3.412  -6.755  1.00  0.00     0.007 C 
ATOM     29  C   UNL     1      -3.479   1.642  -4.979  1.00  0.00     0.007 C 
ENDBRANCH  26  27
ENDBRANCH  25  26
BRANCH  25  30
ATOM     30  C   UNL     1      -6.623   0.170  -6.372  1.00  0.00     0.243 C 
ATOM     31  O   UNL     1      -7.054   0.300  -7.517  1.00  0.00    -0.273 OA
ATOM     32  N   UNL     1      -6.074  -1.003  -5.920  1.00  0.00    -0.342 N 
ATOM     33  H   UNL     1      -5.612  -0.989  -5.007  1.00  0.00     0.164 HD
BRANCH  32  34
ATOM     34  C   UNL     1      -5.969  -2.209  -6.746  1.00  0.00     0.175 C 
BRANCH  34  35
ATOM     35  C   UNL     1      -7.296  -2.518  -7.455  1.00  0.00     0.070 C 
BRANCH  35  36
ATOM     36  C   UNL     1      -8.254  -3.304  -6.588  1.00  0.00    -0.045 A 
ATOM     37  C   UNL     1      -7.971  -4.639  -6.262  1.00  0.00     0.007 A 
ATOM     38  C   UNL     1      -9.439  -2.724  -6.118  1.00  0.00     0.007 A 
ATOM     39  C   UNL     1      -8.855  -5.376  -5.473  1.00  0.00     0.046 A 
ATOM     40  C   UNL     1     -10.326  -3.461  -5.330  1.00  0.00     0.046 A 
ATOM     41  C   UNL     1     -10.024  -4.782  -5.013  1.00  0.00     0.115 A 
BRANCH  41  42
ATOM     42  O   UNL     1     -10.863  -5.537  -4.248  1.00  0.00    -0.508 OA
ATOM     43  H   UNL     1     -10.528  -6.450  -4.240  1.00  0.00     0.293 HD
ENDBRANCH  41  42
ENDBRANCH  35  36
ENDBRANCH  34  35
BRANCH  34  44
ATOM     44  C   UNL     1      -4.812  -2.002  -7.750  1.00  0.00     0.243 C 
ATOM     45  O   UNL     1      -4.912  -2.156  -8.964  1.00  0.00    -0.273 OA
ATOM     46  N   UNL     1      -3.599  -1.749  -7.145  1.00  0.00    -0.341 N 
ATOM     47  H   UNL     1      -3.545  -1.746  -6.130  1.00  0.00     0.164 HD
BRANCH  46  48
ATOM     48  C   UNL     1      -2.347  -1.585  -7.888  1.00  0.00     0.196 C 
BRANCH  48  49
ATOM     49  C   UNL     1      -1.713  -0.210  -7.620  1.00  0.00     0.072 C 
BRANCH  49  50
ATOM     50  C   UNL     1      -1.909   0.754  -8.767  1.00  0.00    -0.045 A 
ATOM     51  C   UNL     1      -0.837   1.545  -9.206  1.00  0.00     0.007 A 
ATOM     52  C   UNL     1      -3.156   0.889  -9.391  1.00  0.00     0.007 A 
ATOM     53  C   UNL     1      -1.009   2.448 -10.256  1.00  0.00     0.046 A 
ATOM     54  C   UNL     1      -3.328   1.794 -10.441  1.00  0.00     0.046 A 
ATOM     55  C   UNL     1      -2.252   2.566 -10.865  1.00  0.00     0.115 A 
BRANCH  55  56
ATOM     56  O   UNL     1      -2.379   3.461 -11.885  1.00  0.00    -0.508 OA
ATOM     57  H   UNL     1      -1.592   3.395 -12.450  1.00  0.00     0.293 HD
ENDBRANCH  55  56
ENDBRANCH  49  50
ENDBRANCH  48  49
BRANCH  48  58
ATOM     58  C   UNL     1      -1.371  -2.693  -7.469  1.00  0.00     0.326 C 
ATOM     59  O   UNL     1      -0.193  -2.794  -7.774  1.00  0.00    -0.250 OA
BRANCH  58  60
ATOM     60  O   UNL     1      -1.928  -3.630  -6.661  1.00  0.00    -0.480 OA
ATOM     61  H   UNL     1      -1.762  -3.278  -5.760  1.00  0.00     0.296 HD
ENDBRANCH  58  60
ENDBRANCH  48  58
ENDBRANCH  46  48
ENDBRANCH  34  44
ENDBRANCH  32  34
ENDBRANCH  25  30
ENDBRANCH  23  25
ENDBRANCH   2  23
TORSDOF 28
ENDMDL
MODEL 2
REMARK VINA RESULT:    -6.553      2.527      8.199
REMARK INTER + INTRA:         -21.812
REMARK INTER:                 -16.937
REMARK INTRA:                  -4.874
REMARK UNBOUND:                -5.490
REMARK SMILES CCCCCCC[C@H](N)[C@H](O)C(=O)N[C@H](C)C(=O)N(C)[C@H](CC(C)C)C(=O)N[C@@H](Cc1ccc(O)cc1)C(=O)N[C@@H](Cc1ccc(O)cc1)C(=O)O
REMARK SMILES IDX 18 1 17 2 15 3 16 4 14 5 12 6 13 7 10 9 11 10 8 12 9 13 7 16
REMARK SMILES IDX 6 17 5 18 4 19 3 20 2 21 1 22 19 23 20 24 21 25 22 26 23 27
REMARK SMILES IDX 24 28 25 29 26 30 27 31 28 32 29 34 30 35 31 36 32 37 37 38
REMARK SMILES IDX 33 39 36 40 34 41 35 42 38 44 39 45 40 46 41 48 42 49 43 50
REMARK SMILES IDX 44 51 49 52 45 53 48 54 46 55 47 56 50 58 51 59 52 60
REMARK H PARENT 14 8 11 11 9 14 9 15 28 33 35 43 40 47 47 57 52 61
ROOT
ATOM      1  O   UNL     1      -6.233   0.915  -9.408  1.00  0.00    -0.272 OA
ATOM      2  C   UNL     1      -6.763   0.037  -8.711  1.00  0.00     0.245 C 
ENDROOT
BRANCH   2   3
ATOM      3  C   UNL     1      -6.434  -1.447  -9.010  1.00  0.00     0.168 C 
ATOM      4  C   UNL     1      -5.197  -1.560  -9.893  1.00  0.00     0.041 C 
BRANCH   3   5
ATOM      5  N   UNL     1      -6.342  -2.301  -7.836  1.00  0.00    -0.342 N 
ATOM      6  C   UNL     1      -7.228  -3.334  -7.616  1.00  0.00     0.251 C 
ATOM      7  O   UNL     1      -8.172  -3.585  -8.357  1.00  0.00    -0.272 OA
ATOM      8  H   UNL     1      -5.620  -2.167  -7.131  1.00  0.00     0.164 HD
BRANCH   6   9
ATOM      9  C   UNL     1      -6.853  -4.187  -6.393  1.00  0.00     0.219 C 
BRANCH   9  10
ATOM     10  O   UNL     1      -5.438  -4.361  -6.252  1.00  0.00    -0.382 OA
ATOM     11  H   UNL     1      -5.070  -3.902  -7.039  1.00  0.00     0.211 HD
ENDBRANCH   9  10
BRANCH   9  12
ATOM     12  C   UNL     1      -7.478  -3.666  -5.072  1.00  0.00     0.089 C 
BRANCH  12  13
ATOM     13  N   UNL     1      -7.169  -2.224  -4.946  1.00  0.00    -0.325 NA
ATOM     14  H   UNL     1      -7.922  -1.680  -5.372  1.00  0.00     0.119 HD
ATOM     15  H   UNL     1      -6.339  -2.013  -5.506  1.00  0.00     0.119 HD
ENDBRANCH  12  13
BRANCH  12  16
ATOM     16  C   UNL     1      -8.999  -3.901  -4.903  1.00  0.00     0.022 C 
BRANCH  16  17
ATOM     17  C   UNL     1      -9.616  -5.205  -5.427  1.00  0.00     0.002 C 
BRANCH  17  18
ATOM     18  C   UNL     1      -9.195  -6.465  -4.676  1.00  0.00     0.000 C 
BRANCH  18  19
ATOM     19  C   UNL     1     -10.095  -6.811  -3.482  1.00  0.00    -0.000 C 
BRANCH  19  20
ATOM     20  C   UNL     1      -9.475  -6.556  -2.105  1.00  0.00    -0.000 C 
BRANCH  20  21
ATOM     21  C   UNL     1      -8.509  -7.661  -1.668  1.00  0.00    -0.003 C 
ATOM     22  C   UNL     1      -7.356  -7.098  -0.852  1.00  0.00     0.004 C 
ENDBRANCH  20  21
ENDBRANCH  19  20
ENDBRANCH  18  19
ENDBRANCH  17  18
ENDBRANCH  16  17
ENDBRANCH  12  16
ENDBRANCH   9  12
ENDBRANCH   6   9
ENDBRANCH   3   5
ENDBRANCH   2   3
BRANCH   2  23
ATOM     23  N   UNL     1      -7.536   0.396  -7.611  1.00  0.00    -0.332 N 
ATOM     24  C   UNL     1      -8.918  -0.012  -7.405  1.00  0.00     0.147 C 
BRANCH  23  25
ATOM     25  C   UNL     1      -6.927   1.143  -6.477  1.00  0.00     0.174 C 
BRANCH  25  26
ATOM     26  C   UNL     1      -7.122   2.673  -6.589  1.00  0.00     0.038 C 
BRANCH  26  27
ATOM     27  C   UNL     1      -7.441   3.436  -5.284  1.00  0.00    -0.015 C 
ATOM     28  C   UNL     1      -6.187   4.000  -4.616  1.00  0.00     0.007 C 
ATOM     29  C   UNL     1      -8.493   4.528  -5.460  1.00  0.00     0.007 C 
ENDBRANCH  26  27
ENDBRANCH  25  26
BRANCH  25  30
ATOM     30  C   UNL     1      -5.453   0.716  -6.289  1.00  0.00     0.243 C 
ATOM     31  O   UNL     1      -5.146  -0.327  -5.713  1.00  0.00    -0.273 OA
ATOM     32  N   UNL     1      -4.516   1.577  -6.800  1.00  0.00    -0.342 N 
ATOM     33  H   UNL     1      -4.850   2.347  -7.386  1.00  0.00     0.164 HD
BRANCH  32  34
ATOM     34  C   UNL     1      -3.073   1.349  -6.691  1.00  0.00     0.175 C 
BRANCH  34  35
ATOM     35  C   UNL     1      -2.400   1.360  -8.072  1.00  0.00     0.070 C 
BRANCH  35  36
ATOM     36  C   UNL     1      -1.886  -0.002  -8.483  1.00  0.00    -0.045 A 
ATOM     37  C   UNL     1      -1.785  -1.029  -7.533  1.00  0.00     0.007 A 
ATOM     38  C   UNL     1      -1.484  -0.251  -9.802  1.00  0.00     0.007 A 
ATOM     39  C   UNL     1      -1.299  -2.285  -7.899  1.00  0.00     0.046 A 
ATOM     40  C   UNL     1      -0.996  -1.507 -10.169  1.00  0.00     0.046 A 
ATOM     41  C   UNL     1      -0.910  -2.514  -9.213  1.00  0.00     0.115 A 
BRANCH  41  42
ATOM     42  O   UNL     1      -0.438  -3.754  -9.529  1.00  0.00    -0.508 OA
ATOM     43  H   UNL     1       0.456  -3.655  -9.899  1.00  0.00     0.293 HD
ENDBRANCH  41  42
ENDBRANCH  35  36
ENDBRANCH  34  35
BRANCH  34  44
ATOM     44  C   UNL     1      -2.487   2.430  -5.755  1.00  0.00     0.243 C 
ATOM     45  O   UNL     1      -2.714   2.501  -4.550  1.00  0.00    -0.273 OA
ATOM     46  N   UNL     1      -1.776   3.406  -6.420  1.00  0.00    -0.341 N 
ATOM     47  H   UNL     1      -1.714   3.367  -7.435  1.00  0.00     0.164 HD
BRANCH  46  48
ATOM     48  C   UNL     1      -1.184   4.568  -5.753  1.00  0.00     0.196 C 
BRANCH  48  49
ATOM     49  C   UNL     1      -0.290   5.370  -6.714  1.00  0.00     0.072 C 
BRANCH  49  50
ATOM     50  C   UNL     1      -0.068   4.661  -8.031  1.00  0.00    -0.045 A 
ATOM     51  C   UNL     1      -0.842   5.004  -9.149  1.00  0.00     0.007 A 
ATOM     52  C   UNL     1       0.889   3.645  -8.150  1.00  0.00     0.007 A 
ATOM     53  C   UNL     1      -0.656   4.347 -10.365  1.00  0.00     0.046 A 
ATOM     54  C   UNL     1       1.075   2.987  -9.368  1.00  0.00     0.046 A 
ATOM     55  C   UNL     1       0.301   3.345 -10.466  1.00  0.00     0.115 A 
BRANCH  55  56
ATOM     56  O   UNL     1       0.451   2.727 -11.672  1.00  0.00    -0.508 OA
ATOM     57  H   UNL     1       0.954   3.315 -12.257  1.00  0.00     0.293 HD
ENDBRANCH  55  56
ENDBRANCH  49  50
ENDBRANCH  48  49
BRANCH  48  58
ATOM     58  C   UNL     1      -2.310   5.467  -5.226  1.00  0.00     0.326 C 
ATOM     59  O   UNL     1      -3.368   5.727  -5.776  1.00  0.00    -0.250 OA
BRANCH  58  60
ATOM     60  O   UNL     1      -2.053   5.995  -4.002  1.00  0.00    -0.480 OA
ATOM     61  H   UNL     1      -1.307   5.449  -3.673  1.00  0.00     0.296 HD
ENDBRANCH  58  60
ENDBRANCH  48  58
ENDBRANCH  46  48
ENDBRANCH  34  44
ENDBRANCH  32  34
ENDBRANCH  25  30
ENDBRANCH  23  25
ENDBRANCH   2  23
TORSDOF 28
ENDMDL
MODEL 3
REMARK VINA RESULT:    -6.503      2.475      8.490
REMARK INTER + INTRA:         -21.686
REMARK INTER:                 -16.563
REMARK INTRA:                  -5.123
REMARK UNBOUND:                -5.490
REMARK SMILES CCCCCCC[C@H](N)[C@H](O)C(=O)N[C@H](C)C(=O)N(C)[C@H](CC(C)C)C(=O)N[C@@H](Cc1ccc(O)cc1)C(=O)N[C@@H](Cc1ccc(O)cc1)C(=O)O
REMARK SMILES IDX 18 1 17 2 15 3 16 4 14 5 12 6 13 7 10 9 11 10 8 12 9 13 7 16
REMARK SMILES IDX 6 17 5 18 4 19 3 20 2 21 1 22 19 23 20 24 21 25 22 26 23 27
REMARK SMILES IDX 24 28 25 29 26 30 27 31 28 32 29 34 30 35 31 36 32 37 37 38
REMARK SMILES IDX 33 39 36 40 34 41 35 42 38 44 39 45 40 46 41 48 42 49 43 50
REMARK SMILES IDX 44 51 49 52 45 53 48 54 46 55 47 56 50 58 51 59 52 60
REMARK H PARENT 14 8 11 11 9 14 9 15 28 33 35 43 40 47 47 57 52 61
ROOT
ATOM      1  O   UNL     1      -8.204   1.011  -8.047  1.00  0.00    -0.272 OA
ATOM      2  C   UNL     1      -8.635   0.070  -7.364  1.00  0.00     0.245 C 
ENDROOT
BRANCH   2   3
ATOM      3  C   UNL     1      -8.466  -1.373  -7.901  1.00  0.00     0.168 C 
ATOM      4  C   UNL     1      -7.652  -1.379  -9.190  1.00  0.00     0.041 C 
BRANCH   3   5
ATOM      5  N   UNL     1      -7.954  -2.329  -6.932  1.00  0.00    -0.342 N 
ATOM      6  C   UNL     1      -8.356  -3.648  -6.928  1.00  0.00     0.251 C 
ATOM      7  O   UNL     1      -9.194  -4.102  -7.700  1.00  0.00    -0.272 OA
ATOM      8  H   UNL     1      -7.279  -2.061  -6.219  1.00  0.00     0.164 HD
BRANCH   6   9
ATOM      9  C   UNL     1      -7.581  -4.503  -5.912  1.00  0.00     0.219 C 
BRANCH   9  10
ATOM     10  O   UNL     1      -6.161  -4.392  -6.067  1.00  0.00    -0.382 OA
ATOM     11  H   UNL     1      -5.806  -4.841  -5.268  1.00  0.00     0.211 HD
ENDBRANCH   9  10
BRANCH   9  12
ATOM     12  C   UNL     1      -7.997  -4.231  -4.443  1.00  0.00     0.089 C 
BRANCH  12  13
ATOM     13  N   UNL     1      -7.308  -3.005  -3.981  1.00  0.00    -0.325 NA
ATOM     14  H   UNL     1      -7.853  -2.187  -4.262  1.00  0.00     0.119 HD
ATOM     15  H   UNL     1      -6.419  -2.917  -4.480  1.00  0.00     0.119 HD
ENDBRANCH  12  13
BRANCH  12  16
ATOM     16  C   UNL     1      -9.518  -4.118  -4.180  1.00  0.00     0.022 C 
BRANCH  16  17
ATOM     17  C   UNL     1     -10.411  -5.344  -4.417  1.00  0.00     0.002 C 
BRANCH  17  18
ATOM     18  C   UNL     1     -10.506  -6.309  -3.238  1.00  0.00     0.000 C 
BRANCH  18  19
ATOM     19  C   UNL     1      -9.625  -7.558  -3.379  1.00  0.00    -0.000 C 
BRANCH  19  20
ATOM     20  C   UNL     1      -8.839  -7.945  -2.123  1.00  0.00    -0.000 C 
BRANCH  20  21
ATOM     21  C   UNL     1      -8.278  -6.735  -1.371  1.00  0.00    -0.003 C 
ATOM     22  C   UNL     1      -8.819  -6.666   0.049  1.00  0.00     0.004 C 
ENDBRANCH  20  21
ENDBRANCH  19  20
ENDBRANCH  18  19
ENDBRANCH  17  18
ENDBRANCH  16  17
ENDBRANCH  12  16
ENDBRANCH   9  12
ENDBRANCH   6   9
ENDBRANCH   3   5
ENDBRANCH   2   3
BRANCH   2  23
ATOM     23  N   UNL     1      -9.145   0.310  -6.092  1.00  0.00    -0.332 N 
ATOM     24  C   UNL     1     -10.542   0.147  -5.718  1.00  0.00     0.147 C 
BRANCH  23  25
ATOM     25  C   UNL     1      -8.229   0.638  -4.966  1.00  0.00     0.174 C 
BRANCH  25  26
ATOM     26  C   UNL     1      -8.468   2.053  -4.388  1.00  0.00     0.038 C 
BRANCH  26  27
ATOM     27  C   UNL     1      -8.380   2.206  -2.853  1.00  0.00    -0.015 C 
ATOM     28  C   UNL     1      -8.975   1.010  -2.111  1.00  0.00     0.007 C 
ATOM     29  C   UNL     1      -6.968   2.500  -2.353  1.00  0.00     0.007 C 
ENDBRANCH  26  27
ENDBRANCH  25  26
BRANCH  25  30
ATOM     30  C   UNL     1      -6.762   0.375  -5.378  1.00  0.00     0.243 C 
ATOM     31  O   UNL     1      -6.247  -0.737  -5.274  1.00  0.00    -0.273 OA
ATOM     32  N   UNL     1      -6.078   1.461  -5.859  1.00  0.00    -0.342 N 
ATOM     33  H   UNL     1      -6.613   2.313  -6.048  1.00  0.00     0.164 HD
BRANCH  32  34
ATOM     34  C   UNL     1      -4.673   1.405  -6.272  1.00  0.00     0.175 C 
BRANCH  34  35
ATOM     35  C   UNL     1      -4.435   2.215  -7.556  1.00  0.00     0.070 C 
BRANCH  35  36
ATOM     36  C   UNL     1      -3.229   1.737  -8.333  1.00  0.00    -0.045 A 
ATOM     37  C   UNL     1      -2.721   2.512  -9.387  1.00  0.00     0.007 A 
ATOM     38  C   UNL     1      -2.618   0.513  -8.032  1.00  0.00     0.007 A 
ATOM     39  C   UNL     1      -1.617   2.073 -10.119  1.00  0.00     0.046 A 
ATOM     40  C   UNL     1      -1.514   0.072  -8.766  1.00  0.00     0.046 A 
ATOM     41  C   UNL     1      -1.022   0.858  -9.803  1.00  0.00     0.115 A 
BRANCH  41  42
ATOM     42  O   UNL     1       0.052   0.464 -10.544  1.00  0.00    -0.508 OA
ATOM     43  H   UNL     1       0.740   0.145  -9.937  1.00  0.00     0.293 HD
ENDBRANCH  41  42
ENDBRANCH  35  36
ENDBRANCH  34  35
BRANCH  34  44
ATOM     44  C   UNL     1      -3.808   1.916  -5.098  1.00  0.00     0.243 C 
ATOM     45  O   UNL     1      -3.496   1.242  -4.121  1.00  0.00    -0.273 OA
ATOM     46  N   UNL     1      -3.516   3.262  -5.177  1.00  0.00    -0.341 N 
ATOM     47  H   UNL     1      -3.897   3.805  -5.948  1.00  0.00     0.164 HD
BRANCH  46  48
ATOM     48  C   UNL     1      -2.768   3.986  -4.147  1.00  0.00     0.196 C 
BRANCH  48  49
ATOM     49  C   UNL     1      -1.781   4.986  -4.771  1.00  0.00     0.072 C 
BRANCH  49  50
ATOM     50  C   UNL     1      -0.869   4.344  -5.791  1.00  0.00    -0.045 A 
ATOM     51  C   UNL     1      -0.552   5.027  -6.974  1.00  0.00     0.007 A 
ATOM     52  C   UNL     1      -0.347   3.060  -5.585  1.00  0.00     0.007 A 
ATOM     53  C   UNL     1       0.278   4.439  -7.929  1.00  0.00     0.046 A 
ATOM     54  C   UNL     1       0.483   2.471  -6.542  1.00  0.00     0.046 A 
ATOM     55  C   UNL     1       0.789   3.167  -7.706  1.00  0.00     0.115 A 
BRANCH  55  56
ATOM     56  O   UNL     1       1.594   2.627  -8.665  1.00  0.00    -0.508 OA
ATOM     57  H   UNL     1       1.116   1.897  -9.091  1.00  0.00     0.293 HD
ENDBRANCH  55  56
ENDBRANCH  49  50
ENDBRANCH  48  49
BRANCH  48  58
ATOM     58  C   UNL     1      -3.758   4.735  -3.244  1.00  0.00     0.326 C 
ATOM     59  O   UNL     1      -4.867   5.147  -3.545  1.00  0.00    -0.250 OA
BRANCH  58  60
ATOM     60  O   UNL     1      -3.304   4.920  -1.979  1.00  0.00    -0.480 OA
ATOM     61  H   UNL     1      -4.121   4.869  -1.436  1.00  0.00     0.296 HD
ENDBRANCH  58  60
ENDBRANCH  48  58
ENDBRANCH  46  48
ENDBRANCH  34  44
ENDBRANCH  32  34
ENDBRANCH  25  30
ENDBRANCH  23  25
ENDBRANCH   2  23
TORSDOF 28
ENDMDL
MODEL 4
REMARK VINA RESULT:    -6.470      2.407      7.890
REMARK INTER + INTRA:         -21.605
REMARK INTER:                 -15.256
REMARK INTRA:                  -6.349
REMARK UNBOUND:                -5.490
REMARK SMILES CCCCCCC[C@H](N)[C@H](O)C(=O)N[C@H](C)C(=O)N(C)[C@H](CC(C)C)C(=O)N[C@@H](Cc1ccc(O)cc1)C(=O)N[C@@H](Cc1ccc(O)cc1)C(=O)O
REMARK SMILES IDX 18 1 17 2 15 3 16 4 14 5 12 6 13 7 10 9 11 10 8 12 9 13 7 16
REMARK SMILES IDX 6 17 5 18 4 19 3 20 2 21 1 22 19 23 20 24 21 25 22 26 23 27
REMARK SMILES IDX 24 28 25 29 26 30 27 31 28 32 29 34 30 35 31 36 32 37 37 38
REMARK SMILES IDX 33 39 36 40 34 41 35 42 38 44 39 45 40 46 41 48 42 49 43 50
REMARK SMILES IDX 44 51 49 52 45 53 48 54 46 55 47 56 50 58 51 59 52 60
REMARK H PARENT 14 8 11 11 9 14 9 15 28 33 35 43 40 47 47 57 52 61
ROOT
ATOM      1  O   UNL     1     -11.991  -2.234  -6.063  1.00  0.00    -0.272 OA
ATOM      2  C   UNL     1     -10.759  -2.096  -6.058  1.00  0.00     0.245 C 
ENDROOT
BRANCH   2   3
ATOM      3  C   UNL     1      -9.875  -3.324  -6.391  1.00  0.00     0.168 C 
ATOM      4  C   UNL     1     -10.721  -4.468  -6.939  1.00  0.00     0.041 C 
BRANCH   3   5
ATOM      5  N   UNL     1      -8.731  -3.040  -7.243  1.00  0.00    -0.342 N 
ATOM      6  C   UNL     1      -7.624  -3.862  -7.273  1.00  0.00     0.251 C 
ATOM      7  O   UNL     1      -7.500  -4.857  -6.567  1.00  0.00    -0.272 OA
ATOM      8  H   UNL     1      -8.703  -2.223  -7.849  1.00  0.00     0.164 HD
BRANCH   6   9
ATOM      9  C   UNL     1      -6.604  -3.446  -8.346  1.00  0.00     0.219 C 
BRANCH   9  10
ATOM     10  O   UNL     1      -7.200  -3.279  -9.639  1.00  0.00    -0.382 OA
ATOM     11  H   UNL     1      -6.814  -2.436  -9.964  1.00  0.00     0.211 HD
ENDBRANCH   9  10
BRANCH   9  12
ATOM     12  C   UNL     1      -5.782  -2.192  -7.952  1.00  0.00     0.089 C 
BRANCH  12  13
ATOM     13  N   UNL     1      -5.384  -2.321  -6.532  1.00  0.00    -0.325 NA
ATOM     14  H   UNL     1      -4.765  -1.547  -6.285  1.00  0.00     0.119 HD
ATOM     15  H   UNL     1      -4.815  -3.164  -6.423  1.00  0.00     0.119 HD
ENDBRANCH  12  13
BRANCH  12  16
ATOM     16  C   UNL     1      -4.542  -1.892  -8.827  1.00  0.00     0.022 C 
BRANCH  16  17
ATOM     17  C   UNL     1      -4.705  -1.025 -10.083  1.00  0.00     0.002 C 
BRANCH  17  18
ATOM     18  C   UNL     1      -3.450  -0.893 -10.943  1.00  0.00     0.000 C 
BRANCH  18  19
ATOM     19  C   UNL     1      -2.143  -1.164 -10.186  1.00  0.00    -0.000 C 
BRANCH  19  20
ATOM     20  C   UNL     1      -1.282  -2.293 -10.758  1.00  0.00    -0.000 C 
BRANCH  20  21
ATOM     21  C   UNL     1      -0.571  -3.112  -9.677  1.00  0.00    -0.003 C 
ATOM     22  C   UNL     1       0.014  -4.394 -10.248  1.00  0.00     0.004 C 
ENDBRANCH  20  21
ENDBRANCH  19  20
ENDBRANCH  18  19
ENDBRANCH  17  18
ENDBRANCH  16  17
ENDBRANCH  12  16
ENDBRANCH   9  12
ENDBRANCH   6   9
ENDBRANCH   3   5
ENDBRANCH   2   3
BRANCH   2  23
ATOM     23  N   UNL     1     -10.201  -0.835  -5.878  1.00  0.00    -0.332 N 
ATOM     24  C   UNL     1     -10.343   0.272  -6.812  1.00  0.00     0.147 C 
BRANCH  23  25
ATOM     25  C   UNL     1      -9.504  -0.497  -4.607  1.00  0.00     0.174 C 
BRANCH  25  26
ATOM     26  C   UNL     1     -10.057   0.784  -3.940  1.00  0.00     0.038 C 
BRANCH  26  27
ATOM     27  C   UNL     1     -10.084   0.813  -2.395  1.00  0.00    -0.015 C 
ATOM     28  C   UNL     1     -10.234  -0.581  -1.787  1.00  0.00     0.007 C 
ATOM     29  C   UNL     1      -8.892   1.543  -1.781  1.00  0.00     0.007 C 
ENDBRANCH  26  27
ENDBRANCH  25  26
BRANCH  25  30
ATOM     30  C   UNL     1      -7.974  -0.471  -4.829  1.00  0.00     0.243 C 
ATOM     31  O   UNL     1      -7.274  -1.466  -4.646  1.00  0.00    -0.273 OA
ATOM     32  N   UNL     1      -7.454   0.731  -5.235  1.00  0.00    -0.342 N 
ATOM     33  H   UNL     1      -8.114   1.467  -5.501  1.00  0.00     0.164 HD
BRANCH  32  34
ATOM     34  C   UNL     1      -6.024   0.948  -5.468  1.00  0.00     0.175 C 
BRANCH  34  35
ATOM     35  C   UNL     1      -5.771   1.573  -6.848  1.00  0.00     0.070 C 
BRANCH  35  36
ATOM     36  C   UNL     1      -4.315   1.525  -7.254  1.00  0.00    -0.045 A 
ATOM     37  C   UNL     1      -3.875   2.243  -8.377  1.00  0.00     0.007 A 
ATOM     38  C   UNL     1      -3.394   0.752  -6.536  1.00  0.00     0.007 A 
ATOM     39  C   UNL     1      -2.537   2.194  -8.767  1.00  0.00     0.046 A 
ATOM     40  C   UNL     1      -2.053   0.701  -6.927  1.00  0.00     0.046 A 
ATOM     41  C   UNL     1      -1.637   1.425  -8.039  1.00  0.00     0.115 A 
BRANCH  41  42
ATOM     42  O   UNL     1      -0.339   1.401  -8.456  1.00  0.00    -0.508 OA
ATOM     43  H   UNL     1       0.004   0.501  -8.333  1.00  0.00     0.293 HD
ENDBRANCH  41  42
ENDBRANCH  35  36
ENDBRANCH  34  35
BRANCH  34  44
ATOM     44  C   UNL     1      -5.482   1.835  -4.324  1.00  0.00     0.243 C 
ATOM     45  O   UNL     1      -4.966   1.403  -3.297  1.00  0.00    -0.273 OA
ATOM     46  N   UNL     1      -5.747   3.177  -4.498  1.00  0.00    -0.341 N 
ATOM     47  H   UNL     1      -6.281   3.474  -5.311  1.00  0.00     0.164 HD
BRANCH  46  48
ATOM     48  C   UNL     1      -5.390   4.202  -3.514  1.00  0.00     0.196 C 
BRANCH  48  49
ATOM     49  C   UNL     1      -4.439   5.249  -4.117  1.00  0.00     0.072 C 
BRANCH  49  50
ATOM     50  C   UNL     1      -3.088   4.672  -4.473  1.00  0.00    -0.045 A 
ATOM     51  C   UNL     1      -2.561   4.867  -5.758  1.00  0.00     0.007 A 
ATOM     52  C   UNL     1      -2.356   3.923  -3.542  1.00  0.00     0.007 A 
ATOM     53  C   UNL     1      -1.321   4.327  -6.102  1.00  0.00     0.046 A 
ATOM     54  C   UNL     1      -1.115   3.382  -3.887  1.00  0.00     0.046 A 
ATOM     55  C   UNL     1      -0.608   3.590  -5.165  1.00  0.00     0.115 A 
BRANCH  55  56
ATOM     56  O   UNL     1       0.599   3.079  -5.541  1.00  0.00    -0.508 OA
ATOM     57  H   UNL     1       1.251   3.798  -5.537  1.00  0.00     0.293 HD
ENDBRANCH  55  56
ENDBRANCH  49  50
ENDBRANCH  48  49
BRANCH  48  58
ATOM     58  C   UNL     1      -6.671   4.891  -3.025  1.00  0.00     0.326 C 
ATOM     59  O   UNL     1      -7.822   4.526  -3.205  1.00  0.00    -0.250 OA
BRANCH  58  60
ATOM     60  O   UNL     1      -6.439   6.019  -2.307  1.00  0.00    -0.480 OA
ATOM     61  H   UNL     1      -5.518   5.899  -1.990  1.00  0.00     0.296 HD
ENDBRANCH  58  60
ENDBRANCH  48  58
ENDBRANCH  46  48
ENDBRANCH  34  44
ENDBRANCH  32  34
ENDBRANCH  25  30
ENDBRANCH  23  25
ENDBRANCH   2  23
TORSDOF 28
ENDMDL
MODEL 5
REMARK VINA RESULT:    -6.459      2.500      7.295
REMARK INTER + INTRA:         -21.578
REMARK INTER:                 -15.647
REMARK INTRA:                  -5.931
REMARK UNBOUND:                -5.490
REMARK SMILES CCCCCCC[C@H](N)[C@H](O)C(=O)N[C@H](C)C(=O)N(C)[C@H](CC(C)C)C(=O)N[C@@H](Cc1ccc(O)cc1)C(=O)N[C@@H](Cc1ccc(O)cc1)C(=O)O
REMARK SMILES IDX 18 1 17 2 15 3 16 4 14 5 12 6 13 7 10 9 11 10 8 12 9 13 7 16
REMARK SMILES IDX 6 17 5 18 4 19 3 20 2 21 1 22 19 23 20 24 21 25 22 26 23 27
REMARK SMILES IDX 24 28 25 29 26 30 27 31 28 32 29 34 30 35 31 36 32 37 37 38
REMARK SMILES IDX 33 39 36 40 34 41 35 42 38 44 39 45 40 46 41 48 42 49 43 50
REMARK SMILES IDX 44 51 49 52 45 53 48 54 46 55 47 56 50 58 51 59 52 60
REMARK H PARENT 14 8 11 11 9 14 9 15 28 33 35 43 40 47 47 57 52 61
ROOT
ATOM      1  O   UNL     1      -6.963  -3.287  -9.992  1.00  0.00    -0.272 OA
ATOM      2  C   UNL     1      -7.162  -2.136  -9.578  1.00  0.00     0.245 C 
ENDROOT
BRANCH   2   3
ATOM      3  C   UNL     1      -7.065  -0.960 -10.582  1.00  0.00     0.168 C 
ATOM      4  C   UNL     1      -8.402  -0.236 -10.699  1.00  0.00     0.041 C 
BRANCH   3   5
ATOM      5  N   UNL     1      -5.968  -0.036 -10.337  1.00  0.00    -0.342 N 
ATOM      6  C   UNL     1      -4.671  -0.336 -10.694  1.00  0.00     0.251 C 
ATOM      7  O   UNL     1      -4.337  -1.403 -11.198  1.00  0.00    -0.272 OA
ATOM      8  H   UNL     1      -6.117   0.867  -9.892  1.00  0.00     0.164 HD
BRANCH   6   9
ATOM      9  C   UNL     1      -3.706   0.840 -10.471  1.00  0.00     0.219 C 
BRANCH   9  10
ATOM     10  O   UNL     1      -4.195   2.068 -11.024  1.00  0.00    -0.382 OA
ATOM     11  H   UNL     1      -4.364   1.846 -11.966  1.00  0.00     0.211 HD
ENDBRANCH   9  10
BRANCH   9  12
ATOM     12  C   UNL     1      -3.306   1.026  -8.984  1.00  0.00     0.089 C 
BRANCH  12  13
ATOM     13  N   UNL     1      -4.377   1.790  -8.304  1.00  0.00    -0.325 NA
ATOM     14  H   UNL     1      -5.117   1.147  -8.016  1.00  0.00     0.119 HD
ATOM     15  H   UNL     1      -4.817   2.417  -8.981  1.00  0.00     0.119 HD
ENDBRANCH  12  13
BRANCH  12  16
ATOM     16  C   UNL     1      -2.996  -0.270  -8.198  1.00  0.00     0.022 C 
BRANCH  16  17
ATOM     17  C   UNL     1      -1.629  -0.422  -7.517  1.00  0.00     0.002 C 
BRANCH  17  18
ATOM     18  C   UNL     1      -1.304  -1.832  -7.030  1.00  0.00     0.000 C 
BRANCH  18  19
ATOM     19  C   UNL     1      -1.524  -2.923  -8.087  1.00  0.00    -0.000 C 
BRANCH  19  20
ATOM     20  C   UNL     1      -0.250  -3.444  -8.759  1.00  0.00    -0.000 C 
BRANCH  20  21
ATOM     21  C   UNL     1      -0.360  -3.506 -10.285  1.00  0.00    -0.003 C 
ATOM     22  C   UNL     1      -1.034  -2.263 -10.843  1.00  0.00     0.004 C 
ENDBRANCH  20  21
ENDBRANCH  19  20
ENDBRANCH  18  19
ENDBRANCH  17  18
ENDBRANCH  16  17
ENDBRANCH  12  16
ENDBRANCH   9  12
ENDBRANCH   6   9
ENDBRANCH   3   5
ENDBRANCH   2   3
BRANCH   2  23
ATOM     23  N   UNL     1      -7.584  -1.931  -8.268  1.00  0.00    -0.332 N 
ATOM     24  C   UNL     1      -8.966  -2.027  -7.821  1.00  0.00     0.147 C 
BRANCH  23  25
ATOM     25  C   UNL     1      -6.588  -1.716  -7.183  1.00  0.00     0.174 C 
BRANCH  25  26
ATOM     26  C   UNL     1      -6.749  -2.713  -6.012  1.00  0.00     0.038 C 
BRANCH  26  27
ATOM     27  C   UNL     1      -6.085  -4.098  -6.174  1.00  0.00    -0.015 C 
ATOM     28  C   UNL     1      -6.987  -5.098  -6.897  1.00  0.00     0.007 C 
ATOM     29  C   UNL     1      -4.711  -4.039  -6.837  1.00  0.00     0.007 C 
ENDBRANCH  26  27
ENDBRANCH  25  26
BRANCH  25  30
ATOM     30  C   UNL     1      -6.591  -0.234  -6.743  1.00  0.00     0.243 C 
ATOM     31  O   UNL     1      -6.850   0.677  -7.529  1.00  0.00    -0.273 OA
ATOM     32  N   UNL     1      -6.281  -0.005  -5.427  1.00  0.00    -0.342 N 
ATOM     33  H   UNL     1      -6.218  -0.817  -4.808  1.00  0.00     0.164 HD
BRANCH  32  34
ATOM     34  C   UNL     1      -6.210   1.337  -4.842  1.00  0.00     0.175 C 
BRANCH  34  35
ATOM     35  C   UNL     1      -6.960   1.403  -3.503  1.00  0.00     0.070 C 
BRANCH  35  36
ATOM     36  C   UNL     1      -6.776   2.726  -2.794  1.00  0.00    -0.045 A 
ATOM     37  C   UNL     1      -7.425   3.875  -3.273  1.00  0.00     0.007 A 
ATOM     38  C   UNL     1      -5.944   2.831  -1.672  1.00  0.00     0.007 A 
ATOM     39  C   UNL     1      -7.250   5.102  -2.634  1.00  0.00     0.046 A 
ATOM     40  C   UNL     1      -5.767   4.060  -1.033  1.00  0.00     0.046 A 
ATOM     41  C   UNL     1      -6.424   5.186  -1.520  1.00  0.00     0.115 A 
BRANCH  41  42
ATOM     42  O   UNL     1      -6.278   6.405  -0.926  1.00  0.00    -0.508 OA
ATOM     43  H   UNL     1      -6.779   6.400  -0.094  1.00  0.00     0.293 HD
ENDBRANCH  41  42
ENDBRANCH  35  36
ENDBRANCH  34  35
BRANCH  34  44
ATOM     44  C   UNL     1      -4.719   1.713  -4.688  1.00  0.00     0.243 C 
ATOM     45  O   UNL     1      -3.898   1.052  -4.059  1.00  0.00    -0.273 OA
ATOM     46  N   UNL     1      -4.407   2.947  -5.219  1.00  0.00    -0.341 N 
ATOM     47  H   UNL     1      -5.148   3.510  -5.628  1.00  0.00     0.164 HD
BRANCH  46  48
ATOM     48  C   UNL     1      -3.073   3.546  -5.134  1.00  0.00     0.196 C 
BRANCH  48  49
ATOM     49  C   UNL     1      -2.747   4.368  -6.393  1.00  0.00     0.072 C 
BRANCH  49  50
ATOM     50  C   UNL     1      -1.437   3.961  -7.030  1.00  0.00    -0.045 A 
ATOM     51  C   UNL     1      -1.049   4.528  -8.252  1.00  0.00     0.007 A 
ATOM     52  C   UNL     1      -0.609   3.006  -6.427  1.00  0.00     0.007 A 
ATOM     53  C   UNL     1       0.150   4.150  -8.856  1.00  0.00     0.046 A 
ATOM     54  C   UNL     1       0.592   2.627  -7.032  1.00  0.00     0.046 A 
ATOM     55  C   UNL     1       0.962   3.204  -8.242  1.00  0.00     0.115 A 
BRANCH  55  56
ATOM     56  O   UNL     1       2.125   2.861  -8.866  1.00  0.00    -0.508 OA
ATOM     57  H   UNL     1       2.542   2.144  -8.363  1.00  0.00     0.293 HD
ENDBRANCH  55  56
ENDBRANCH  49  50
ENDBRANCH  48  49
BRANCH  48  58
ATOM     58  C   UNL     1      -3.012   4.453  -3.897  1.00  0.00     0.326 C 
ATOM     59  O   UNL     1      -2.172   4.439  -3.011  1.00  0.00    -0.250 OA
BRANCH  58  60
ATOM     60  O   UNL     1      -4.019   5.361  -3.841  1.00  0.00    -0.480 OA
ATOM     61  H   UNL     1      -3.601   6.183  -4.179  1.00  0.00     0.296 HD
ENDBRANCH  58  60
ENDBRANCH  48  58
ENDBRANCH  46  48
ENDBRANCH  34  44
ENDBRANCH  32  34
ENDBRANCH  25  30
ENDBRANCH  23  25
ENDBRANCH   2  23
TORSDOF 28
ENDMDL
MODEL 6
REMARK VINA RESULT:    -6.446      2.172      3.801
REMARK INTER + INTRA:         -21.546
REMARK INTER:                 -16.590
REMARK INTRA:                  -4.956
REMARK UNBOUND:                -5.490
REMARK SMILES CCCCCCC[C@H](N)[C@H](O)C(=O)N[C@H](C)C(=O)N(C)[C@H](CC(C)C)C(=O)N[C@@H](Cc1ccc(O)cc1)C(=O)N[C@@H](Cc1ccc(O)cc1)C(=O)O
REMARK SMILES IDX 18 1 17 2 15 3 16 4 14 5 12 6 13 7 10 9 11 10 8 12 9 13 7 16
REMARK SMILES IDX 6 17 5 18 4 19 3 20 2 21 1 22 19 23 20 24 21 25 22 26 23 27
REMARK SMILES IDX 24 28 25 29 26 30 27 31 28 32 29 34 30 35 31 36 32 37 37 38
REMARK SMILES IDX 33 39 36 40 34 41 35 42 38 44 39 45 40 46 41 48 42 49 43 50
REMARK SMILES IDX 44 51 49 52 45 53 48 54 46 55 47 56 50 58 51 59 52 60
REMARK H PARENT 14 8 11 11 9 14 9 15 28 33 35 43 40 47 47 57 52 61
ROOT
ATOM      1  O   UNL     1      -6.040   1.199  -2.374  1.00  0.00    -0.272 OA
ATOM      2  C   UNL     1      -6.934   1.969  -2.755  1.00  0.00     0.245 C 
ENDROOT
BRANCH   2   3
ATOM      3  C   UNL     1      -6.529   3.354  -3.317  1.00  0.00     0.168 C 
ATOM      4  C   UNL     1      -7.628   4.382  -3.070  1.00  0.00     0.041 C 
BRANCH   3   5
ATOM      5  N   UNL     1      -5.228   3.835  -2.879  1.00  0.00    -0.342 N 
ATOM      6  C   UNL     1      -4.437   4.629  -3.681  1.00  0.00     0.251 C 
ATOM      7  O   UNL     1      -4.743   4.953  -4.824  1.00  0.00    -0.272 OA
ATOM      8  H   UNL     1      -4.852   3.602  -1.963  1.00  0.00     0.164 HD
BRANCH   6   9
ATOM      9  C   UNL     1      -3.176   5.133  -2.961  1.00  0.00     0.219 C 
BRANCH   9  10
ATOM     10  O   UNL     1      -3.243   4.956  -1.541  1.00  0.00    -0.382 OA
ATOM     11  H   UNL     1      -4.194   5.098  -1.335  1.00  0.00     0.211 HD
ENDBRANCH   9  10
BRANCH   9  12
ATOM     12  C   UNL     1      -1.866   4.528  -3.530  1.00  0.00     0.089 C 
BRANCH  12  13
ATOM     13  N   UNL     1      -2.135   3.129  -3.934  1.00  0.00    -0.325 NA
ATOM     14  H   UNL     1      -2.386   3.108  -4.924  1.00  0.00     0.119 HD
ATOM     15  H   UNL     1      -2.966   2.796  -3.441  1.00  0.00     0.119 HD
ENDBRANCH  12  13
BRANCH  12  16
ATOM     16  C   UNL     1      -1.213   5.304  -4.699  1.00  0.00     0.022 C 
BRANCH  16  17
ATOM     17  C   UNL     1      -0.849   4.548  -5.985  1.00  0.00     0.002 C 
BRANCH  17  18
ATOM     18  C   UNL     1      -1.817   4.752  -7.148  1.00  0.00     0.000 C 
BRANCH  18  19
ATOM     19  C   UNL     1      -1.206   4.469  -8.527  1.00  0.00    -0.000 C 
BRANCH  19  20
ATOM     20  C   UNL     1       0.293   4.156  -8.521  1.00  0.00    -0.000 C 
BRANCH  20  21
ATOM     21  C   UNL     1       0.639   2.863  -9.263  1.00  0.00    -0.003 C 
ATOM     22  C   UNL     1      -0.586   1.979  -9.437  1.00  0.00     0.004 C 
ENDBRANCH  20  21
ENDBRANCH  19  20
ENDBRANCH  18  19
ENDBRANCH  17  18
ENDBRANCH  16  17
ENDBRANCH  12  16
ENDBRANCH   9  12
ENDBRANCH   6   9
ENDBRANCH   3   5
ENDBRANCH   2   3
BRANCH   2  23
ATOM     23  N   UNL     1      -8.257   1.538  -2.786  1.00  0.00    -0.332 N 
ATOM     24  C   UNL     1      -9.222   1.757  -1.719  1.00  0.00     0.147 C 
BRANCH  23  25
ATOM     25  C   UNL     1      -8.814   0.914  -4.017  1.00  0.00     0.174 C 
BRANCH  25  26
ATOM     26  C   UNL     1     -10.350   1.066  -4.127  1.00  0.00     0.038 C 
BRANCH  26  27
ATOM     27  C   UNL     1     -10.882   2.038  -5.203  1.00  0.00    -0.015 C 
ATOM     28  C   UNL     1     -10.793   3.500  -4.766  1.00  0.00     0.007 C 
ATOM     29  C   UNL     1     -10.232   1.846  -6.571  1.00  0.00     0.007 C 
ENDBRANCH  26  27
ENDBRANCH  25  26
BRANCH  25  30
ATOM     30  C   UNL     1      -8.324  -0.546  -4.143  1.00  0.00     0.243 C 
ATOM     31  O   UNL     1      -8.409  -1.343  -3.210  1.00  0.00    -0.273 OA
ATOM     32  N   UNL     1      -7.783  -0.888  -5.356  1.00  0.00    -0.342 N 
ATOM     33  H   UNL     1      -7.876  -0.217  -6.122  1.00  0.00     0.164 HD
BRANCH  32  34
ATOM     34  C   UNL     1      -7.243  -2.219  -5.646  1.00  0.00     0.175 C 
BRANCH  34  35
ATOM     35  C   UNL     1      -8.213  -3.040  -6.510  1.00  0.00     0.070 C 
BRANCH  35  36
ATOM     36  C   UNL     1      -8.982  -4.068  -5.710  1.00  0.00    -0.045 A 
ATOM     37  C   UNL     1     -10.136  -3.690  -5.008  1.00  0.00     0.007 A 
ATOM     38  C   UNL     1      -8.545  -5.397  -5.639  1.00  0.00     0.007 A 
ATOM     39  C   UNL     1     -10.844  -4.628  -4.256  1.00  0.00     0.046 A 
ATOM     40  C   UNL     1      -9.252  -6.336  -4.885  1.00  0.00     0.046 A 
ATOM     41  C   UNL     1     -10.398  -5.943  -4.201  1.00  0.00     0.115 A 
BRANCH  41  42
ATOM     42  O   UNL     1     -11.117  -6.828  -3.453  1.00  0.00    -0.508 OA
ATOM     43  H   UNL     1     -10.629  -7.668  -3.423  1.00  0.00     0.293 HD
ENDBRANCH  41  42
ENDBRANCH  35  36
ENDBRANCH  34  35
BRANCH  34  44
ATOM     44  C   UNL     1      -5.870  -2.039  -6.332  1.00  0.00     0.243 C 
ATOM     45  O   UNL     1      -5.195  -2.959  -6.785  1.00  0.00    -0.273 OA
ATOM     46  N   UNL     1      -5.395  -0.746  -6.278  1.00  0.00    -0.341 N 
ATOM     47  H   UNL     1      -5.939  -0.040  -5.788  1.00  0.00     0.164 HD
BRANCH  46  48
ATOM     48  C   UNL     1      -4.087  -0.346  -6.801  1.00  0.00     0.196 C 
BRANCH  48  49
ATOM     49  C   UNL     1      -4.118  -0.192  -8.331  1.00  0.00     0.072 C 
BRANCH  49  50
ATOM     50  C   UNL     1      -2.988  -0.930  -9.012  1.00  0.00    -0.045 A 
ATOM     51  C   UNL     1      -2.955  -1.020 -10.412  1.00  0.00     0.007 A 
ATOM     52  C   UNL     1      -1.977  -1.548  -8.266  1.00  0.00     0.007 A 
ATOM     53  C   UNL     1      -1.925  -1.709 -11.051  1.00  0.00     0.046 A 
ATOM     54  C   UNL     1      -0.946  -2.240  -8.906  1.00  0.00     0.046 A 
ATOM     55  C   UNL     1      -0.928  -2.313 -10.295  1.00  0.00     0.115 A 
BRANCH  55  56
ATOM     56  O   UNL     1       0.060  -2.979 -10.958  1.00  0.00    -0.508 OA
ATOM     57  H   UNL     1       0.321  -3.747 -10.426  1.00  0.00     0.293 HD
ENDBRANCH  55  56
ENDBRANCH  49  50
ENDBRANCH  48  49
BRANCH  48  58
ATOM     58  C   UNL     1      -3.679   0.987  -6.158  1.00  0.00     0.326 C 
ATOM     59  O   UNL     1      -4.356   1.695  -5.430  1.00  0.00    -0.250 OA
BRANCH  58  60
ATOM     60  O   UNL     1      -2.410   1.366  -6.455  1.00  0.00    -0.480 OA
ATOM     61  H   UNL     1      -1.902   0.529  -6.382  1.00  0.00     0.296 HD
ENDBRANCH  58  60
ENDBRANCH  48  58
ENDBRANCH  46  48
ENDBRANCH  34  44
ENDBRANCH  32  34
ENDBRANCH  25  30
ENDBRANCH  23  25
ENDBRANCH   2  23
TORSDOF 28
ENDMDL
MODEL 7
REMARK VINA RESULT:    -6.439      2.683      6.874
REMARK INTER + INTRA:         -21.528
REMARK INTER:                 -15.659
REMARK INTRA:                  -5.869
REMARK UNBOUND:                -5.490
REMARK SMILES CCCCCCC[C@H](N)[C@H](O)C(=O)N[C@H](C)C(=O)N(C)[C@H](CC(C)C)C(=O)N[C@@H](Cc1ccc(O)cc1)C(=O)N[C@@H](Cc1ccc(O)cc1)C(=O)O
REMARK SMILES IDX 18 1 17 2 15 3 16 4 14 5 12 6 13 7 10 9 11 10 8 12 9 13 7 16
REMARK SMILES IDX 6 17 5 18 4 19 3 20 2 21 1 22 19 23 20 24 21 25 22 26 23 27
REMARK SMILES IDX 24 28 25 29 26 30 27 31 28 32 29 34 30 35 31 36 32 37 37 38
REMARK SMILES IDX 33 39 36 40 34 41 35 42 38 44 39 45 40 46 41 48 42 49 43 50
REMARK SMILES IDX 44 51 49 52 45 53 48 54 46 55 47 56 50 58 51 59 52 60
REMARK H PARENT 14 8 11 11 9 14 9 15 28 33 35 43 40 47 47 57 52 61
ROOT
ATOM      1  O   UNL     1      -8.527  -3.260  -8.905  1.00  0.00    -0.272 OA
ATOM      2  C   UNL     1      -8.292  -3.466  -7.705  1.00  0.00     0.245 C 
ENDROOT
BRANCH   2   3
ATOM      3  C   UNL     1      -6.816  -3.587  -7.250  1.00  0.00     0.168 C 
ATOM      4  C   UNL     1      -6.244  -4.950  -7.621  1.00  0.00     0.041 C 
BRANCH   3   5
ATOM      5  N   UNL     1      -5.952  -2.500  -7.685  1.00  0.00    -0.342 N 
ATOM      6  C   UNL     1      -5.597  -1.470  -6.840  1.00  0.00     0.251 C 
ATOM      7  O   UNL     1      -6.007  -1.367  -5.689  1.00  0.00    -0.272 OA
ATOM      8  H   UNL     1      -5.577  -2.458  -8.630  1.00  0.00     0.164 HD
BRANCH   6   9
ATOM      9  C   UNL     1      -4.567  -0.516  -7.466  1.00  0.00     0.219 C 
BRANCH   9  10
ATOM     10  O   UNL     1      -4.745  -0.361  -8.879  1.00  0.00    -0.382 OA
ATOM     11  H   UNL     1      -3.863  -0.585  -9.250  1.00  0.00     0.211 HD
ENDBRANCH   9  10
BRANCH   9  12
ATOM     12  C   UNL     1      -4.510   0.866  -6.763  1.00  0.00     0.089 C 
BRANCH  12  13
ATOM     13  N   UNL     1      -4.102   0.657  -5.355  1.00  0.00    -0.325 NA
ATOM     14  H   UNL     1      -4.387   1.465  -4.800  1.00  0.00     0.119 HD
ATOM     15  H   UNL     1      -3.080   0.646  -5.305  1.00  0.00     0.119 HD
ENDBRANCH  12  13
BRANCH  12  16
ATOM     16  C   UNL     1      -3.602   1.928  -7.428  1.00  0.00     0.022 C 
BRANCH  16  17
ATOM     17  C   UNL     1      -2.156   1.557  -7.785  1.00  0.00     0.002 C 
BRANCH  17  18
ATOM     18  C   UNL     1      -1.128   1.851  -6.696  1.00  0.00     0.000 C 
BRANCH  18  19
ATOM     19  C   UNL     1       0.100   2.629  -7.189  1.00  0.00    -0.000 C 
BRANCH  19  20
ATOM     20  C   UNL     1      -0.172   3.622  -8.322  1.00  0.00    -0.000 C 
BRANCH  20  21
ATOM     21  C   UNL     1       0.818   3.493  -9.483  1.00  0.00    -0.003 C 
ATOM     22  C   UNL     1       0.566   2.228 -10.289  1.00  0.00     0.004 C 
ENDBRANCH  20  21
ENDBRANCH  19  20
ENDBRANCH  18  19
ENDBRANCH  17  18
ENDBRANCH  16  17
ENDBRANCH  12  16
ENDBRANCH   9  12
ENDBRANCH   6   9
ENDBRANCH   3   5
ENDBRANCH   2   3
BRANCH   2  23
ATOM     23  N   UNL     1      -9.332  -3.464  -6.782  1.00  0.00    -0.332 N 
ATOM     24  C   UNL     1     -10.610  -4.131  -6.976  1.00  0.00     0.147 C 
BRANCH  23  25
ATOM     25  C   UNL     1      -9.138  -2.859  -5.435  1.00  0.00     0.174 C 
BRANCH  25  26
ATOM     26  C   UNL     1      -9.943  -3.582  -4.329  1.00  0.00     0.038 C 
BRANCH  26  27
ATOM     27  C   UNL     1      -9.176  -4.606  -3.462  1.00  0.00    -0.015 C 
ATOM     28  C   UNL     1      -7.662  -4.410  -3.529  1.00  0.00     0.007 C 
ATOM     29  C   UNL     1      -9.649  -4.647  -2.011  1.00  0.00     0.007 C 
ENDBRANCH  26  27
ENDBRANCH  25  26
BRANCH  25  30
ATOM     30  C   UNL     1      -9.394  -1.335  -5.494  1.00  0.00     0.243 C 
ATOM     31  O   UNL     1     -10.190  -0.841  -6.291  1.00  0.00    -0.273 OA
ATOM     32  N   UNL     1      -8.673  -0.578  -4.607  1.00  0.00    -0.342 N 
ATOM     33  H   UNL     1      -8.142  -1.071  -3.885  1.00  0.00     0.164 HD
BRANCH  32  34
ATOM     34  C   UNL     1      -8.767   0.883  -4.540  1.00  0.00     0.175 C 
BRANCH  34  35
ATOM     35  C   UNL     1      -9.915   1.328  -3.621  1.00  0.00     0.070 C 
BRANCH  35  36
ATOM     36  C   UNL     1      -9.917   0.601  -2.295  1.00  0.00    -0.045 A 
ATOM     37  C   UNL     1     -10.672  -0.571  -2.138  1.00  0.00     0.007 A 
ATOM     38  C   UNL     1      -9.191   1.095  -1.203  1.00  0.00     0.007 A 
ATOM     39  C   UNL     1     -10.691  -1.241  -0.914  1.00  0.00     0.046 A 
ATOM     40  C   UNL     1      -9.211   0.426   0.023  1.00  0.00     0.046 A 
ATOM     41  C   UNL     1      -9.961  -0.738   0.156  1.00  0.00     0.115 A 
BRANCH  41  42
ATOM     42  O   UNL     1     -10.009  -1.421   1.335  1.00  0.00    -0.508 OA
ATOM     43  H   UNL     1      -9.611  -0.865   2.025  1.00  0.00     0.293 HD
ENDBRANCH  41  42
ENDBRANCH  35  36
ENDBRANCH  34  35
BRANCH  34  44
ATOM     44  C   UNL     1      -7.402   1.428  -4.064  1.00  0.00     0.243 C 
ATOM     45  O   UNL     1      -6.563   0.766  -3.459  1.00  0.00    -0.273 OA
ATOM     46  N   UNL     1      -7.252   2.784  -4.264  1.00  0.00    -0.341 N 
ATOM     47  H   UNL     1      -8.024   3.313  -4.663  1.00  0.00     0.164 HD
BRANCH  46  48
ATOM     48  C   UNL     1      -6.072   3.537  -3.833  1.00  0.00     0.196 C 
BRANCH  48  49
ATOM     49  C   UNL     1      -5.428   4.290  -5.010  1.00  0.00     0.072 C 
BRANCH  49  50
ATOM     50  C   UNL     1      -3.933   4.450  -4.850  1.00  0.00    -0.045 A 
ATOM     51  C   UNL     1      -3.263   3.768  -3.824  1.00  0.00     0.007 A 
ATOM     52  C   UNL     1      -3.203   5.290  -5.701  1.00  0.00     0.007 A 
ATOM     53  C   UNL     1      -1.886   3.919  -3.658  1.00  0.00     0.046 A 
ATOM     54  C   UNL     1      -1.825   5.441  -5.534  1.00  0.00     0.046 A 
ATOM     55  C   UNL     1      -1.178   4.753  -4.514  1.00  0.00     0.115 A 
BRANCH  55  56
ATOM     56  O   UNL     1       0.166   4.874  -4.317  1.00  0.00    -0.508 OA
ATOM     57  H   UNL     1       0.385   5.818  -4.269  1.00  0.00     0.293 HD
ENDBRANCH  55  56
ENDBRANCH  49  50
ENDBRANCH  48  49
BRANCH  48  58
ATOM     58  C   UNL     1      -6.488   4.539  -2.747  1.00  0.00     0.326 C 
ATOM     59  O   UNL     1      -6.895   5.678  -2.909  1.00  0.00    -0.250 OA
BRANCH  58  60
ATOM     60  O   UNL     1      -6.384   4.046  -1.488  1.00  0.00    -0.480 OA
ATOM     61  H   UNL     1      -5.425   4.124  -1.293  1.00  0.00     0.296 HD
ENDBRANCH  58  60
ENDBRANCH  48  58
ENDBRANCH  46  48
ENDBRANCH  34  44
ENDBRANCH  32  34
ENDBRANCH  25  30
ENDBRANCH  23  25
ENDBRANCH   2  23
TORSDOF 28
ENDMDL
MODEL 8
REMARK VINA RESULT:    -6.434      3.845      8.593
REMARK INTER + INTRA:         -21.515
REMARK INTER:                 -17.694
REMARK INTRA:                  -3.821
REMARK UNBOUND:                -5.490
REMARK SMILES CCCCCCC[C@H](N)[C@H](O)C(=O)N[C@H](C)C(=O)N(C)[C@H](CC(C)C)C(=O)N[C@@H](Cc1ccc(O)cc1)C(=O)N[C@@H](Cc1ccc(O)cc1)C(=O)O
REMARK SMILES IDX 18 1 17 2 15 3 16 4 14 5 12 6 13 7 10 9 11 10 8 12 9 13 7 16
REMARK SMILES IDX 6 17 5 18 4 19 3 20 2 21 1 22 19 23 20 24 21 25 22 26 23 27
REMARK SMILES IDX 24 28 25 29 26 30 27 31 28 32 29 34 30 35 31 36 32 37 37 38
REMARK SMILES IDX 33 39 36 40 34 41 35 42 38 44 39 45 40 46 41 48 42 49 43 50
REMARK SMILES IDX 44 51 49 52 45 53 48 54 46 55 47 56 50 58 51 59 52 60
REMARK H PARENT 14 8 11 11 9 14 9 15 28 33 35 43 40 47 47 57 52 61
ROOT
ATOM      1  O   UNL     1     -11.196  -3.290  -5.330  1.00  0.00    -0.272 OA
ATOM      2  C   UNL     1     -10.258  -3.756  -4.666  1.00  0.00     0.245 C 
ENDROOT
BRANCH   2   3
ATOM      3  C   UNL     1     -10.309  -5.250  -4.260  1.00  0.00     0.168 C 
ATOM      4  C   UNL     1      -9.463  -6.097  -5.205  1.00  0.00     0.041 C 
BRANCH   3   5
ATOM      5  N   UNL     1      -9.994  -5.515  -2.865  1.00  0.00    -0.342 N 
ATOM      6  C   UNL     1     -10.979  -5.712  -1.920  1.00  0.00     0.251 C 
ATOM      7  O   UNL     1     -12.178  -5.638  -2.168  1.00  0.00    -0.272 OA
ATOM      8  H   UNL     1      -9.033  -5.565  -2.532  1.00  0.00     0.164 HD
BRANCH   6   9
ATOM      9  C   UNL     1     -10.415  -6.116  -0.549  1.00  0.00     0.219 C 
BRANCH   9  10
ATOM     10  O   UNL     1      -9.124  -5.549  -0.293  1.00  0.00    -0.382 OA
ATOM     11  H   UNL     1      -8.532  -6.036  -0.907  1.00  0.00     0.211 HD
ENDBRANCH   9  10
BRANCH   9  12
ATOM     12  C   UNL     1     -11.389  -5.820   0.621  1.00  0.00     0.089 C 
BRANCH  12  13
ATOM     13  N   UNL     1     -12.515  -6.779   0.547  1.00  0.00    -0.325 NA
ATOM     14  H   UNL     1     -12.177  -7.665   0.168  1.00  0.00     0.119 HD
ATOM     15  H   UNL     1     -13.195  -6.438  -0.137  1.00  0.00     0.119 HD
ENDBRANCH  12  13
BRANCH  12  16
ATOM     16  C   UNL     1     -10.770  -5.836   2.040  1.00  0.00     0.022 C 
BRANCH  16  17
ATOM     17  C   UNL     1     -10.526  -4.505   2.764  1.00  0.00     0.002 C 
BRANCH  17  18
ATOM     18  C   UNL     1     -10.569  -3.268   1.870  1.00  0.00     0.000 C 
BRANCH  18  19
ATOM     19  C   UNL     1     -10.095  -1.982   2.560  1.00  0.00    -0.000 C 
BRANCH  19  20
ATOM     20  C   UNL     1     -10.826  -0.706   2.131  1.00  0.00    -0.000 C 
BRANCH  20  21
ATOM     21  C   UNL     1      -9.910   0.520   2.077  1.00  0.00    -0.003 C 
ATOM     22  C   UNL     1     -10.662   1.790   2.442  1.00  0.00     0.004 C 
ENDBRANCH  20  21
ENDBRANCH  19  20
ENDBRANCH  18  19
ENDBRANCH  17  18
ENDBRANCH  16  17
ENDBRANCH  12  16
ENDBRANCH   9  12
ENDBRANCH   6   9
ENDBRANCH   3   5
ENDBRANCH   2   3
BRANCH   2  23
ATOM     23  N   UNL     1      -9.136  -2.977  -4.405  1.00  0.00    -0.332 N 
ATOM     24  C   UNL     1      -8.795  -2.431  -3.100  1.00  0.00     0.147 C 
BRANCH  23  25
ATOM     25  C   UNL     1      -8.113  -2.756  -5.463  1.00  0.00     0.174 C 
BRANCH  25  26
ATOM     26  C   UNL     1      -6.800  -3.533  -5.205  1.00  0.00     0.038 C 
BRANCH  26  27
ATOM     27  C   UNL     1      -6.254  -4.390  -6.368  1.00  0.00    -0.015 C 
ATOM     28  C   UNL     1      -7.151  -4.338  -7.604  1.00  0.00     0.007 C 
ATOM     29  C   UNL     1      -4.810  -4.062  -6.738  1.00  0.00     0.007 C 
ENDBRANCH  26  27
ENDBRANCH  25  26
BRANCH  25  30
ATOM     30  C   UNL     1      -7.903  -1.241  -5.692  1.00  0.00     0.243 C 
ATOM     31  O   UNL     1      -8.820  -0.506  -6.055  1.00  0.00    -0.273 OA
ATOM     32  N   UNL     1      -6.632  -0.778  -5.470  1.00  0.00    -0.342 N 
ATOM     33  H   UNL     1      -5.963  -1.419  -5.036  1.00  0.00     0.164 HD
BRANCH  32  34
ATOM     34  C   UNL     1      -6.244   0.622  -5.663  1.00  0.00     0.175 C 
BRANCH  34  35
ATOM     35  C   UNL     1      -5.608   1.206  -4.392  1.00  0.00     0.070 C 
BRANCH  35  36
ATOM     36  C   UNL     1      -6.515   2.184  -3.681  1.00  0.00    -0.045 A 
ATOM     37  C   UNL     1      -7.889   2.201  -3.964  1.00  0.00     0.007 A 
ATOM     38  C   UNL     1      -6.000   3.099  -2.753  1.00  0.00     0.007 A 
ATOM     39  C   UNL     1      -8.732   3.110  -3.323  1.00  0.00     0.046 A 
ATOM     40  C   UNL     1      -6.843   4.010  -2.112  1.00  0.00     0.046 A 
ATOM     41  C   UNL     1      -8.203   4.006  -2.402  1.00  0.00     0.115 A 
BRANCH  41  42
ATOM     42  O   UNL     1      -9.060   4.879  -1.801  1.00  0.00    -0.508 OA
ATOM     43  H   UNL     1      -8.893   4.860  -0.844  1.00  0.00     0.293 HD
ENDBRANCH  41  42
ENDBRANCH  35  36
ENDBRANCH  34  35
BRANCH  34  44
ATOM     44  C   UNL     1      -5.284   0.691  -6.872  1.00  0.00     0.243 C 
ATOM     45  O   UNL     1      -5.476   0.122  -7.943  1.00  0.00    -0.273 OA
ATOM     46  N   UNL     1      -4.105   1.353  -6.600  1.00  0.00    -0.341 N 
ATOM     47  H   UNL     1      -3.943   1.706  -5.661  1.00  0.00     0.164 HD
BRANCH  46  48
ATOM     48  C   UNL     1      -3.015   1.487  -7.568  1.00  0.00     0.196 C 
BRANCH  48  49
ATOM     49  C   UNL     1      -2.344   2.867  -7.469  1.00  0.00     0.072 C 
BRANCH  49  50
ATOM     50  C   UNL     1      -2.498   3.492  -6.101  1.00  0.00    -0.045 A 
ATOM     51  C   UNL     1      -3.512   4.434  -5.873  1.00  0.00     0.007 A 
ATOM     52  C   UNL     1      -1.629   3.159  -5.054  1.00  0.00     0.007 A 
ATOM     53  C   UNL     1      -3.656   5.027  -4.618  1.00  0.00     0.046 A 
ATOM     54  C   UNL     1      -1.772   3.754  -3.798  1.00  0.00     0.046 A 
ATOM     55  C   UNL     1      -2.786   4.682  -3.591  1.00  0.00     0.115 A 
BRANCH  55  56
ATOM     56  O   UNL     1      -2.959   5.286  -2.380  1.00  0.00    -0.508 OA
ATOM     57  H   UNL     1      -3.161   6.223  -2.532  1.00  0.00     0.293 HD
ENDBRANCH  55  56
ENDBRANCH  49  50
ENDBRANCH  48  49
BRANCH  48  58
ATOM     58  C   UNL     1      -1.975   0.389  -7.305  1.00  0.00     0.326 C 
ATOM     59  O   UNL     1      -0.765   0.523  -7.214  1.00  0.00    -0.250 OA
BRANCH  58  60
ATOM     60  O   UNL     1      -2.518  -0.845  -7.150  1.00  0.00    -0.480 OA
ATOM     61  H   UNL     1      -3.410  -0.751  -7.549  1.00  0.00     0.296 HD
ENDBRANCH  58  60
ENDBRANCH  48  58
ENDBRANCH  46  48
ENDBRANCH  34  44
ENDBRANCH  32  34
ENDBRANCH  25  30
ENDBRANCH  23  25
ENDBRANCH   2  23
TORSDOF 28
ENDMDL
MODEL 9
REMARK VINA RESULT:    -6.410      3.351      8.991
REMARK INTER + INTRA:         -21.457
REMARK INTER:                 -16.822
REMARK INTRA:                  -4.634
REMARK UNBOUND:                -5.490
REMARK SMILES CCCCCCC[C@H](N)[C@H](O)C(=O)N[C@H](C)C(=O)N(C)[C@H](CC(C)C)C(=O)N[C@@H](Cc1ccc(O)cc1)C(=O)N[C@@H](Cc1ccc(O)cc1)C(=O)O
REMARK SMILES IDX 18 1 17 2 15 3 16 4 14 5 12 6 13 7 10 9 11 10 8 12 9 13 7 16
REMARK SMILES IDX 6 17 5 18 4 19 3 20 2 21 1 22 19 23 20 24 21 25 22 26 23 27
REMARK SMILES IDX 24 28 25 29 26 30 27 31 28 32 29 34 30 35 31 36 32 37 37 38
REMARK SMILES IDX 33 39 36 40 34 41 35 42 38 44 39 45 40 46 41 48 42 49 43 50
REMARK SMILES IDX 44 51 49 52 45 53 48 54 46 55 47 56 50 58 51 59 52 60
REMARK H PARENT 14 8 11 11 9 14 9 15 28 33 35 43 40 47 47 57 52 61
ROOT
ATOM      1  O   UNL     1      -6.982  -2.419  -4.556  1.00  0.00    -0.272 OA
ATOM      2  C   UNL     1      -7.175  -3.060  -5.600  1.00  0.00     0.245 C 
ENDROOT
BRANCH   2   3
ATOM      3  C   UNL     1      -8.462  -3.915  -5.717  1.00  0.00     0.168 C 
ATOM      4  C   UNL     1      -8.140  -5.308  -6.248  1.00  0.00     0.041 C 
BRANCH   3   5
ATOM      5  N   UNL     1      -9.272  -3.969  -4.510  1.00  0.00    -0.342 N 
ATOM      6  C   UNL     1     -10.632  -4.193  -4.555  1.00  0.00     0.251 C 
ATOM      7  O   UNL     1     -11.262  -4.320  -5.600  1.00  0.00    -0.272 OA
ATOM      8  H   UNL     1      -8.866  -3.842  -3.586  1.00  0.00     0.164 HD
BRANCH   6   9
ATOM      9  C   UNL     1     -11.255  -4.351  -3.159  1.00  0.00     0.219 C 
BRANCH   9  10
ATOM     10  O   UNL     1     -12.663  -4.086  -3.150  1.00  0.00    -0.382 OA
ATOM     11  H   UNL     1     -12.761  -3.332  -3.771  1.00  0.00     0.211 HD
ENDBRANCH   9  10
BRANCH   9  12
ATOM     12  C   UNL     1     -10.948  -5.724  -2.507  1.00  0.00     0.089 C 
BRANCH  12  13
ATOM     13  N   UNL     1     -10.745  -6.718  -3.585  1.00  0.00    -0.325 NA
ATOM     14  H   UNL     1     -11.420  -7.477  -3.475  1.00  0.00     0.119 HD
ATOM     15  H   UNL     1      -9.829  -7.157  -3.463  1.00  0.00     0.119 HD
ENDBRANCH  12  13
BRANCH  12  16
ATOM     16  C   UNL     1      -9.754  -5.755  -1.523  1.00  0.00     0.022 C 
BRANCH  16  17
ATOM     17  C   UNL     1      -8.883  -7.017  -1.446  1.00  0.00     0.002 C 
BRANCH  17  18
ATOM     18  C   UNL     1      -8.361  -7.355  -0.051  1.00  0.00     0.000 C 
BRANCH  18  19
ATOM     19  C   UNL     1      -9.024  -6.552   1.076  1.00  0.00    -0.000 C 
BRANCH  19  20
ATOM     20  C   UNL     1      -9.487  -7.380   2.278  1.00  0.00    -0.000 C 
BRANCH  20  21
ATOM     21  C   UNL     1     -11.009  -7.534   2.349  1.00  0.00    -0.003 C 
ATOM     22  C   UNL     1     -11.713  -6.476   1.515  1.00  0.00     0.004 C 
ENDBRANCH  20  21
ENDBRANCH  19  20
ENDBRANCH  18  19
ENDBRANCH  17  18
ENDBRANCH  16  17
ENDBRANCH  12  16
ENDBRANCH   9  12
ENDBRANCH   6   9
ENDBRANCH   3   5
ENDBRANCH   2   3
BRANCH   2  23
ATOM     23  N   UNL     1      -6.312  -2.908  -6.679  1.00  0.00    -0.332 N 
ATOM     24  C   UNL     1      -5.077  -3.657  -6.861  1.00  0.00     0.147 C 
BRANCH  23  25
ATOM     25  C   UNL     1      -6.682  -2.024  -7.818  1.00  0.00     0.174 C 
BRANCH  25  26
ATOM     26  C   UNL     1      -5.884  -2.335  -9.106  1.00  0.00     0.038 C 
BRANCH  26  27
ATOM     27  C   UNL     1      -6.628  -2.165 -10.449  1.00  0.00    -0.015 C 
ATOM     28  C   UNL     1      -8.146  -2.238 -10.289  1.00  0.00     0.007 C 
ATOM     29  C   UNL     1      -6.228  -0.904 -11.210  1.00  0.00     0.007 C 
ENDBRANCH  26  27
ENDBRANCH  25  26
BRANCH  25  30
ATOM     30  C   UNL     1      -6.611  -0.541  -7.386  1.00  0.00     0.243 C 
ATOM     31  O   UNL     1      -7.623   0.115  -7.146  1.00  0.00    -0.273 OA
ATOM     32  N   UNL     1      -5.351  -0.009  -7.296  1.00  0.00    -0.342 N 
ATOM     33  H   UNL     1      -4.558  -0.652  -7.373  1.00  0.00     0.164 HD
BRANCH  32  34
ATOM     34  C   UNL     1      -5.094   1.386  -6.928  1.00  0.00     0.175 C 
BRANCH  34  35
ATOM     35  C   UNL     1      -4.655   1.505  -5.460  1.00  0.00     0.070 C 
BRANCH  35  36
ATOM     36  C   UNL     1      -5.460   2.528  -4.691  1.00  0.00    -0.045 A 
ATOM     37  C   UNL     1      -5.560   2.436  -3.294  1.00  0.00     0.007 A 
ATOM     38  C   UNL     1      -6.132   3.562  -5.356  1.00  0.00     0.007 A 
ATOM     39  C   UNL     1      -6.311   3.367  -2.577  1.00  0.00     0.046 A 
ATOM     40  C   UNL     1      -6.886   4.494  -4.638  1.00  0.00     0.046 A 
ATOM     41  C   UNL     1      -6.967   4.388  -3.254  1.00  0.00     0.115 A 
BRANCH  41  42
ATOM     42  O   UNL     1      -7.693   5.276  -2.516  1.00  0.00    -0.508 OA
ATOM     43  H   UNL     1      -7.280   5.353  -1.640  1.00  0.00     0.293 HD
ENDBRANCH  41  42
ENDBRANCH  35  36
ENDBRANCH  34  35
BRANCH  34  44
ATOM     44  C   UNL     1      -4.028   1.948  -7.896  1.00  0.00     0.243 C 
ATOM     45  O   UNL     1      -4.047   1.794  -9.114  1.00  0.00    -0.273 OA
ATOM     46  N   UNL     1      -2.961   2.540  -7.254  1.00  0.00    -0.341 N 
ATOM     47  H   UNL     1      -2.935   2.540  -6.237  1.00  0.00     0.164 HD
BRANCH  46  48
ATOM     48  C   UNL     1      -1.798   3.085  -7.958  1.00  0.00     0.196 C 
BRANCH  48  49
ATOM     49  C   UNL     1      -1.240   4.326  -7.242  1.00  0.00     0.072 C 
BRANCH  49  50
ATOM     50  C   UNL     1      -1.720   4.437  -5.812  1.00  0.00    -0.045 A 
ATOM     51  C   UNL     1      -2.777   5.303  -5.495  1.00  0.00     0.007 A 
ATOM     52  C   UNL     1      -1.110   3.702  -4.788  1.00  0.00     0.007 A 
ATOM     53  C   UNL     1      -3.219   5.424  -4.178  1.00  0.00     0.046 A 
ATOM     54  C   UNL     1      -1.552   3.824  -3.469  1.00  0.00     0.046 A 
ATOM     55  C   UNL     1      -2.604   4.684  -3.175  1.00  0.00     0.115 A 
BRANCH  55  56
ATOM     56  O   UNL     1      -3.065   4.832  -1.900  1.00  0.00    -0.508 OA
ATOM     57  H   UNL     1      -4.031   4.741  -1.912  1.00  0.00     0.293 HD
ENDBRANCH  55  56
ENDBRANCH  49  50
ENDBRANCH  48  49
BRANCH  48  58
ATOM     58  C   UNL     1      -0.712   2.004  -8.038  1.00  0.00     0.326 C 
ATOM     59  O   UNL     1       0.310   1.932  -7.374  1.00  0.00    -0.250 OA
BRANCH  58  60
ATOM     60  O   UNL     1      -0.974   1.039  -8.955  1.00  0.00    -0.480 OA
ATOM     61  H   UNL     1      -0.090   0.836  -9.329  1.00  0.00     0.296 HD
ENDBRANCH  58  60
ENDBRANCH  48  58
ENDBRANCH  46  48
ENDBRANCH  34  44
ENDBRANCH  32  34
ENDBRANCH  25  30
ENDBRANCH  23  25
ENDBRANCH   2  23
TORSDOF 28
ENDMDL
MODEL 10
REMARK VINA RESULT:    -6.393      3.157      8.719
REMARK INTER + INTRA:         -21.415
REMARK INTER:                 -17.346
REMARK INTRA:                  -4.068
REMARK UNBOUND:                -5.490
REMARK SMILES CCCCCCC[C@H](N)[C@H](O)C(=O)N[C@H](C)C(=O)N(C)[C@H](CC(C)C)C(=O)N[C@@H](Cc1ccc(O)cc1)C(=O)N[C@@H](Cc1ccc(O)cc1)C(=O)O
REMARK SMILES IDX 18 1 17 2 15 3 16 4 14 5 12 6 13 7 10 9 11 10 8 12 9 13 7 16
REMARK SMILES IDX 6 17 5 18 4 19 3 20 2 21 1 22 19 23 20 24 21 25 22 26 23 27
REMARK SMILES IDX 24 28 25 29 26 30 27 31 28 32 29 34 30 35 31 36 32 37 37 38
REMARK SMILES IDX 33 39 36 40 34 41 35 42 38 44 39 45 40 46 41 48 42 49 43 50
REMARK SMILES IDX 44 51 49 52 45 53 48 54 46 55 47 56 50 58 51 59 52 60
REMARK H PARENT 14 8 11 11 9 14 9 15 28 33 35 43 40 47 47 57 52 61
ROOT
ATOM      1  O   UNL     1      -7.360  -1.384  -3.880  1.00  0.00    -0.272 OA
ATOM      2  C   UNL     1      -7.992  -2.044  -4.718  1.00  0.00     0.245 C 
ENDROOT
BRANCH   2   3
ATOM      3  C   UNL     1      -8.261  -3.543  -4.432  1.00  0.00     0.168 C 
ATOM      4  C   UNL     1      -6.972  -4.260  -4.045  1.00  0.00     0.041 C 
BRANCH   3   5
ATOM      5  N   UNL     1      -9.331  -3.801  -3.481  1.00  0.00    -0.342 N 
ATOM      6  C   UNL     1     -10.520  -4.384  -3.863  1.00  0.00     0.251 C 
ATOM      7  O   UNL     1     -10.782  -4.687  -5.022  1.00  0.00    -0.272 OA
ATOM      8  H   UNL     1      -9.243  -3.560  -2.496  1.00  0.00     0.164 HD
BRANCH   6   9
ATOM      9  C   UNL     1     -11.443  -4.690  -2.673  1.00  0.00     0.219 C 
BRANCH   9  10
ATOM     10  O   UNL     1     -12.824  -4.448  -2.967  1.00  0.00    -0.382 OA
ATOM     11  H   UNL     1     -12.847  -4.409  -3.948  1.00  0.00     0.211 HD
ENDBRANCH   9  10
BRANCH   9  12
ATOM     12  C   UNL     1     -11.243  -6.117  -2.099  1.00  0.00     0.089 C 
BRANCH  12  13
ATOM     13  N   UNL     1     -12.572  -6.756  -1.963  1.00  0.00    -0.325 NA
ATOM     14  H   UNL     1     -12.502  -7.543  -1.315  1.00  0.00     0.119 HD
ATOM     15  H   UNL     1     -12.833  -7.172  -2.861  1.00  0.00     0.119 HD
ENDBRANCH  12  13
BRANCH  12  16
ATOM     16  C   UNL     1     -10.288  -7.040  -2.894  1.00  0.00     0.022 C 
BRANCH  16  17
ATOM     17  C   UNL     1      -9.090  -7.672  -2.173  1.00  0.00     0.002 C 
BRANCH  17  18
ATOM     18  C   UNL     1      -8.141  -6.679  -1.506  1.00  0.00     0.000 C 
BRANCH  18  19
ATOM     19  C   UNL     1      -7.063  -7.334  -0.633  1.00  0.00    -0.000 C 
BRANCH  19  20
ATOM     20  C   UNL     1      -6.982  -8.860  -0.736  1.00  0.00    -0.000 C 
BRANCH  20  21
ATOM     21  C   UNL     1      -5.867  -9.339  -1.669  1.00  0.00    -0.003 C 
ATOM     22  C   UNL     1      -5.835 -10.857  -1.761  1.00  0.00     0.004 C 
ENDBRANCH  20  21
ENDBRANCH  19  20
ENDBRANCH  18  19
ENDBRANCH  17  18
ENDBRANCH  16  17
ENDBRANCH  12  16
ENDBRANCH   9  12
ENDBRANCH   6   9
ENDBRANCH   3   5
ENDBRANCH   2   3
BRANCH   2  23
ATOM     23  N   UNL     1      -8.548  -1.413  -5.826  1.00  0.00    -0.332 N 
ATOM     24  C   UNL     1      -9.864  -0.791  -5.848  1.00  0.00     0.147 C 
BRANCH  23  25
ATOM     25  C   UNL     1      -7.742  -1.220  -7.063  1.00  0.00     0.174 C 
BRANCH  25  26
ATOM     26  C   UNL     1      -6.730  -2.363  -7.307  1.00  0.00     0.038 C 
BRANCH  26  27
ATOM     27  C   UNL     1      -7.200  -3.537  -8.194  1.00  0.00    -0.015 C 
ATOM     28  C   UNL     1      -6.970  -3.273  -9.682  1.00  0.00     0.007 C 
ATOM     29  C   UNL     1      -6.602  -4.882  -7.789  1.00  0.00     0.007 C 
ENDBRANCH  26  27
ENDBRANCH  25  26
BRANCH  25  30
ATOM     30  C   UNL     1      -7.103   0.188  -7.067  1.00  0.00     0.243 C 
ATOM     31  O   UNL     1      -7.583   1.118  -7.714  1.00  0.00    -0.273 OA
ATOM     32  N   UNL     1      -5.968   0.327  -6.310  1.00  0.00    -0.342 N 
ATOM     33  H   UNL     1      -5.714  -0.448  -5.692  1.00  0.00     0.164 HD
BRANCH  32  34
ATOM     34  C   UNL     1      -5.214   1.580  -6.217  1.00  0.00     0.175 C 
BRANCH  34  35
ATOM     35  C   UNL     1      -4.581   1.750  -4.828  1.00  0.00     0.070 C 
BRANCH  35  36
ATOM     36  C   UNL     1      -3.643   2.933  -4.754  1.00  0.00    -0.045 A 
ATOM     37  C   UNL     1      -4.093   4.210  -5.122  1.00  0.00     0.007 A 
ATOM     38  C   UNL     1      -2.314   2.772  -4.342  1.00  0.00     0.007 A 
ATOM     39  C   UNL     1      -3.231   5.306  -5.070  1.00  0.00     0.046 A 
ATOM     40  C   UNL     1      -1.449   3.868  -4.291  1.00  0.00     0.046 A 
ATOM     41  C   UNL     1      -1.917   5.127  -4.654  1.00  0.00     0.115 A 
BRANCH  41  42
ATOM     42  O   UNL     1      -1.107   6.223  -4.620  1.00  0.00    -0.508 OA
ATOM     43  H   UNL     1      -0.184   5.919  -4.613  1.00  0.00     0.293 HD
ENDBRANCH  41  42
ENDBRANCH  35  36
ENDBRANCH  34  35
BRANCH  34  44
ATOM     44  C   UNL     1      -4.153   1.584  -7.340  1.00  0.00     0.243 C 
ATOM     45  O   UNL     1      -4.225   2.262  -8.361  1.00  0.00    -0.273 OA
ATOM     46  N   UNL     1      -3.158   0.646  -7.158  1.00  0.00    -0.341 N 
ATOM     47  H   UNL     1      -3.205   0.026  -6.354  1.00  0.00     0.164 HD
BRANCH  46  48
ATOM     48  C   UNL     1      -2.080   0.417  -8.123  1.00  0.00     0.196 C 
BRANCH  48  49
ATOM     49  C   UNL     1      -0.866   1.314  -7.830  1.00  0.00     0.072 C 
BRANCH  49  50
ATOM     50  C   UNL     1      -0.887   2.600  -8.624  1.00  0.00    -0.045 A 
ATOM     51  C   UNL     1      -0.715   2.566 -10.015  1.00  0.00     0.007 A 
ATOM     52  C   UNL     1      -1.056   3.837  -7.988  1.00  0.00     0.007 A 
ATOM     53  C   UNL     1      -0.720   3.747 -10.757  1.00  0.00     0.046 A 
ATOM     54  C   UNL     1      -1.059   5.020  -8.731  1.00  0.00     0.046 A 
ATOM     55  C   UNL     1      -0.892   4.964 -10.110  1.00  0.00     0.115 A 
BRANCH  55  56
ATOM     56  O   UNL     1      -0.888   6.096 -10.871  1.00  0.00    -0.508 OA
ATOM     57  H   UNL     1      -1.452   6.757 -10.439  1.00  0.00     0.293 HD
ENDBRANCH  55  56
ENDBRANCH  49  50
ENDBRANCH  48  49
BRANCH  48  58
ATOM     58  C   UNL     1      -1.659  -1.058  -8.060  1.00  0.00     0.326 C 
ATOM     59  O   UNL     1      -0.916  -1.580  -7.244  1.00  0.00    -0.250 OA
BRANCH  58  60
ATOM     60  O   UNL     1      -2.213  -1.821  -9.035  1.00  0.00    -0.480 OA
ATOM     61  H   UNL     1      -3.144  -1.922  -8.741  1.00  0.00     0.296 HD
ENDBRANCH  58  60
ENDBRANCH  48  58
ENDBRANCH  46  48
ENDBRANCH  34  44
ENDBRANCH  32  34
ENDBRANCH  25  30
ENDBRANCH  23  25
ENDBRANCH   2  23
TORSDOF 28
ENDMDL
MODEL 11
REMARK VINA RESULT:    -6.393      2.424      7.818
REMARK INTER + INTRA:         -21.413
REMARK INTER:                 -15.516
REMARK INTRA:                  -5.897
REMARK UNBOUND:                -5.490
REMARK SMILES CCCCCCC[C@H](N)[C@H](O)C(=O)N[C@H](C)C(=O)N(C)[C@H](CC(C)C)C(=O)N[C@@H](Cc1ccc(O)cc1)C(=O)N[C@@H](Cc1ccc(O)cc1)C(=O)O
REMARK SMILES IDX 18 1 17 2 15 3 16 4 14 5 12 6 13 7 10 9 11 10 8 12 9 13 7 16
REMARK SMILES IDX 6 17 5 18 4 19 3 20 2 21 1 22 19 23 20 24 21 25 22 26 23 27
REMARK SMILES IDX 24 28 25 29 26 30 27 31 28 32 29 34 30 35 31 36 32 37 37 38
REMARK SMILES IDX 33 39 36 40 34 41 35 42 38 44 39 45 40 46 41 48 42 49 43 50
REMARK SMILES IDX 44 51 49 52 45 53 48 54 46 55 47 56 50 58 51 59 52 60
REMARK H PARENT 14 8 11 11 9 14 9 15 28 33 35 43 40 47 47 57 52 61
ROOT
ATOM      1  O   UNL     1      -6.558  -2.124  -5.408  1.00  0.00    -0.272 OA
ATOM      2  C   UNL     1      -6.685  -2.527  -6.574  1.00  0.00     0.245 C 
ENDROOT
BRANCH   2   3
ATOM      3  C   UNL     1      -7.085  -4.006  -6.807  1.00  0.00     0.168 C 
ATOM      4  C   UNL     1      -5.857  -4.858  -7.107  1.00  0.00     0.041 C 
BRANCH   3   5
ATOM      5  N   UNL     1      -7.907  -4.589  -5.758  1.00  0.00    -0.342 N 
ATOM      6  C   UNL     1      -9.279  -4.453  -5.748  1.00  0.00     0.251 C 
ATOM      7  O   UNL     1      -9.901  -3.805  -6.584  1.00  0.00    -0.272 OA
ATOM      8  H   UNL     1      -7.501  -5.120  -4.991  1.00  0.00     0.164 HD
BRANCH   6   9
ATOM      9  C   UNL     1      -9.949  -5.268  -4.630  1.00  0.00     0.219 C 
BRANCH   9  10
ATOM     10  O   UNL     1      -9.490  -6.624  -4.584  1.00  0.00    -0.382 OA
ATOM     11  H   UNL     1     -10.304  -7.137  -4.386  1.00  0.00     0.211 HD
ENDBRANCH   9  10
BRANCH   9  12
ATOM     12  C   UNL     1      -9.833  -4.600  -3.236  1.00  0.00     0.089 C 
BRANCH  12  13
ATOM     13  N   UNL     1      -8.416  -4.651  -2.809  1.00  0.00    -0.325 NA
ATOM     14  H   UNL     1      -8.191  -3.801  -2.288  1.00  0.00     0.119 HD
ATOM     15  H   UNL     1      -7.819  -4.620  -3.639  1.00  0.00     0.119 HD
ENDBRANCH  12  13
BRANCH  12  16
ATOM     16  C   UNL     1     -10.368  -3.151  -3.131  1.00  0.00     0.022 C 
BRANCH  16  17
ATOM     17  C   UNL     1      -9.565  -2.115  -2.333  1.00  0.00     0.002 C 
BRANCH  17  18
ATOM     18  C   UNL     1      -8.955  -0.990  -3.166  1.00  0.00     0.000 C 
BRANCH  18  19
ATOM     19  C   UNL     1      -9.731  -0.673  -4.451  1.00  0.00    -0.000 C 
BRANCH  19  20
ATOM     20  C   UNL     1     -10.692   0.515  -4.353  1.00  0.00    -0.000 C 
BRANCH  20  21
ATOM     21  C   UNL     1     -10.505   1.533  -5.481  1.00  0.00    -0.003 C 
ATOM     22  C   UNL     1      -9.386   1.117  -6.423  1.00  0.00     0.004 C 
ENDBRANCH  20  21
ENDBRANCH  19  20
ENDBRANCH  18  19
ENDBRANCH  17  18
ENDBRANCH  16  17
ENDBRANCH  12  16
ENDBRANCH   9  12
ENDBRANCH   6   9
ENDBRANCH   3   5
ENDBRANCH   2   3
BRANCH   2  23
ATOM     23  N   UNL     1      -6.589  -1.632  -7.634  1.00  0.00    -0.332 N 
ATOM     24  C   UNL     1      -7.686  -1.289  -8.527  1.00  0.00     0.147 C 
BRANCH  23  25
ATOM     25  C   UNL     1      -5.341  -0.849  -7.845  1.00  0.00     0.174 C 
BRANCH  25  26
ATOM     26  C   UNL     1      -4.072  -1.601  -7.380  1.00  0.00     0.038 C 
BRANCH  26  27
ATOM     27  C   UNL     1      -2.778  -1.359  -8.188  1.00  0.00    -0.015 C 
ATOM     28  C   UNL     1      -3.057  -1.055  -9.660  1.00  0.00     0.007 C 
ATOM     29  C   UNL     1      -1.874  -0.289  -7.580  1.00  0.00     0.007 C 
ENDBRANCH  26  27
ENDBRANCH  25  26
BRANCH  25  30
ATOM     30  C   UNL     1      -5.488   0.562  -7.231  1.00  0.00     0.243 C 
ATOM     31  O   UNL     1      -5.632   1.563  -7.931  1.00  0.00    -0.273 OA
ATOM     32  N   UNL     1      -5.440   0.621  -5.862  1.00  0.00    -0.342 N 
ATOM     33  H   UNL     1      -5.461  -0.264  -5.349  1.00  0.00     0.164 HD
BRANCH  32  34
ATOM     34  C   UNL     1      -5.535   1.875  -5.110  1.00  0.00     0.175 C 
BRANCH  34  35
ATOM     35  C   UNL     1      -6.438   1.720  -3.877  1.00  0.00     0.070 C 
BRANCH  35  36
ATOM     36  C   UNL     1      -7.476   2.815  -3.771  1.00  0.00    -0.045 A 
ATOM     37  C   UNL     1      -7.549   3.811  -4.756  1.00  0.00     0.007 A 
ATOM     38  C   UNL     1      -8.359   2.865  -2.684  1.00  0.00     0.007 A 
ATOM     39  C   UNL     1      -8.494   4.833  -4.660  1.00  0.00     0.046 A 
ATOM     40  C   UNL     1      -9.305   3.889  -2.586  1.00  0.00     0.046 A 
ATOM     41  C   UNL     1      -9.364   4.863  -3.577  1.00  0.00     0.115 A 
BRANCH  41  42
ATOM     42  O   UNL     1     -10.270   5.880  -3.519  1.00  0.00    -0.508 OA
ATOM     43  H   UNL     1     -11.158   5.505  -3.643  1.00  0.00     0.293 HD
ENDBRANCH  41  42
ENDBRANCH  35  36
ENDBRANCH  34  35
BRANCH  34  44
ATOM     44  C   UNL     1      -4.103   2.312  -4.726  1.00  0.00     0.243 C 
ATOM     45  O   UNL     1      -3.197   1.538  -4.433  1.00  0.00    -0.273 OA
ATOM     46  N   UNL     1      -3.959   3.679  -4.612  1.00  0.00    -0.341 N 
ATOM     47  H   UNL     1      -4.771   4.275  -4.752  1.00  0.00     0.164 HD
BRANCH  46  48
ATOM     48  C   UNL     1      -2.713   4.326  -4.194  1.00  0.00     0.196 C 
BRANCH  48  49
ATOM     49  C   UNL     1      -2.143   5.216  -5.310  1.00  0.00     0.072 C 
BRANCH  49  50
ATOM     50  C   UNL     1      -1.127   4.496  -6.167  1.00  0.00    -0.045 A 
ATOM     51  C   UNL     1      -0.729   5.049  -7.393  1.00  0.00     0.007 A 
ATOM     52  C   UNL     1      -0.587   3.267  -5.766  1.00  0.00     0.007 A 
ATOM     53  C   UNL     1       0.198   4.387  -8.199  1.00  0.00     0.046 A 
ATOM     54  C   UNL     1       0.340   2.604  -6.573  1.00  0.00     0.046 A 
ATOM     55  C   UNL     1       0.726   3.170  -7.783  1.00  0.00     0.115 A 
BRANCH  55  56
ATOM     56  O   UNL     1       1.627   2.555  -8.600  1.00  0.00    -0.508 OA
ATOM     57  H   UNL     1       2.520   2.779  -8.294  1.00  0.00     0.293 HD
ENDBRANCH  55  56
ENDBRANCH  49  50
ENDBRANCH  48  49
BRANCH  48  58
ATOM     58  C   UNL     1      -2.987   5.176  -2.946  1.00  0.00     0.326 C 
ATOM     59  O   UNL     1      -3.813   4.964  -2.073  1.00  0.00    -0.250 OA
BRANCH  58  60
ATOM     60  O   UNL     1      -2.183   6.265  -2.846  1.00  0.00    -0.480 OA
ATOM     61  H   UNL     1      -1.287   5.876  -2.744  1.00  0.00     0.296 HD
ENDBRANCH  58  60
ENDBRANCH  48  58
ENDBRANCH  46  48
ENDBRANCH  34  44
ENDBRANCH  32  34
ENDBRANCH  25  30
ENDBRANCH  23  25
ENDBRANCH   2  23
TORSDOF 28
ENDMDL
MODEL 12
REMARK VINA RESULT:    -6.360      2.094      6.643
REMARK INTER + INTRA:         -21.331
REMARK INTER:                 -16.346
REMARK INTRA:                  -4.986
REMARK UNBOUND:                -5.490
REMARK SMILES CCCCCCC[C@H](N)[C@H](O)C(=O)N[C@H](C)C(=O)N(C)[C@H](CC(C)C)C(=O)N[C@@H](Cc1ccc(O)cc1)C(=O)N[C@@H](Cc1ccc(O)cc1)C(=O)O
REMARK SMILES IDX 18 1 17 2 15 3 16 4 14 5 12 6 13 7 10 9 11 10 8 12 9 13 7 16
REMARK SMILES IDX 6 17 5 18 4 19 3 20 2 21 1 22 19 23 20 24 21 25 22 26 23 27
REMARK SMILES IDX 24 28 25 29 26 30 27 31 28 32 29 34 30 35 31 36 32 37 37 38
REMARK SMILES IDX 33 39 36 40 34 41 35 42 38 44 39 45 40 46 41 48 42 49 43 50
REMARK SMILES IDX 44 51 49 52 45 53 48 54 46 55 47 56 50 58 51 59 52 60
REMARK H PARENT 14 8 11 11 9 14 9 15 28 33 35 43 40 47 47 57 52 61
ROOT
ATOM      1  O   UNL     1      -6.189   2.226  -1.407  1.00  0.00    -0.272 OA
ATOM      2  C   UNL     1      -6.544   2.884  -2.397  1.00  0.00     0.245 C 
ENDROOT
BRANCH   2   3
ATOM      3  C   UNL     1      -5.894   4.269  -2.637  1.00  0.00     0.168 C 
ATOM      4  C   UNL     1      -6.415   5.293  -1.635  1.00  0.00     0.041 C 
BRANCH   3   5
ATOM      5  N   UNL     1      -4.440   4.260  -2.697  1.00  0.00    -0.342 N 
ATOM      6  C   UNL     1      -3.760   4.405  -3.887  1.00  0.00     0.251 C 
ATOM      7  O   UNL     1      -4.315   4.508  -4.975  1.00  0.00    -0.272 OA
ATOM      8  H   UNL     1      -3.870   4.146  -1.862  1.00  0.00     0.164 HD
BRANCH   6   9
ATOM      9  C   UNL     1      -2.238   4.509  -3.693  1.00  0.00     0.219 C 
BRANCH   9  10
ATOM     10  O   UNL     1      -1.684   3.357  -3.045  1.00  0.00    -0.382 OA
ATOM     11  H   UNL     1      -2.467   2.915  -2.649  1.00  0.00     0.211 HD
ENDBRANCH   9  10
BRANCH   9  12
ATOM     12  C   UNL     1      -1.477   4.821  -5.007  1.00  0.00     0.089 C 
BRANCH  12  13
ATOM     13  N   UNL     1      -0.282   5.631  -4.674  1.00  0.00    -0.325 NA
ATOM     14  H   UNL     1      -0.242   5.770  -3.662  1.00  0.00     0.119 HD
ATOM     15  H   UNL     1      -0.397   6.568  -5.068  1.00  0.00     0.119 HD
ENDBRANCH  12  13
BRANCH  12  16
ATOM     16  C   UNL     1      -1.068   3.598  -5.862  1.00  0.00     0.022 C 
BRANCH  16  17
ATOM     17  C   UNL     1      -1.064   3.723  -7.391  1.00  0.00     0.002 C 
BRANCH  17  18
ATOM     18  C   UNL     1       0.321   3.813  -8.027  1.00  0.00     0.000 C 
BRANCH  18  19
ATOM     19  C   UNL     1       0.478   2.977  -9.305  1.00  0.00    -0.000 C 
BRANCH  19  20
ATOM     20  C   UNL     1       0.418   3.772 -10.613  1.00  0.00    -0.000 C 
BRANCH  20  21
ATOM     21  C   UNL     1      -0.966   4.362 -10.893  1.00  0.00    -0.003 C 
ATOM     22  C   UNL     1      -0.911   5.878 -11.000  1.00  0.00     0.004 C 
ENDBRANCH  20  21
ENDBRANCH  19  20
ENDBRANCH  18  19
ENDBRANCH  17  18
ENDBRANCH  16  17
ENDBRANCH  12  16
ENDBRANCH   9  12
ENDBRANCH   6   9
ENDBRANCH   3   5
ENDBRANCH   2   3
BRANCH   2  23
ATOM     23  N   UNL     1      -7.414   2.326  -3.327  1.00  0.00    -0.332 N 
ATOM     24  C   UNL     1      -8.215   1.133  -3.097  1.00  0.00     0.147 C 
BRANCH  23  25
ATOM     25  C   UNL     1      -7.680   3.020  -4.617  1.00  0.00     0.174 C 
BRANCH  25  26
ATOM     26  C   UNL     1      -9.170   3.390  -4.807  1.00  0.00     0.038 C 
BRANCH  26  27
ATOM     27  C   UNL     1      -9.482   4.841  -5.236  1.00  0.00    -0.015 C 
ATOM     28  C   UNL     1      -8.525   5.854  -4.609  1.00  0.00     0.007 C 
ATOM     29  C   UNL     1      -9.544   5.027  -6.750  1.00  0.00     0.007 C 
ENDBRANCH  26  27
ENDBRANCH  25  26
BRANCH  25  30
ATOM     30  C   UNL     1      -7.087   2.207  -5.791  1.00  0.00     0.243 C 
ATOM     31  O   UNL     1      -7.735   1.966  -6.808  1.00  0.00    -0.273 OA
ATOM     32  N   UNL     1      -5.799   1.769  -5.618  1.00  0.00    -0.342 N 
ATOM     33  H   UNL     1      -5.281   2.127  -4.812  1.00  0.00     0.164 HD
BRANCH  32  34
ATOM     34  C   UNL     1      -5.086   0.962  -6.613  1.00  0.00     0.175 C 
BRANCH  34  35
ATOM     35  C   UNL     1      -3.592   0.848  -6.273  1.00  0.00     0.070 C 
BRANCH  35  36
ATOM     36  C   UNL     1      -2.774   0.286  -7.414  1.00  0.00    -0.045 A 
ATOM     37  C   UNL     1      -2.835   0.884  -8.682  1.00  0.00     0.007 A 
ATOM     38  C   UNL     1      -1.967  -0.844  -7.232  1.00  0.00     0.007 A 
ATOM     39  C   UNL     1      -2.095   0.365  -9.745  1.00  0.00     0.046 A 
ATOM     40  C   UNL     1      -1.227  -1.366  -8.296  1.00  0.00     0.046 A 
ATOM     41  C   UNL     1      -1.297  -0.755  -9.543  1.00  0.00     0.115 A 
BRANCH  41  42
ATOM     42  O   UNL     1      -0.592  -1.232 -10.608  1.00  0.00    -0.508 OA
ATOM     43  H   UNL     1      -0.362  -2.160 -10.430  1.00  0.00     0.293 HD
ENDBRANCH  41  42
ENDBRANCH  35  36
ENDBRANCH  34  35
BRANCH  34  44
ATOM     44  C   UNL     1      -5.770  -0.422  -6.685  1.00  0.00     0.243 C 
ATOM     45  O   UNL     1      -5.793  -1.233  -5.764  1.00  0.00    -0.273 OA
ATOM     46  N   UNL     1      -6.251  -0.731  -7.939  1.00  0.00    -0.341 N 
ATOM     47  H   UNL     1      -6.105  -0.074  -8.701  1.00  0.00     0.164 HD
BRANCH  46  48
ATOM     48  C   UNL     1      -6.878  -2.014  -8.268  1.00  0.00     0.196 C 
BRANCH  48  49
ATOM     49  C   UNL     1      -8.407  -1.943  -8.122  1.00  0.00     0.072 C 
BRANCH  49  50
ATOM     50  C   UNL     1      -8.954  -3.012  -7.203  1.00  0.00    -0.045 A 
ATOM     51  C   UNL     1     -10.318  -3.336  -7.241  1.00  0.00     0.007 A 
ATOM     52  C   UNL     1      -8.121  -3.676  -6.293  1.00  0.00     0.007 A 
ATOM     53  C   UNL     1     -10.836  -4.311  -6.389  1.00  0.00     0.046 A 
ATOM     54  C   UNL     1      -8.640  -4.651  -5.439  1.00  0.00     0.046 A 
ATOM     55  C   UNL     1      -9.994  -4.962  -5.495  1.00  0.00     0.115 A 
BRANCH  55  56
ATOM     56  O   UNL     1     -10.540  -5.907  -4.678  1.00  0.00    -0.508 OA
ATOM     57  H   UNL     1     -11.349  -5.541  -4.285  1.00  0.00     0.293 HD
ENDBRANCH  55  56
ENDBRANCH  49  50
ENDBRANCH  48  49
BRANCH  48  58
ATOM     58  C   UNL     1      -6.515  -2.391  -9.711  1.00  0.00     0.326 C 
ATOM     59  O   UNL     1      -5.774  -1.787 -10.469  1.00  0.00    -0.250 OA
BRANCH  58  60
ATOM     60  O   UNL     1      -7.101  -3.540 -10.133  1.00  0.00    -0.480 OA
ATOM     61  H   UNL     1      -7.587  -3.263 -10.940  1.00  0.00     0.296 HD
ENDBRANCH  58  60
ENDBRANCH  48  58
ENDBRANCH  46  48
ENDBRANCH  34  44
ENDBRANCH  32  34
ENDBRANCH  25  30
ENDBRANCH  23  25
ENDBRANCH   2  23
TORSDOF 28
ENDMDL
MODEL 13
REMARK VINA RESULT:    -6.337      1.758      6.485
REMARK INTER + INTRA:         -21.275
REMARK INTER:                 -15.624
REMARK INTRA:                  -5.651
REMARK UNBOUND:                -5.490
REMARK SMILES CCCCCCC[C@H](N)[C@H](O)C(=O)N[C@H](C)C(=O)N(C)[C@H](CC(C)C)C(=O)N[C@@H](Cc1ccc(O)cc1)C(=O)N[C@@H](Cc1ccc(O)cc1)C(=O)O
REMARK SMILES IDX 18 1 17 2 15 3 16 4 14 5 12 6 13 7 10 9 11 10 8 12 9 13 7 16
REMARK SMILES IDX 6 17 5 18 4 19 3 20 2 21 1 22 19 23 20 24 21 25 22 26 23 27
REMARK SMILES IDX 24 28 25 29 26 30 27 31 28 32 29 34 30 35 31 36 32 37 37 38
REMARK SMILES IDX 33 39 36 40 34 41 35 42 38 44 39 45 40 46 41 48 42 49 43 50
REMARK SMILES IDX 44 51 49 52 45 53 48 54 46 55 47 56 50 58 51 59 52 60
REMARK H PARENT 14 8 11 11 9 14 9 15 28 33 35 43 40 47 47 57 52 61
ROOT
ATOM      1  O   UNL     1      -8.540   1.894  -3.457  1.00  0.00    -0.272 OA
ATOM      2  C   UNL     1      -9.254   2.794  -3.923  1.00  0.00     0.245 C 
ENDROOT
BRANCH   2   3
ATOM      3  C   UNL     1      -9.302   4.157  -3.189  1.00  0.00     0.168 C 
ATOM      4  C   UNL     1     -10.388   4.159  -2.119  1.00  0.00     0.041 C 
BRANCH   3   5
ATOM      5  N   UNL     1      -8.024   4.614  -2.665  1.00  0.00    -0.342 N 
ATOM      6  C   UNL     1      -7.053   5.153  -3.482  1.00  0.00     0.251 C 
ATOM      7  O   UNL     1      -7.170   5.249  -4.699  1.00  0.00    -0.272 OA
ATOM      8  H   UNL     1      -7.798   4.553  -1.675  1.00  0.00     0.164 HD
BRANCH   6   9
ATOM      9  C   UNL     1      -5.849   5.696  -2.695  1.00  0.00     0.219 C 
BRANCH   9  10
ATOM     10  O   UNL     1      -6.193   6.094  -1.363  1.00  0.00    -0.382 OA
ATOM     11  H   UNL     1      -5.335   6.380  -0.978  1.00  0.00     0.211 HD
ENDBRANCH   9  10
BRANCH   9  12
ATOM     12  C   UNL     1      -4.640   4.724  -2.685  1.00  0.00     0.089 C 
BRANCH  12  13
ATOM     13  N   UNL     1      -5.146   3.346  -2.877  1.00  0.00    -0.325 NA
ATOM     14  H   UNL     1      -4.850   3.004  -3.793  1.00  0.00     0.119 HD
ATOM     15  H   UNL     1      -6.168   3.371  -2.920  1.00  0.00     0.119 HD
ENDBRANCH  12  13
BRANCH  12  16
ATOM     16  C   UNL     1      -3.518   5.026  -3.708  1.00  0.00     0.022 C 
BRANCH  16  17
ATOM     17  C   UNL     1      -2.105   4.486  -3.448  1.00  0.00     0.002 C 
BRANCH  17  18
ATOM     18  C   UNL     1      -1.404   3.900  -4.672  1.00  0.00     0.000 C 
BRANCH  18  19
ATOM     19  C   UNL     1      -0.906   4.954  -5.670  1.00  0.00    -0.000 C 
BRANCH  19  20
ATOM     20  C   UNL     1      -1.460   4.817  -7.091  1.00  0.00    -0.000 C 
BRANCH  20  21
ATOM     21  C   UNL     1      -0.369   4.828  -8.164  1.00  0.00    -0.003 C 
ATOM     22  C   UNL     1      -0.935   5.193  -9.527  1.00  0.00     0.004 C 
ENDBRANCH  20  21
ENDBRANCH  19  20
ENDBRANCH  18  19
ENDBRANCH  17  18
ENDBRANCH  16  17
ENDBRANCH  12  16
ENDBRANCH   9  12
ENDBRANCH   6   9
ENDBRANCH   3   5
ENDBRANCH   2   3
BRANCH   2  23
ATOM     23  N   UNL     1      -9.896   2.611  -5.143  1.00  0.00    -0.332 N 
ATOM     24  C   UNL     1     -11.069   1.774  -5.342  1.00  0.00     0.147 C 
BRANCH  23  25
ATOM     25  C   UNL     1      -9.474   3.394  -6.338  1.00  0.00     0.174 C 
BRANCH  25  26
ATOM     26  C   UNL     1     -10.666   3.830  -7.223  1.00  0.00     0.038 C 
BRANCH  26  27
ATOM     27  C   UNL     1     -10.959   5.344  -7.306  1.00  0.00    -0.015 C 
ATOM     28  C   UNL     1     -12.455   5.647  -7.382  1.00  0.00     0.007 C 
ATOM     29  C   UNL     1     -10.304   6.152  -6.188  1.00  0.00     0.007 C 
ENDBRANCH  26  27
ENDBRANCH  25  26
BRANCH  25  30
ATOM     30  C   UNL     1      -8.372   2.634  -7.110  1.00  0.00     0.243 C 
ATOM     31  O   UNL     1      -8.527   2.270  -8.274  1.00  0.00    -0.273 OA
ATOM     32  N   UNL     1      -7.218   2.389  -6.410  1.00  0.00    -0.342 N 
ATOM     33  H   UNL     1      -7.111   2.845  -5.500  1.00  0.00     0.164 HD
BRANCH  32  34
ATOM     34  C   UNL     1      -6.079   1.659  -6.972  1.00  0.00     0.175 C 
BRANCH  34  35
ATOM     35  C   UNL     1      -4.756   2.112  -6.336  1.00  0.00     0.070 C 
BRANCH  35  36
ATOM     36  C   UNL     1      -3.555   1.811  -7.204  1.00  0.00    -0.045 A 
ATOM     37  C   UNL     1      -3.570   2.154  -8.565  1.00  0.00     0.007 A 
ATOM     38  C   UNL     1      -2.428   1.170  -6.676  1.00  0.00     0.007 A 
ATOM     39  C   UNL     1      -2.473   1.867  -9.378  1.00  0.00     0.046 A 
ATOM     40  C   UNL     1      -1.329   0.882  -7.489  1.00  0.00     0.046 A 
ATOM     41  C   UNL     1      -1.362   1.235  -8.834  1.00  0.00     0.115 A 
BRANCH  41  42
ATOM     42  O   UNL     1      -0.312   0.970  -9.663  1.00  0.00    -0.508 OA
ATOM     43  H   UNL     1       0.459   1.471  -9.347  1.00  0.00     0.293 HD
ENDBRANCH  41  42
ENDBRANCH  35  36
ENDBRANCH  34  35
BRANCH  34  44
ATOM     44  C   UNL     1      -6.330   0.148  -6.767  1.00  0.00     0.243 C 
ATOM     45  O   UNL     1      -5.952  -0.492  -5.789  1.00  0.00    -0.273 OA
ATOM     46  N   UNL     1      -6.914  -0.464  -7.855  1.00  0.00    -0.341 N 
ATOM     47  H   UNL     1      -7.103   0.087  -8.689  1.00  0.00     0.164 HD
BRANCH  46  48
ATOM     48  C   UNL     1      -7.188  -1.901  -7.921  1.00  0.00     0.196 C 
BRANCH  48  49
ATOM     49  C   UNL     1      -8.689  -2.178  -8.110  1.00  0.00     0.072 C 
BRANCH  49  50
ATOM     50  C   UNL     1      -9.237  -3.140  -7.080  1.00  0.00    -0.045 A 
ATOM     51  C   UNL     1     -10.622  -3.241  -6.885  1.00  0.00     0.007 A 
ATOM     52  C   UNL     1      -8.379  -3.922  -6.296  1.00  0.00     0.007 A 
ATOM     53  C   UNL     1     -11.139  -4.115  -5.929  1.00  0.00     0.046 A 
ATOM     54  C   UNL     1      -8.896  -4.797  -5.338  1.00  0.00     0.046 A 
ATOM     55  C   UNL     1     -10.273  -4.886  -5.163  1.00  0.00     0.115 A 
BRANCH  55  56
ATOM     56  O   UNL     1     -10.818  -5.727  -4.238  1.00  0.00    -0.508 OA
ATOM     57  H   UNL     1     -11.636  -6.097  -4.606  1.00  0.00     0.293 HD
ENDBRANCH  55  56
ENDBRANCH  49  50
ENDBRANCH  48  49
BRANCH  48  58
ATOM     58  C   UNL     1      -6.402  -2.505  -9.093  1.00  0.00     0.326 C 
ATOM     59  O   UNL     1      -6.851  -3.134 -10.038  1.00  0.00    -0.250 OA
BRANCH  58  60
ATOM     60  O   UNL     1      -5.067  -2.273  -9.027  1.00  0.00    -0.480 OA
ATOM     61  H   UNL     1      -4.965  -1.780  -8.184  1.00  0.00     0.296 HD
ENDBRANCH  58  60
ENDBRANCH  48  58
ENDBRANCH  46  48
ENDBRANCH  34  44
ENDBRANCH  32  34
ENDBRANCH  25  30
ENDBRANCH  23  25
ENDBRANCH   2  23
TORSDOF 28
ENDMDL
MODEL 14
REMARK VINA RESULT:    -6.325      2.350      7.144
REMARK INTER + INTRA:         -21.246
REMARK INTER:                 -15.296
REMARK INTRA:                  -5.949
REMARK UNBOUND:                -5.490
REMARK SMILES CCCCCCC[C@H](N)[C@H](O)C(=O)N[C@H](C)C(=O)N(C)[C@H](CC(C)C)C(=O)N[C@@H](Cc1ccc(O)cc1)C(=O)N[C@@H](Cc1ccc(O)cc1)C(=O)O
REMARK SMILES IDX 18 1 17 2 15 3 16 4 14 5 12 6 13 7 10 9 11 10 8 12 9 13 7 16
REMARK SMILES IDX 6 17 5 18 4 19 3 20 2 21 1 22 19 23 20 24 21 25 22 26 23 27
REMARK SMILES IDX 24 28 25 29 26 30 27 31 28 32 29 34 30 35 31 36 32 37 37 38
REMARK SMILES IDX 33 39 36 40 34 41 35 42 38 44 39 45 40 46 41 48 42 49 43 50
REMARK SMILES IDX 44 51 49 52 45 53 48 54 46 55 47 56 50 58 51 59 52 60
REMARK H PARENT 14 8 11 11 9 14 9 15 28 33 35 43 40 47 47 57 52 61
ROOT
ATOM      1  O   UNL     1     -11.663   1.349  -4.538  1.00  0.00    -0.272 OA
ATOM      2  C   UNL     1     -10.486   1.091  -4.247  1.00  0.00     0.245 C 
ENDROOT
BRANCH   2   3
ATOM      3  C   UNL     1     -10.202   0.276  -2.961  1.00  0.00     0.168 C 
ATOM      4  C   UNL     1     -11.504  -0.142  -2.286  1.00  0.00     0.041 C 
BRANCH   3   5
ATOM      5  N   UNL     1      -9.297  -0.848  -3.138  1.00  0.00    -0.342 N 
ATOM      6  C   UNL     1      -9.532  -1.832  -4.074  1.00  0.00     0.251 C 
ATOM      7  O   UNL     1     -10.527  -1.859  -4.791  1.00  0.00    -0.272 OA
ATOM      8  H   UNL     1      -8.455  -0.953  -2.576  1.00  0.00     0.164 HD
BRANCH   6   9
ATOM      9  C   UNL     1      -8.376  -2.839  -4.183  1.00  0.00     0.219 C 
BRANCH   9  10
ATOM     10  O   UNL     1      -7.279  -2.516  -3.320  1.00  0.00    -0.382 OA
ATOM     11  H   UNL     1      -7.465  -1.590  -3.048  1.00  0.00     0.211 HD
ENDBRANCH   9  10
BRANCH   9  12
ATOM     12  C   UNL     1      -8.827  -4.309  -3.973  1.00  0.00     0.089 C 
BRANCH  12  13
ATOM     13  N   UNL     1     -10.147  -4.302  -3.302  1.00  0.00    -0.325 NA
ATOM     14  H   UNL     1     -10.326  -5.225  -2.904  1.00  0.00     0.119 HD
ATOM     15  H   UNL     1     -10.876  -4.169  -4.007  1.00  0.00     0.119 HD
ENDBRANCH  12  13
BRANCH  12  16
ATOM     16  C   UNL     1      -8.881  -5.189  -5.244  1.00  0.00     0.022 C 
BRANCH  16  17
ATOM     17  C   UNL     1      -8.365  -4.617  -6.572  1.00  0.00     0.002 C 
BRANCH  17  18
ATOM     18  C   UNL     1      -6.939  -5.023  -6.938  1.00  0.00     0.000 C 
BRANCH  18  19
ATOM     19  C   UNL     1      -6.251  -4.068  -7.921  1.00  0.00    -0.000 C 
BRANCH  19  20
ATOM     20  C   UNL     1      -5.168  -3.174  -7.310  1.00  0.00    -0.000 C 
BRANCH  20  21
ATOM     21  C   UNL     1      -5.735  -1.931  -6.620  1.00  0.00    -0.003 C 
ATOM     22  C   UNL     1      -6.806  -1.266  -7.470  1.00  0.00     0.004 C 
ENDBRANCH  20  21
ENDBRANCH  19  20
ENDBRANCH  18  19
ENDBRANCH  17  18
ENDBRANCH  16  17
ENDBRANCH  12  16
ENDBRANCH   9  12
ENDBRANCH   6   9
ENDBRANCH   3   5
ENDBRANCH   2   3
BRANCH   2  23
ATOM     23  N   UNL     1      -9.463   1.425  -5.128  1.00  0.00    -0.332 N 
ATOM     24  C   UNL     1      -9.463   1.113  -6.550  1.00  0.00     0.147 C 
BRANCH  23  25
ATOM     25  C   UNL     1      -8.322   2.264  -4.671  1.00  0.00     0.174 C 
BRANCH  25  26
ATOM     26  C   UNL     1      -8.284   3.652  -5.353  1.00  0.00     0.038 C 
BRANCH  26  27
ATOM     27  C   UNL     1      -8.575   4.879  -4.460  1.00  0.00    -0.015 C 
ATOM     28  C   UNL     1      -7.324   5.713  -4.186  1.00  0.00     0.007 C 
ATOM     29  C   UNL     1      -9.703   5.761  -4.988  1.00  0.00     0.007 C 
ENDBRANCH  26  27
ENDBRANCH  25  26
BRANCH  25  30
ATOM     30  C   UNL     1      -6.998   1.475  -4.794  1.00  0.00     0.243 C 
ATOM     31  O   UNL     1      -6.811   0.421  -4.189  1.00  0.00    -0.273 OA
ATOM     32  N   UNL     1      -6.049   2.032  -5.613  1.00  0.00    -0.342 N 
ATOM     33  H   UNL     1      -6.330   2.830  -6.188  1.00  0.00     0.164 HD
BRANCH  32  34
ATOM     34  C   UNL     1      -4.727   1.438  -5.827  1.00  0.00     0.175 C 
BRANCH  34  35
ATOM     35  C   UNL     1      -4.181   1.778  -7.223  1.00  0.00     0.070 C 
BRANCH  35  36
ATOM     36  C   UNL     1      -3.407   0.636  -7.842  1.00  0.00    -0.045 A 
ATOM     37  C   UNL     1      -3.791   0.123  -9.090  1.00  0.00     0.007 A 
ATOM     38  C   UNL     1      -2.317   0.061  -7.175  1.00  0.00     0.007 A 
ATOM     39  C   UNL     1      -3.091  -0.939  -9.663  1.00  0.00     0.046 A 
ATOM     40  C   UNL     1      -1.617  -1.003  -7.747  1.00  0.00     0.046 A 
ATOM     41  C   UNL     1      -2.010  -1.493  -8.988  1.00  0.00     0.115 A 
BRANCH  41  42
ATOM     42  O   UNL     1      -1.355  -2.532  -9.581  1.00  0.00    -0.508 OA
ATOM     43  H   UNL     1      -1.087  -3.158  -8.888  1.00  0.00     0.293 HD
ENDBRANCH  41  42
ENDBRANCH  35  36
ENDBRANCH  34  35
BRANCH  34  44
ATOM     44  C   UNL     1      -3.790   1.936  -4.704  1.00  0.00     0.243 C 
ATOM     45  O   UNL     1      -3.520   1.297  -3.691  1.00  0.00    -0.273 OA
ATOM     46  N   UNL     1      -3.375   3.240  -4.874  1.00  0.00    -0.341 N 
ATOM     47  H   UNL     1      -3.721   3.769  -5.671  1.00  0.00     0.164 HD
BRANCH  46  48
ATOM     48  C   UNL     1      -2.538   3.952  -3.905  1.00  0.00     0.196 C 
BRANCH  48  49
ATOM     49  C   UNL     1      -1.507   4.850  -4.610  1.00  0.00     0.072 C 
BRANCH  49  50
ATOM     50  C   UNL     1      -0.881   4.184  -5.814  1.00  0.00    -0.045 A 
ATOM     51  C   UNL     1      -0.105   3.027  -5.648  1.00  0.00     0.007 A 
ATOM     52  C   UNL     1      -1.047   4.716  -7.099  1.00  0.00     0.007 A 
ATOM     53  C   UNL     1       0.488   2.412  -6.750  1.00  0.00     0.046 A 
ATOM     54  C   UNL     1      -0.452   4.100  -8.202  1.00  0.00     0.046 A 
ATOM     55  C   UNL     1       0.310   2.951  -8.018  1.00  0.00     0.115 A 
BRANCH  55  56
ATOM     56  O   UNL     1       0.909   2.320  -9.069  1.00  0.00    -0.508 OA
ATOM     57  H   UNL     1       1.399   1.556  -8.727  1.00  0.00     0.293 HD
ENDBRANCH  55  56
ENDBRANCH  49  50
ENDBRANCH  48  49
BRANCH  48  58
ATOM     58  C   UNL     1      -3.437   4.809  -3.003  1.00  0.00     0.326 C 
ATOM     59  O   UNL     1      -4.566   4.547  -2.622  1.00  0.00    -0.250 OA
BRANCH  58  60
ATOM     60  O   UNL     1      -2.855   5.968  -2.604  1.00  0.00    -0.480 OA
ATOM     61  H   UNL     1      -3.045   6.583  -3.346  1.00  0.00     0.296 HD
ENDBRANCH  58  60
ENDBRANCH  48  58
ENDBRANCH  46  48
ENDBRANCH  34  44
ENDBRANCH  32  34
ENDBRANCH  25  30
ENDBRANCH  23  25
ENDBRANCH   2  23
TORSDOF 28
ENDMDL
MODEL 15
REMARK VINA RESULT:    -6.314      2.529      6.344
REMARK INTER + INTRA:         -21.216
REMARK INTER:                 -16.743
REMARK INTRA:                  -4.473
REMARK UNBOUND:                -5.490
REMARK SMILES CCCCCCC[C@H](N)[C@H](O)C(=O)N[C@H](C)C(=O)N(C)[C@H](CC(C)C)C(=O)N[C@@H](Cc1ccc(O)cc1)C(=O)N[C@@H](Cc1ccc(O)cc1)C(=O)O
REMARK SMILES IDX 18 1 17 2 15 3 16 4 14 5 12 6 13 7 10 9 11 10 8 12 9 13 7 16
REMARK SMILES IDX 6 17 5 18 4 19 3 20 2 21 1 22 19 23 20 24 21 25 22 26 23 27
REMARK SMILES IDX 24 28 25 29 26 30 27 31 28 32 29 34 30 35 31 36 32 37 37 38
REMARK SMILES IDX 33 39 36 40 34 41 35 42 38 44 39 45 40 46 41 48 42 49 43 50
REMARK SMILES IDX 44 51 49 52 45 53 48 54 46 55 47 56 50 58 51 59 52 60
REMARK H PARENT 14 8 11 11 9 14 9 15 28 33 35 43 40 47 47 57 52 61
ROOT
ATOM      1  O   UNL     1      -4.017   0.914  -4.877  1.00  0.00    -0.272 OA
ATOM      2  C   UNL     1      -5.170   1.358  -4.977  1.00  0.00     0.245 C 
ENDROOT
BRANCH   2   3
ATOM      3  C   UNL     1      -5.686   2.333  -3.889  1.00  0.00     0.168 C 
ATOM      4  C   UNL     1      -6.491   1.588  -2.831  1.00  0.00     0.041 C 
BRANCH   3   5
ATOM      5  N   UNL     1      -4.664   3.181  -3.295  1.00  0.00    -0.342 N 
ATOM      6  C   UNL     1      -4.280   4.373  -3.873  1.00  0.00     0.251 C 
ATOM      7  O   UNL     1      -4.731   4.784  -4.937  1.00  0.00    -0.272 OA
ATOM      8  H   UNL     1      -4.193   2.927  -2.430  1.00  0.00     0.164 HD
BRANCH   6   9
ATOM      9  C   UNL     1      -3.294   5.166  -3.001  1.00  0.00     0.219 C 
BRANCH   9  10
ATOM     10  O   UNL     1      -3.469   4.915  -1.601  1.00  0.00    -0.382 OA
ATOM     11  H   UNL     1      -2.675   4.388  -1.361  1.00  0.00     0.211 HD
ENDBRANCH   9  10
BRANCH   9  12
ATOM     12  C   UNL     1      -1.814   4.964  -3.416  1.00  0.00     0.089 C 
BRANCH  12  13
ATOM     13  N   UNL     1      -1.565   3.512  -3.567  1.00  0.00    -0.325 NA
ATOM     14  H   UNL     1      -0.610   3.368  -3.902  1.00  0.00     0.119 HD
ATOM     15  H   UNL     1      -2.166   3.149  -4.311  1.00  0.00     0.119 HD
ENDBRANCH  12  13
BRANCH  12  16
ATOM     16  C   UNL     1      -1.358   5.716  -4.689  1.00  0.00     0.022 C 
BRANCH  16  17
ATOM     17  C   UNL     1      -0.599   4.948  -5.780  1.00  0.00     0.002 C 
BRANCH  17  18
ATOM     18  C   UNL     1      -1.391   4.699  -7.062  1.00  0.00     0.000 C 
BRANCH  18  19
ATOM     19  C   UNL     1      -0.545   4.765  -8.341  1.00  0.00    -0.000 C 
BRANCH  19  20
ATOM     20  C   UNL     1      -1.341   4.940  -9.638  1.00  0.00    -0.000 C 
BRANCH  20  21
ATOM     21  C   UNL     1      -0.464   4.878 -10.892  1.00  0.00    -0.003 C 
ATOM     22  C   UNL     1       0.480   3.687 -10.850  1.00  0.00     0.004 C 
ENDBRANCH  20  21
ENDBRANCH  19  20
ENDBRANCH  18  19
ENDBRANCH  17  18
ENDBRANCH  16  17
ENDBRANCH  12  16
ENDBRANCH   9  12
ENDBRANCH   6   9
ENDBRANCH   3   5
ENDBRANCH   2   3
BRANCH   2  23
ATOM     23  N   UNL     1      -5.928   1.077  -6.109  1.00  0.00    -0.332 N 
ATOM     24  C   UNL     1      -6.918   1.976  -6.684  1.00  0.00     0.147 C 
BRANCH  23  25
ATOM     25  C   UNL     1      -5.668  -0.157  -6.900  1.00  0.00     0.174 C 
BRANCH  25  26
ATOM     26  C   UNL     1      -5.308   0.138  -8.375  1.00  0.00     0.038 C 
BRANCH  26  27
ATOM     27  C   UNL     1      -3.825   0.433  -8.688  1.00  0.00    -0.015 C 
ATOM     28  C   UNL     1      -3.478   1.914  -8.536  1.00  0.00     0.007 C 
ATOM     29  C   UNL     1      -2.852  -0.431  -7.889  1.00  0.00     0.007 C 
ENDBRANCH  26  27
ENDBRANCH  25  26
BRANCH  25  30
ATOM     30  C   UNL     1      -6.839  -1.153  -6.732  1.00  0.00     0.243 C 
ATOM     31  O   UNL     1      -7.605  -1.416  -7.658  1.00  0.00    -0.273 OA
ATOM     32  N   UNL     1      -6.967  -1.714  -5.488  1.00  0.00    -0.342 N 
ATOM     33  H   UNL     1      -6.211  -1.555  -4.816  1.00  0.00     0.164 HD
BRANCH  32  34
ATOM     34  C   UNL     1      -8.033  -2.657  -5.140  1.00  0.00     0.175 C 
BRANCH  34  35
ATOM     35  C   UNL     1      -7.492  -3.831  -4.309  1.00  0.00     0.070 C 
BRANCH  35  36
ATOM     36  C   UNL     1      -8.548  -4.869  -4.005  1.00  0.00    -0.045 A 
ATOM     37  C   UNL     1      -8.960  -5.084  -2.681  1.00  0.00     0.007 A 
ATOM     38  C   UNL     1      -9.112  -5.642  -5.029  1.00  0.00     0.007 A 
ATOM     39  C   UNL     1      -9.924  -6.049  -2.389  1.00  0.00     0.046 A 
ATOM     40  C   UNL     1     -10.077  -6.609  -4.737  1.00  0.00     0.046 A 
ATOM     41  C   UNL     1     -10.475  -6.803  -3.418  1.00  0.00     0.115 A 
BRANCH  41  42
ATOM     42  O   UNL     1     -11.412  -7.738  -3.090  1.00  0.00    -0.508 OA
ATOM     43  H   UNL     1     -12.024  -7.343  -2.447  1.00  0.00     0.293 HD
ENDBRANCH  41  42
ENDBRANCH  35  36
ENDBRANCH  34  35
BRANCH  34  44
ATOM     44  C   UNL     1      -9.135  -1.878  -4.387  1.00  0.00     0.243 C 
ATOM     45  O   UNL     1      -9.008  -1.413  -3.258  1.00  0.00    -0.273 OA
ATOM     46  N   UNL     1     -10.343  -1.856  -5.052  1.00  0.00    -0.341 N 
ATOM     47  H   UNL     1     -10.431  -2.356  -5.933  1.00  0.00     0.164 HD
BRANCH  46  48
ATOM     48  C   UNL     1     -11.552  -1.236  -4.505  1.00  0.00     0.196 C 
BRANCH  48  49
ATOM     49  C   UNL     1     -11.724   0.203  -5.018  1.00  0.00     0.072 C 
BRANCH  49  50
ATOM     50  C   UNL     1     -11.071   1.224  -4.114  1.00  0.00    -0.045 A 
ATOM     51  C   UNL     1     -11.370   1.237  -2.744  1.00  0.00     0.007 A 
ATOM     52  C   UNL     1     -10.183   2.178  -4.627  1.00  0.00     0.007 A 
ATOM     53  C   UNL     1     -10.784   2.183  -1.902  1.00  0.00     0.046 A 
ATOM     54  C   UNL     1      -9.597   3.126  -3.784  1.00  0.00     0.046 A 
ATOM     55  C   UNL     1      -9.902   3.119  -2.428  1.00  0.00     0.115 A 
BRANCH  55  56
ATOM     56  O   UNL     1      -9.353   4.027  -1.572  1.00  0.00    -0.508 OA
ATOM     57  H   UNL     1      -9.626   4.915  -1.851  1.00  0.00     0.293 HD
ENDBRANCH  55  56
ENDBRANCH  49  50
ENDBRANCH  48  49
BRANCH  48  58
ATOM     58  C   UNL     1     -12.771  -2.076  -4.912  1.00  0.00     0.326 C 
ATOM     59  O   UNL     1     -12.944  -3.269  -4.719  1.00  0.00    -0.250 OA
BRANCH  58  60
ATOM     60  O   UNL     1     -13.737  -1.360  -5.539  1.00  0.00    -0.480 OA
ATOM     61  H   UNL     1     -14.551  -1.592  -5.041  1.00  0.00     0.296 HD
ENDBRANCH  58  60
ENDBRANCH  48  58
ENDBRANCH  46  48
ENDBRANCH  34  44
ENDBRANCH  32  34
ENDBRANCH  25  30
ENDBRANCH  23  25
ENDBRANCH   2  23
TORSDOF 28
ENDMDL
MODEL 16
REMARK VINA RESULT:    -6.305      2.617      6.678
REMARK INTER + INTRA:         -21.194
REMARK INTER:                 -15.043
REMARK INTRA:                  -6.151
REMARK UNBOUND:                -5.490
REMARK SMILES CCCCCCC[C@H](N)[C@H](O)C(=O)N[C@H](C)C(=O)N(C)[C@H](CC(C)C)C(=O)N[C@@H](Cc1ccc(O)cc1)C(=O)N[C@@H](Cc1ccc(O)cc1)C(=O)O
REMARK SMILES IDX 18 1 17 2 15 3 16 4 14 5 12 6 13 7 10 9 11 10 8 12 9 13 7 16
REMARK SMILES IDX 6 17 5 18 4 19 3 20 2 21 1 22 19 23 20 24 21 25 22 26 23 27
REMARK SMILES IDX 24 28 25 29 26 30 27 31 28 32 29 34 30 35 31 36 32 37 37 38
REMARK SMILES IDX 33 39 36 40 34 41 35 42 38 44 39 45 40 46 41 48 42 49 43 50
REMARK SMILES IDX 44 51 49 52 45 53 48 54 46 55 47 56 50 58 51 59 52 60
REMARK H PARENT 14 8 11 11 9 14 9 15 28 33 35 43 40 47 47 57 52 61
ROOT
ATOM      1  O   UNL     1      -8.614   0.067  -5.534  1.00  0.00    -0.272 OA
ATOM      2  C   UNL     1      -8.624  -0.312  -6.715  1.00  0.00     0.245 C 
ENDROOT
BRANCH   2   3
ATOM      3  C   UNL     1      -8.473  -1.825  -7.009  1.00  0.00     0.168 C 
ATOM      4  C   UNL     1      -9.449  -2.266  -8.095  1.00  0.00     0.041 C 
BRANCH   3   5
ATOM      5  N   UNL     1      -7.114  -2.260  -7.293  1.00  0.00    -0.342 N 
ATOM      6  C   UNL     1      -6.281  -2.739  -6.304  1.00  0.00     0.251 C 
ATOM      7  O   UNL     1      -6.600  -2.796  -5.121  1.00  0.00    -0.272 OA
ATOM      8  H   UNL     1      -6.726  -2.227  -8.233  1.00  0.00     0.164 HD
BRANCH   6   9
ATOM      9  C   UNL     1      -4.949  -3.272  -6.855  1.00  0.00     0.219 C 
BRANCH   9  10
ATOM     10  O   UNL     1      -5.112  -4.454  -7.648  1.00  0.00    -0.382 OA
ATOM     11  H   UNL     1      -5.021  -4.128  -8.570  1.00  0.00     0.211 HD
ENDBRANCH   9  10
BRANCH   9  12
ATOM     12  C   UNL     1      -4.136  -2.199  -7.626  1.00  0.00     0.089 C 
BRANCH  12  13
ATOM     13  N   UNL     1      -4.339  -0.892  -6.961  1.00  0.00    -0.325 NA
ATOM     14  H   UNL     1      -3.449  -0.569  -6.575  1.00  0.00     0.119 HD
ATOM     15  H   UNL     1      -4.949  -1.024  -6.150  1.00  0.00     0.119 HD
ENDBRANCH  12  13
BRANCH  12  16
ATOM     16  C   UNL     1      -2.624  -2.483  -7.790  1.00  0.00     0.022 C 
BRANCH  16  17
ATOM     17  C   UNL     1      -1.643  -1.303  -7.833  1.00  0.00     0.002 C 
BRANCH  17  18
ATOM     18  C   UNL     1      -1.297  -0.804  -9.234  1.00  0.00     0.000 C 
BRANCH  18  19
ATOM     19  C   UNL     1      -2.248  -1.305 -10.329  1.00  0.00    -0.000 C 
BRANCH  19  20
ATOM     20  C   UNL     1      -3.317  -0.301 -10.770  1.00  0.00    -0.000 C 
BRANCH  20  21
ATOM     21  C   UNL     1      -2.990   1.139 -10.368  1.00  0.00    -0.003 C 
ATOM     22  C   UNL     1      -3.264   2.109 -11.507  1.00  0.00     0.004 C 
ENDBRANCH  20  21
ENDBRANCH  19  20
ENDBRANCH  18  19
ENDBRANCH  17  18
ENDBRANCH  16  17
ENDBRANCH  12  16
ENDBRANCH   9  12
ENDBRANCH   6   9
ENDBRANCH   3   5
ENDBRANCH   2   3
BRANCH   2  23
ATOM     23  N   UNL     1      -8.889   0.596  -7.735  1.00  0.00    -0.332 N 
ATOM     24  C   UNL     1     -10.222   0.974  -8.178  1.00  0.00     0.147 C 
BRANCH  23  25
ATOM     25  C   UNL     1      -7.778   1.358  -8.369  1.00  0.00     0.174 C 
BRANCH  25  26
ATOM     26  C   UNL     1      -6.801   0.454  -9.158  1.00  0.00     0.038 C 
BRANCH  26  27
ATOM     27  C   UNL     1      -6.917   0.476 -10.698  1.00  0.00    -0.015 C 
ATOM     28  C   UNL     1      -8.079  -0.374 -11.210  1.00  0.00     0.007 C 
ATOM     29  C   UNL     1      -6.984   1.885 -11.282  1.00  0.00     0.007 C 
ENDBRANCH  26  27
ENDBRANCH  25  26
BRANCH  25  30
ATOM     30  C   UNL     1      -7.083   2.258  -7.321  1.00  0.00     0.243 C 
ATOM     31  O   UNL     1      -7.636   3.249  -6.847  1.00  0.00    -0.273 OA
ATOM     32  N   UNL     1      -5.814   1.882  -6.965  1.00  0.00    -0.342 N 
ATOM     33  H   UNL     1      -5.479   0.973  -7.294  1.00  0.00     0.164 HD
BRANCH  32  34
ATOM     34  C   UNL     1      -4.995   2.630  -6.007  1.00  0.00     0.175 C 
BRANCH  34  35
ATOM     35  C   UNL     1      -5.174   2.093  -4.579  1.00  0.00     0.070 C 
BRANCH  35  36
ATOM     36  C   UNL     1      -6.211   2.861  -3.791  1.00  0.00    -0.045 A 
ATOM     37  C   UNL     1      -7.235   2.172  -3.122  1.00  0.00     0.007 A 
ATOM     38  C   UNL     1      -6.182   4.260  -3.735  1.00  0.00     0.007 A 
ATOM     39  C   UNL     1      -8.205   2.872  -2.403  1.00  0.00     0.046 A 
ATOM     40  C   UNL     1      -7.153   4.962  -3.017  1.00  0.00     0.046 A 
ATOM     41  C   UNL     1      -8.156   4.260  -2.356  1.00  0.00     0.115 A 
BRANCH  41  42
ATOM     42  O   UNL     1      -9.124   4.907  -1.646  1.00  0.00    -0.508 OA
ATOM     43  H   UNL     1      -9.876   4.301  -1.535  1.00  0.00     0.293 HD
ENDBRANCH  41  42
ENDBRANCH  35  36
ENDBRANCH  34  35
BRANCH  34  44
ATOM     44  C   UNL     1      -3.524   2.554  -6.473  1.00  0.00     0.243 C 
ATOM     45  O   UNL     1      -3.056   1.640  -7.146  1.00  0.00    -0.273 OA
ATOM     46  N   UNL     1      -2.730   3.554  -5.951  1.00  0.00    -0.341 N 
ATOM     47  H   UNL     1      -3.140   4.222  -5.303  1.00  0.00     0.164 HD
BRANCH  46  48
ATOM     48  C   UNL     1      -1.289   3.649  -6.196  1.00  0.00     0.196 C 
BRANCH  48  49
ATOM     49  C   UNL     1      -0.960   4.802  -7.160  1.00  0.00     0.072 C 
BRANCH  49  50
ATOM     50  C   UNL     1      -0.590   4.315  -8.543  1.00  0.00    -0.045 A 
ATOM     51  C   UNL     1       0.085   3.096  -8.698  1.00  0.00     0.007 A 
ATOM     52  C   UNL     1      -0.894   5.076  -9.679  1.00  0.00     0.007 A 
ATOM     53  C   UNL     1       0.443   2.644  -9.968  1.00  0.00     0.046 A 
ATOM     54  C   UNL     1      -0.534   4.624 -10.951  1.00  0.00     0.046 A 
ATOM     55  C   UNL     1       0.131   3.410 -11.084  1.00  0.00     0.115 A 
BRANCH  55  56
ATOM     56  O   UNL     1       0.500   2.933 -12.307  1.00  0.00    -0.508 OA
ATOM     57  H   UNL     1       1.139   3.551 -12.696  1.00  0.00     0.293 HD
ENDBRANCH  55  56
ENDBRANCH  49  50
ENDBRANCH  48  49
BRANCH  48  58
ATOM     58  C   UNL     1      -0.570   3.875  -4.859  1.00  0.00     0.326 C 
ATOM     59  O   UNL     1      -0.953   4.551  -3.918  1.00  0.00    -0.250 OA
BRANCH  58  60
ATOM     60  O   UNL     1       0.611   3.215  -4.762  1.00  0.00    -0.480 OA
ATOM     61  H   UNL     1       0.464   2.407  -5.299  1.00  0.00     0.296 HD
ENDBRANCH  58  60
ENDBRANCH  48  58
ENDBRANCH  46  48
ENDBRANCH  34  44
ENDBRANCH  32  34
ENDBRANCH  25  30
ENDBRANCH  23  25
ENDBRANCH   2  23
TORSDOF 28
ENDMDL
MODEL 17
REMARK VINA RESULT:    -6.277      2.498      6.660
REMARK INTER + INTRA:         -21.124
REMARK INTER:                 -16.168
REMARK INTRA:                  -4.956
REMARK UNBOUND:                -5.490
REMARK SMILES CCCCCCC[C@H](N)[C@H](O)C(=O)N[C@H](C)C(=O)N(C)[C@H](CC(C)C)C(=O)N[C@@H](Cc1ccc(O)cc1)C(=O)N[C@@H](Cc1ccc(O)cc1)C(=O)O
REMARK SMILES IDX 18 1 17 2 15 3 16 4 14 5 12 6 13 7 10 9 11 10 8 12 9 13 7 16
REMARK SMILES IDX 6 17 5 18 4 19 3 20 2 21 1 22 19 23 20 24 21 25 22 26 23 27
REMARK SMILES IDX 24 28 25 29 26 30 27 31 28 32 29 34 30 35 31 36 32 37 37 38
REMARK SMILES IDX 33 39 36 40 34 41 35 42 38 44 39 45 40 46 41 48 42 49 43 50
REMARK SMILES IDX 44 51 49 52 45 53 48 54 46 55 47 56 50 58 51 59 52 60
REMARK H PARENT 14 8 11 11 9 14 9 15 28 33 35 43 40 47 47 57 52 61
ROOT
ATOM      1  O   UNL     1      -8.024   0.301 -10.262  1.00  0.00    -0.272 OA
ATOM      2  C   UNL     1      -7.006  -0.399 -10.164  1.00  0.00     0.245 C 
ENDROOT
BRANCH   2   3
ATOM      3  C   UNL     1      -5.624   0.301 -10.151  1.00  0.00     0.168 C 
ATOM      4  C   UNL     1      -5.597   1.427  -9.122  1.00  0.00     0.041 C 
BRANCH   3   5
ATOM      5  N   UNL     1      -4.487  -0.594 -10.005  1.00  0.00    -0.342 N 
ATOM      6  C   UNL     1      -3.360  -0.473 -10.790  1.00  0.00     0.251 C 
ATOM      7  O   UNL     1      -3.246   0.356 -11.686  1.00  0.00    -0.272 OA
ATOM      8  H   UNL     1      -4.480  -1.344  -9.318  1.00  0.00     0.164 HD
BRANCH   6   9
ATOM      9  C   UNL     1      -2.234  -1.430 -10.365  1.00  0.00     0.219 C 
BRANCH   9  10
ATOM     10  O   UNL     1      -1.630  -2.101 -11.478  1.00  0.00    -0.382 OA
ATOM     11  H   UNL     1      -0.688  -2.188 -11.212  1.00  0.00     0.211 HD
ENDBRANCH   9  10
BRANCH   9  12
ATOM     12  C   UNL     1      -1.156  -0.748  -9.483  1.00  0.00     0.089 C 
BRANCH  12  13
ATOM     13  N   UNL     1      -0.394   0.201 -10.326  1.00  0.00    -0.325 NA
ATOM     14  H   UNL     1      -0.734   0.144 -11.288  1.00  0.00     0.119 HD
ATOM     15  H   UNL     1       0.581  -0.104 -10.369  1.00  0.00     0.119 HD
ENDBRANCH  12  13
BRANCH  12  16
ATOM     16  C   UNL     1      -1.674  -0.032  -8.212  1.00  0.00     0.022 C 
BRANCH  16  17
ATOM     17  C   UNL     1      -1.231   1.411  -7.934  1.00  0.00     0.002 C 
BRANCH  17  18
ATOM     18  C   UNL     1      -2.175   2.488  -8.464  1.00  0.00     0.000 C 
BRANCH  18  19
ATOM     19  C   UNL     1      -1.639   3.918  -8.313  1.00  0.00    -0.000 C 
BRANCH  19  20
ATOM     20  C   UNL     1      -0.527   4.302  -9.292  1.00  0.00    -0.000 C 
BRANCH  20  21
ATOM     21  C   UNL     1      -1.049   4.619 -10.697  1.00  0.00    -0.003 C 
ATOM     22  C   UNL     1      -0.912   6.099 -11.018  1.00  0.00     0.004 C 
ENDBRANCH  20  21
ENDBRANCH  19  20
ENDBRANCH  18  19
ENDBRANCH  17  18
ENDBRANCH  16  17
ENDBRANCH  12  16
ENDBRANCH   9  12
ENDBRANCH   6   9
ENDBRANCH   3   5
ENDBRANCH   2   3
BRANCH   2  23
ATOM     23  N   UNL     1      -7.121  -1.768  -9.948  1.00  0.00    -0.332 N 
ATOM     24  C   UNL     1      -7.333  -2.755 -10.997  1.00  0.00     0.147 C 
BRANCH  23  25
ATOM     25  C   UNL     1      -6.898  -2.335  -8.590  1.00  0.00     0.174 C 
BRANCH  25  26
ATOM     26  C   UNL     1      -6.981  -3.880  -8.561  1.00  0.00     0.038 C 
BRANCH  26  27
ATOM     27  C   UNL     1      -6.363  -4.591  -7.337  1.00  0.00    -0.015 C 
ATOM     28  C   UNL     1      -5.106  -3.889  -6.826  1.00  0.00     0.007 C 
ATOM     29  C   UNL     1      -7.356  -4.812  -6.198  1.00  0.00     0.007 C 
ENDBRANCH  26  27
ENDBRANCH  25  26
BRANCH  25  30
ATOM     30  C   UNL     1      -7.827  -1.644  -7.566  1.00  0.00     0.243 C 
ATOM     31  O   UNL     1      -9.052  -1.691  -7.664  1.00  0.00    -0.273 OA
ATOM     32  N   UNL     1      -7.195  -0.973  -6.550  1.00  0.00    -0.342 N 
ATOM     33  H   UNL     1      -6.184  -1.098  -6.457  1.00  0.00     0.164 HD
BRANCH  32  34
ATOM     34  C   UNL     1      -7.914  -0.238  -5.506  1.00  0.00     0.175 C 
BRANCH  34  35
ATOM     35  C   UNL     1      -7.830  -0.962  -4.154  1.00  0.00     0.070 C 
BRANCH  35  36
ATOM     36  C   UNL     1      -9.035  -1.834  -3.882  1.00  0.00    -0.045 A 
ATOM     37  C   UNL     1      -8.875  -3.070  -3.237  1.00  0.00     0.007 A 
ATOM     38  C   UNL     1     -10.316  -1.437  -4.286  1.00  0.00     0.007 A 
ATOM     39  C   UNL     1      -9.979  -3.888  -2.994  1.00  0.00     0.046 A 
ATOM     40  C   UNL     1     -11.421  -2.256  -4.044  1.00  0.00     0.046 A 
ATOM     41  C   UNL     1     -11.242  -3.475  -3.399  1.00  0.00     0.115 A 
BRANCH  41  42
ATOM     42  O   UNL     1     -12.294  -4.305  -3.145  1.00  0.00    -0.508 OA
ATOM     43  H   UNL     1     -12.485  -4.273  -2.193  1.00  0.00     0.293 HD
ENDBRANCH  41  42
ENDBRANCH  35  36
ENDBRANCH  34  35
BRANCH  34  44
ATOM     44  C   UNL     1      -7.326   1.189  -5.434  1.00  0.00     0.243 C 
ATOM     45  O   UNL     1      -7.546   2.073  -6.258  1.00  0.00    -0.273 OA
ATOM     46  N   UNL     1      -6.410   1.355  -4.417  1.00  0.00    -0.341 N 
ATOM     47  H   UNL     1      -6.173   0.558  -3.831  1.00  0.00     0.164 HD
BRANCH  46  48
ATOM     48  C   UNL     1      -5.671   2.599  -4.192  1.00  0.00     0.196 C 
BRANCH  48  49
ATOM     49  C   UNL     1      -4.898   3.027  -5.452  1.00  0.00     0.072 C 
BRANCH  49  50
ATOM     50  C   UNL     1      -3.552   3.635  -5.130  1.00  0.00    -0.045 A 
ATOM     51  C   UNL     1      -2.508   2.818  -4.672  1.00  0.00     0.007 A 
ATOM     52  C   UNL     1      -3.333   5.012  -5.263  1.00  0.00     0.007 A 
ATOM     53  C   UNL     1      -1.265   3.370  -4.359  1.00  0.00     0.046 A 
ATOM     54  C   UNL     1      -2.089   5.564  -4.949  1.00  0.00     0.046 A 
ATOM     55  C   UNL     1      -1.065   4.738  -4.501  1.00  0.00     0.115 A 
BRANCH  55  56
ATOM     56  O   UNL     1       0.163   5.238  -4.183  1.00  0.00    -0.508 OA
ATOM     57  H   UNL     1       0.090   6.202  -4.106  1.00  0.00     0.293 HD
ENDBRANCH  55  56
ENDBRANCH  49  50
ENDBRANCH  48  49
BRANCH  48  58
ATOM     58  C   UNL     1      -6.660   3.703  -3.796  1.00  0.00     0.326 C 
ATOM     59  O   UNL     1      -7.190   3.865  -2.708  1.00  0.00    -0.250 OA
BRANCH  58  60
ATOM     60  O   UNL     1      -6.930   4.575  -4.800  1.00  0.00    -0.480 OA
ATOM     61  H   UNL     1      -6.063   5.004  -4.966  1.00  0.00     0.296 HD
ENDBRANCH  58  60
ENDBRANCH  48  58
ENDBRANCH  46  48
ENDBRANCH  34  44
ENDBRANCH  32  34
ENDBRANCH  25  30
ENDBRANCH  23  25
ENDBRANCH   2  23
TORSDOF 28
ENDMDL
MODEL 18
REMARK VINA RESULT:    -6.276      3.453      7.408
REMARK INTER + INTRA:         -21.122
REMARK INTER:                 -17.748
REMARK INTRA:                  -3.374
REMARK UNBOUND:                -5.490
REMARK SMILES CCCCCCC[C@H](N)[C@H](O)C(=O)N[C@H](C)C(=O)N(C)[C@H](CC(C)C)C(=O)N[C@@H](Cc1ccc(O)cc1)C(=O)N[C@@H](Cc1ccc(O)cc1)C(=O)O
REMARK SMILES IDX 18 1 17 2 15 3 16 4 14 5 12 6 13 7 10 9 11 10 8 12 9 13 7 16
REMARK SMILES IDX 6 17 5 18 4 19 3 20 2 21 1 22 19 23 20 24 21 25 22 26 23 27
REMARK SMILES IDX 24 28 25 29 26 30 27 31 28 32 29 34 30 35 31 36 32 37 37 38
REMARK SMILES IDX 33 39 36 40 34 41 35 42 38 44 39 45 40 46 41 48 42 49 43 50
REMARK SMILES IDX 44 51 49 52 45 53 48 54 46 55 47 56 50 58 51 59 52 60
REMARK H PARENT 14 8 11 11 9 14 9 15 28 33 35 43 40 47 47 57 52 61
ROOT
ATOM      1  O   UNL     1      -6.815   1.582  -1.469  1.00  0.00    -0.272 OA
ATOM      2  C   UNL     1      -7.121   1.970  -2.606  1.00  0.00     0.245 C 
ENDROOT
BRANCH   2   3
ATOM      3  C   UNL     1      -6.725   3.406  -3.031  1.00  0.00     0.168 C 
ATOM      4  C   UNL     1      -7.727   4.425  -2.499  1.00  0.00     0.041 C 
BRANCH   3   5
ATOM      5  N   UNL     1      -5.354   3.780  -2.717  1.00  0.00    -0.342 N 
ATOM      6  C   UNL     1      -4.580   4.510  -3.593  1.00  0.00     0.251 C 
ATOM      7  O   UNL     1      -4.963   4.860  -4.704  1.00  0.00    -0.272 OA
ATOM      8  H   UNL     1      -4.914   3.516  -1.838  1.00  0.00     0.164 HD
BRANCH   6   9
ATOM      9  C   UNL     1      -3.221   4.910  -2.995  1.00  0.00     0.219 C 
BRANCH   9  10
ATOM     10  O   UNL     1      -3.229   4.918  -1.562  1.00  0.00    -0.382 OA
ATOM     11  H   UNL     1      -3.251   3.964  -1.326  1.00  0.00     0.211 HD
ENDBRANCH   9  10
BRANCH   9  12
ATOM     12  C   UNL     1      -2.044   4.057  -3.535  1.00  0.00     0.089 C 
BRANCH  12  13
ATOM     13  N   UNL     1      -2.596   2.812  -4.116  1.00  0.00    -0.325 NA
ATOM     14  H   UNL     1      -2.625   2.089  -3.395  1.00  0.00     0.119 HD
ATOM     15  H   UNL     1      -1.945   2.459  -4.821  1.00  0.00     0.119 HD
ENDBRANCH  12  13
BRANCH  12  16
ATOM     16  C   UNL     1      -1.114   4.754  -4.557  1.00  0.00     0.022 C 
BRANCH  16  17
ATOM     17  C   UNL     1      -0.975   4.161  -5.966  1.00  0.00     0.002 C 
BRANCH  17  18
ATOM     18  C   UNL     1      -1.634   4.975  -7.077  1.00  0.00     0.000 C 
BRANCH  18  19
ATOM     19  C   UNL     1      -0.775   5.120  -8.340  1.00  0.00    -0.000 C 
BRANCH  19  20
ATOM     20  C   UNL     1      -0.700   3.870  -9.221  1.00  0.00    -0.000 C 
BRANCH  20  21
ATOM     21  C   UNL     1      -0.342   4.184 -10.676  1.00  0.00    -0.003 C 
ATOM     22  C   UNL     1      -0.920   5.521 -11.114  1.00  0.00     0.004 C 
ENDBRANCH  20  21
ENDBRANCH  19  20
ENDBRANCH  18  19
ENDBRANCH  17  18
ENDBRANCH  16  17
ENDBRANCH  12  16
ENDBRANCH   9  12
ENDBRANCH   6   9
ENDBRANCH   3   5
ENDBRANCH   2   3
BRANCH   2  23
ATOM     23  N   UNL     1      -7.696   1.085  -3.512  1.00  0.00    -0.332 N 
ATOM     24  C   UNL     1      -6.997   0.486  -4.639  1.00  0.00     0.147 C 
BRANCH  23  25
ATOM     25  C   UNL     1      -9.082   0.585  -3.296  1.00  0.00     0.174 C 
BRANCH  25  26
ATOM     26  C   UNL     1      -9.954   1.562  -2.473  1.00  0.00     0.038 C 
BRANCH  26  27
ATOM     27  C   UNL     1     -11.219   2.121  -3.161  1.00  0.00    -0.015 C 
ATOM     28  C   UNL     1     -12.373   1.119  -3.166  1.00  0.00     0.007 C 
ATOM     29  C   UNL     1     -11.675   3.463  -2.595  1.00  0.00     0.007 C 
ENDBRANCH  26  27
ENDBRANCH  25  26
BRANCH  25  30
ATOM     30  C   UNL     1      -9.045  -0.850  -2.722  1.00  0.00     0.243 C 
ATOM     31  O   UNL     1      -8.299  -1.715  -3.179  1.00  0.00    -0.273 OA
ATOM     32  N   UNL     1      -9.901  -1.094  -1.678  1.00  0.00    -0.342 N 
ATOM     33  H   UNL     1     -10.383  -0.292  -1.264  1.00  0.00     0.164 HD
BRANCH  32  34
ATOM     34  C   UNL     1     -10.021  -2.402  -1.028  1.00  0.00     0.175 C 
BRANCH  34  35
ATOM     35  C   UNL     1     -10.721  -2.286   0.334  1.00  0.00     0.070 C 
BRANCH  35  36
ATOM     36  C   UNL     1     -10.816  -0.859   0.824  1.00  0.00    -0.045 A 
ATOM     37  C   UNL     1     -11.864  -0.035   0.385  1.00  0.00     0.007 A 
ATOM     38  C   UNL     1      -9.856  -0.333   1.698  1.00  0.00     0.007 A 
ATOM     39  C   UNL     1     -11.952   1.288   0.820  1.00  0.00     0.046 A 
ATOM     40  C   UNL     1      -9.943   0.992   2.134  1.00  0.00     0.046 A 
ATOM     41  C   UNL     1     -10.993   1.790   1.691  1.00  0.00     0.115 A 
BRANCH  41  42
ATOM     42  O   UNL     1     -11.114   3.088   2.090  1.00  0.00    -0.508 OA
ATOM     43  H   UNL     1     -11.980   3.196   2.517  1.00  0.00     0.293 HD
ENDBRANCH  41  42
ENDBRANCH  35  36
ENDBRANCH  34  35
BRANCH  34  44
ATOM     44  C   UNL     1     -10.779  -3.346  -1.989  1.00  0.00     0.243 C 
ATOM     45  O   UNL     1     -11.980  -3.269  -2.232  1.00  0.00    -0.273 OA
ATOM     46  N   UNL     1     -10.005  -4.384  -2.462  1.00  0.00    -0.341 N 
ATOM     47  H   UNL     1      -9.044  -4.471  -2.139  1.00  0.00     0.164 HD
BRANCH  46  48
ATOM     48  C   UNL     1     -10.521  -5.442  -3.332  1.00  0.00     0.196 C 
BRANCH  48  49
ATOM     49  C   UNL     1      -9.477  -5.866  -4.379  1.00  0.00     0.072 C 
BRANCH  49  50
ATOM     50  C   UNL     1      -9.507  -4.996  -5.615  1.00  0.00    -0.045 A 
ATOM     51  C   UNL     1      -8.314  -4.701  -6.291  1.00  0.00     0.007 A 
ATOM     52  C   UNL     1     -10.710  -4.459  -6.090  1.00  0.00     0.007 A 
ATOM     53  C   UNL     1      -8.327  -3.889  -7.425  1.00  0.00     0.046 A 
ATOM     54  C   UNL     1     -10.723  -3.644  -7.225  1.00  0.00     0.046 A 
ATOM     55  C   UNL     1      -9.530  -3.367  -7.883  1.00  0.00     0.115 A 
BRANCH  55  56
ATOM     56  O   UNL     1      -9.500  -2.576  -8.994  1.00  0.00    -0.508 OA
ATOM     57  H   UNL     1     -10.002  -1.767  -8.807  1.00  0.00     0.293 HD
ENDBRANCH  55  56
ENDBRANCH  49  50
ENDBRANCH  48  49
BRANCH  48  58
ATOM     58  C   UNL     1     -10.907  -6.653  -2.471  1.00  0.00     0.326 C 
ATOM     59  O   UNL     1     -11.878  -7.379  -2.610  1.00  0.00    -0.250 OA
BRANCH  58  60
ATOM     60  O   UNL     1     -10.030  -6.905  -1.467  1.00  0.00    -0.480 OA
ATOM     61  H   UNL     1     -10.242  -6.214  -0.803  1.00  0.00     0.296 HD
ENDBRANCH  58  60
ENDBRANCH  48  58
ENDBRANCH  46  48
ENDBRANCH  34  44
ENDBRANCH  32  34
ENDBRANCH  25  30
ENDBRANCH  23  25
ENDBRANCH   2  23
TORSDOF 28
ENDMDL
MODEL 19
REMARK VINA RESULT:    -6.252      3.716      8.325
REMARK INTER + INTRA:         -21.064
REMARK INTER:                 -16.423
REMARK INTRA:                  -4.641
REMARK UNBOUND:                -5.490
REMARK SMILES CCCCCCC[C@H](N)[C@H](O)C(=O)N[C@H](C)C(=O)N(C)[C@H](CC(C)C)C(=O)N[C@@H](Cc1ccc(O)cc1)C(=O)N[C@@H](Cc1ccc(O)cc1)C(=O)O
REMARK SMILES IDX 18 1 17 2 15 3 16 4 14 5 12 6 13 7 10 9 11 10 8 12 9 13 7 16
REMARK SMILES IDX 6 17 5 18 4 19 3 20 2 21 1 22 19 23 20 24 21 25 22 26 23 27
REMARK SMILES IDX 24 28 25 29 26 30 27 31 28 32 29 34 30 35 31 36 32 37 37 38
REMARK SMILES IDX 33 39 36 40 34 41 35 42 38 44 39 45 40 46 41 48 42 49 43 50
REMARK SMILES IDX 44 51 49 52 45 53 48 54 46 55 47 56 50 58 51 59 52 60
REMARK H PARENT 14 8 11 11 9 14 9 15 28 33 35 43 40 47 47 57 52 61
ROOT
ATOM      1  O   UNL     1      -6.198   1.175  -2.611  1.00  0.00    -0.272 OA
ATOM      2  C   UNL     1      -6.938   1.931  -3.259  1.00  0.00     0.245 C 
ENDROOT
BRANCH   2   3
ATOM      3  C   UNL     1      -6.664   3.455  -3.213  1.00  0.00     0.168 C 
ATOM      4  C   UNL     1      -7.709   4.168  -2.362  1.00  0.00     0.041 C 
BRANCH   3   5
ATOM      5  N   UNL     1      -5.310   3.821  -2.827  1.00  0.00    -0.342 N 
ATOM      6  C   UNL     1      -4.498   4.576  -3.647  1.00  0.00     0.251 C 
ATOM      7  O   UNL     1      -4.832   4.958  -4.764  1.00  0.00    -0.272 OA
ATOM      8  H   UNL     1      -4.909   3.532  -1.938  1.00  0.00     0.164 HD
BRANCH   6   9
ATOM      9  C   UNL     1      -3.169   4.960  -2.977  1.00  0.00     0.219 C 
BRANCH   9  10
ATOM     10  O   UNL     1      -3.229   4.888  -1.548  1.00  0.00    -0.382 OA
ATOM     11  H   UNL     1      -3.670   4.026  -1.378  1.00  0.00     0.211 HD
ENDBRANCH   9  10
BRANCH   9  12
ATOM     12  C   UNL     1      -1.959   4.155  -3.519  1.00  0.00     0.089 C 
BRANCH  12  13
ATOM     13  N   UNL     1      -2.465   2.897  -4.116  1.00  0.00    -0.325 NA
ATOM     14  H   UNL     1      -2.527   2.182  -3.389  1.00  0.00     0.119 HD
ATOM     15  H   UNL     1      -1.771   2.544  -4.779  1.00  0.00     0.119 HD
ENDBRANCH  12  13
BRANCH  12  16
ATOM     16  C   UNL     1      -1.050   4.895  -4.529  1.00  0.00     0.022 C 
BRANCH  16  17
ATOM     17  C   UNL     1      -1.502   5.018  -5.990  1.00  0.00     0.002 C 
BRANCH  17  18
ATOM     18  C   UNL     1      -0.373   5.010  -7.018  1.00  0.00     0.000 C 
BRANCH  18  19
ATOM     19  C   UNL     1      -0.842   4.777  -8.460  1.00  0.00    -0.000 C 
BRANCH  19  20
ATOM     20  C   UNL     1      -1.602   3.468  -8.693  1.00  0.00    -0.000 C 
BRANCH  20  21
ATOM     21  C   UNL     1      -0.773   2.225  -8.359  1.00  0.00    -0.003 C 
ATOM     22  C   UNL     1      -1.452   1.375  -7.296  1.00  0.00     0.004 C 
ENDBRANCH  20  21
ENDBRANCH  19  20
ENDBRANCH  18  19
ENDBRANCH  17  18
ENDBRANCH  16  17
ENDBRANCH  12  16
ENDBRANCH   9  12
ENDBRANCH   6   9
ENDBRANCH   3   5
ENDBRANCH   2   3
BRANCH   2  23
ATOM     23  N   UNL     1      -7.910   1.400  -4.100  1.00  0.00    -0.332 N 
ATOM     24  C   UNL     1      -8.366   2.025  -5.333  1.00  0.00     0.147 C 
BRANCH  23  25
ATOM     25  C   UNL     1      -8.470   0.045  -3.840  1.00  0.00     0.174 C 
BRANCH  25  26
ATOM     26  C   UNL     1      -8.184  -0.954  -4.985  1.00  0.00     0.038 C 
BRANCH  26  27
ATOM     27  C   UNL     1      -7.331  -2.194  -4.635  1.00  0.00    -0.015 C 
ATOM     28  C   UNL     1      -7.872  -2.953  -3.424  1.00  0.00     0.007 C 
ATOM     29  C   UNL     1      -7.124  -3.142  -5.814  1.00  0.00     0.007 C 
ENDBRANCH  26  27
ENDBRANCH  25  26
BRANCH  25  30
ATOM     30  C   UNL     1      -9.966   0.151  -3.466  1.00  0.00     0.243 C 
ATOM     31  O   UNL     1     -10.481   1.219  -3.139  1.00  0.00    -0.273 OA
ATOM     32  N   UNL     1     -10.674  -1.022  -3.517  1.00  0.00    -0.342 N 
ATOM     33  H   UNL     1     -10.214  -1.836  -3.932  1.00  0.00     0.164 HD
BRANCH  32  34
ATOM     34  C   UNL     1     -12.095  -1.117  -3.170  1.00  0.00     0.175 C 
BRANCH  34  35
ATOM     35  C   UNL     1     -12.783  -2.257  -3.936  1.00  0.00     0.070 C 
BRANCH  35  36
ATOM     36  C   UNL     1     -11.861  -3.427  -4.195  1.00  0.00    -0.045 A 
ATOM     37  C   UNL     1     -11.371  -3.661  -5.489  1.00  0.00     0.007 A 
ATOM     38  C   UNL     1     -11.503  -4.303  -3.162  1.00  0.00     0.007 A 
ATOM     39  C   UNL     1     -10.531  -4.746  -5.741  1.00  0.00     0.046 A 
ATOM     40  C   UNL     1     -10.663  -5.390  -3.413  1.00  0.00     0.046 A 
ATOM     41  C   UNL     1     -10.183  -5.601  -4.702  1.00  0.00     0.115 A 
BRANCH  41  42
ATOM     42  O   UNL     1      -9.363  -6.651  -4.990  1.00  0.00    -0.508 OA
ATOM     43  H   UNL     1      -9.789  -7.466  -4.677  1.00  0.00     0.293 HD
ENDBRANCH  41  42
ENDBRANCH  35  36
ENDBRANCH  34  35
BRANCH  34  44
ATOM     44  C   UNL     1     -12.203  -1.303  -1.639  1.00  0.00     0.243 C 
ATOM     45  O   UNL     1     -13.241  -1.578  -1.045  1.00  0.00    -0.273 OA
ATOM     46  N   UNL     1     -11.037  -1.002  -0.967  1.00  0.00    -0.341 N 
ATOM     47  H   UNL     1     -10.235  -0.666  -1.494  1.00  0.00     0.164 HD
BRANCH  46  48
ATOM     48  C   UNL     1     -10.916  -1.039   0.492  1.00  0.00     0.196 C 
BRANCH  48  49
ATOM     49  C   UNL     1      -9.941  -2.139   0.946  1.00  0.00     0.072 C 
BRANCH  49  50
ATOM     50  C   UNL     1     -10.581  -3.508   0.974  1.00  0.00    -0.045 A 
ATOM     51  C   UNL     1     -11.694  -3.743   1.795  1.00  0.00     0.007 A 
ATOM     52  C   UNL     1     -10.067  -4.560   0.206  1.00  0.00     0.007 A 
ATOM     53  C   UNL     1     -12.285  -5.006   1.839  1.00  0.00     0.046 A 
ATOM     54  C   UNL     1     -10.657  -5.825   0.251  1.00  0.00     0.046 A 
ATOM     55  C   UNL     1     -11.763  -6.037   1.067  1.00  0.00     0.115 A 
BRANCH  55  56
ATOM     56  O   UNL     1     -12.368  -7.256   1.141  1.00  0.00    -0.508 OA
ATOM     57  H   UNL     1     -12.601  -7.537   0.241  1.00  0.00     0.293 HD
ENDBRANCH  55  56
ENDBRANCH  49  50
ENDBRANCH  48  49
BRANCH  48  58
ATOM     58  C   UNL     1     -10.419   0.326   0.987  1.00  0.00     0.326 C 
ATOM     59  O   UNL     1     -10.312   0.699   2.144  1.00  0.00    -0.250 OA
BRANCH  58  60
ATOM     60  O   UNL     1     -10.058   1.166  -0.016  1.00  0.00    -0.480 OA
ATOM     61  H   UNL     1      -9.114   0.943  -0.169  1.00  0.00     0.296 HD
ENDBRANCH  58  60
ENDBRANCH  48  58
ENDBRANCH  46  48
ENDBRANCH  34  44
ENDBRANCH  32  34
ENDBRANCH  25  30
ENDBRANCH  23  25
ENDBRANCH   2  23
TORSDOF 28
ENDMDL
MODEL 20
REMARK VINA RESULT:    -6.250      2.239      7.372
REMARK INTER + INTRA:         -21.058
REMARK INTER:                 -14.796
REMARK INTRA:                  -6.262
REMARK UNBOUND:                -5.490
REMARK SMILES CCCCCCC[C@H](N)[C@H](O)C(=O)N[C@H](C)C(=O)N(C)[C@H](CC(C)C)C(=O)N[C@@H](Cc1ccc(O)cc1)C(=O)N[C@@H](Cc1ccc(O)cc1)C(=O)O
REMARK SMILES IDX 18 1 17 2 15 3 16 4 14 5 12 6 13 7 10 9 11 10 8 12 9 13 7 16
REMARK SMILES IDX 6 17 5 18 4 19 3 20 2 21 1 22 19 23 20 24 21 25 22 26 23 27
REMARK SMILES IDX 24 28 25 29 26 30 27 31 28 32 29 34 30 35 31 36 32 37 37 38
REMARK SMILES IDX 33 39 36 40 34 41 35 42 38 44 39 45 40 46 41 48 42 49 43 50
REMARK SMILES IDX 44 51 49 52 45 53 48 54 46 55 47 56 50 58 51 59 52 60
REMARK H PARENT 14 8 11 11 9 14 9 15 28 33 35 43 40 47 47 57 52 61
ROOT
ATOM      1  O   UNL     1       0.145   3.249  -5.312  1.00  0.00    -0.272 OA
ATOM      2  C   UNL     1      -0.990   3.733  -5.426  1.00  0.00     0.245 C 
ENDROOT
BRANCH   2   3
ATOM      3  C   UNL     1      -1.526   4.641  -4.290  1.00  0.00     0.168 C 
ATOM      4  C   UNL     1      -0.927   6.039  -4.386  1.00  0.00     0.041 C 
BRANCH   3   5
ATOM      5  N   UNL     1      -2.975   4.679  -4.171  1.00  0.00    -0.342 N 
ATOM      6  C   UNL     1      -3.600   4.997  -2.984  1.00  0.00     0.251 C 
ATOM      7  O   UNL     1      -2.995   5.229  -1.942  1.00  0.00    -0.272 OA
ATOM      8  H   UNL     1      -3.584   4.471  -4.959  1.00  0.00     0.164 HD
BRANCH   6   9
ATOM      9  C   UNL     1      -5.126   5.115  -3.128  1.00  0.00     0.219 C 
BRANCH   9  10
ATOM     10  O   UNL     1      -5.589   4.735  -4.429  1.00  0.00    -0.382 OA
ATOM     11  H   UNL     1      -4.771   4.449  -4.891  1.00  0.00     0.211 HD
ENDBRANCH   9  10
BRANCH   9  12
ATOM     12  C   UNL     1      -5.903   4.353  -2.023  1.00  0.00     0.089 C 
BRANCH  12  13
ATOM     13  N   UNL     1      -7.113   5.134  -1.679  1.00  0.00    -0.325 NA
ATOM     14  H   UNL     1      -7.808   5.020  -2.419  1.00  0.00     0.119 HD
ATOM     15  H   UNL     1      -6.878   6.130  -1.686  1.00  0.00     0.119 HD
ENDBRANCH  12  13
BRANCH  12  16
ATOM     16  C   UNL     1      -6.289   2.891  -2.351  1.00  0.00     0.022 C 
BRANCH  16  17
ATOM     17  C   UNL     1      -7.770   2.487  -2.329  1.00  0.00     0.002 C 
BRANCH  17  18
ATOM     18  C   UNL     1      -8.238   1.689  -3.544  1.00  0.00     0.000 C 
BRANCH  18  19
ATOM     19  C   UNL     1      -8.274   0.171  -3.318  1.00  0.00    -0.000 C 
BRANCH  19  20
ATOM     20  C   UNL     1      -9.067  -0.622  -4.360  1.00  0.00    -0.000 C 
BRANCH  20  21
ATOM     21  C   UNL     1     -10.362  -1.218  -3.801  1.00  0.00    -0.003 C 
ATOM     22  C   UNL     1     -11.550  -0.306  -4.062  1.00  0.00     0.004 C 
ENDBRANCH  20  21
ENDBRANCH  19  20
ENDBRANCH  18  19
ENDBRANCH  17  18
ENDBRANCH  16  17
ENDBRANCH  12  16
ENDBRANCH   9  12
ENDBRANCH   6   9
ENDBRANCH   3   5
ENDBRANCH   2   3
BRANCH   2  23
ATOM     23  N   UNL     1      -1.706   3.559  -6.606  1.00  0.00    -0.332 N 
ATOM     24  C   UNL     1      -1.869   4.578  -7.631  1.00  0.00     0.147 C 
BRANCH  23  25
ATOM     25  C   UNL     1      -2.262   2.223  -6.956  1.00  0.00     0.174 C 
BRANCH  25  26
ATOM     26  C   UNL     1      -2.234   1.939  -8.476  1.00  0.00     0.038 C 
BRANCH  26  27
ATOM     27  C   UNL     1      -0.996   1.198  -9.027  1.00  0.00    -0.015 C 
ATOM     28  C   UNL     1      -1.354  -0.145  -9.664  1.00  0.00     0.007 C 
ATOM     29  C   UNL     1      -0.159   2.041  -9.986  1.00  0.00     0.007 C 
ENDBRANCH  26  27
ENDBRANCH  25  26
BRANCH  25  30
ATOM     30  C   UNL     1      -3.658   2.044  -6.316  1.00  0.00     0.243 C 
ATOM     31  O   UNL     1      -3.832   2.131  -5.101  1.00  0.00    -0.273 OA
ATOM     32  N   UNL     1      -4.681   1.776  -7.189  1.00  0.00    -0.342 N 
ATOM     33  H   UNL     1      -4.484   1.859  -8.189  1.00  0.00     0.164 HD
BRANCH  32  34
ATOM     34  C   UNL     1      -6.063   1.549  -6.759  1.00  0.00     0.175 C 
BRANCH  34  35
ATOM     35  C   UNL     1      -7.063   2.210  -7.720  1.00  0.00     0.070 C 
BRANCH  35  36
ATOM     36  C   UNL     1      -8.279   2.763  -7.011  1.00  0.00    -0.045 A 
ATOM     37  C   UNL     1      -9.469   2.020  -6.975  1.00  0.00     0.007 A 
ATOM     38  C   UNL     1      -8.245   4.025  -6.403  1.00  0.00     0.007 A 
ATOM     39  C   UNL     1     -10.600   2.527  -6.335  1.00  0.00     0.046 A 
ATOM     40  C   UNL     1      -9.378   4.534  -5.763  1.00  0.00     0.046 A 
ATOM     41  C   UNL     1     -10.545   3.779  -5.734  1.00  0.00     0.115 A 
BRANCH  41  42
ATOM     42  O   UNL     1     -11.673   4.239  -5.122  1.00  0.00    -0.508 OA
ATOM     43  H   UNL     1     -12.247   3.479  -4.928  1.00  0.00     0.293 HD
ENDBRANCH  41  42
ENDBRANCH  35  36
ENDBRANCH  34  35
BRANCH  34  44
ATOM     44  C   UNL     1      -6.288   0.024  -6.651  1.00  0.00     0.243 C 
ATOM     45  O   UNL     1      -5.825  -0.684  -5.761  1.00  0.00    -0.273 OA
ATOM     46  N   UNL     1      -6.959  -0.509  -7.731  1.00  0.00    -0.341 N 
ATOM     47  H   UNL     1      -7.220   0.101  -8.501  1.00  0.00     0.164 HD
BRANCH  46  48
ATOM     48  C   UNL     1      -7.228  -1.941  -7.885  1.00  0.00     0.196 C 
BRANCH  48  49
ATOM     49  C   UNL     1      -8.729  -2.210  -8.087  1.00  0.00     0.072 C 
BRANCH  49  50
ATOM     50  C   UNL     1      -9.301  -3.132  -7.035  1.00  0.00    -0.045 A 
ATOM     51  C   UNL     1     -10.691  -3.271  -6.909  1.00  0.00     0.007 A 
ATOM     52  C   UNL     1      -8.464  -3.841  -6.165  1.00  0.00     0.007 A 
ATOM     53  C   UNL     1     -11.231  -4.110  -5.934  1.00  0.00     0.046 A 
ATOM     54  C   UNL     1      -9.004  -4.679  -5.187  1.00  0.00     0.046 A 
ATOM     55  C   UNL     1     -10.385  -4.807  -5.081  1.00  0.00     0.115 A 
BRANCH  55  56
ATOM     56  O   UNL     1     -10.953  -5.615  -4.140  1.00  0.00    -0.508 OA
ATOM     57  H   UNL     1     -10.590  -6.508  -4.245  1.00  0.00     0.293 HD
ENDBRANCH  55  56
ENDBRANCH  49  50
ENDBRANCH  48  49
BRANCH  48  58
ATOM     58  C   UNL     1      -6.443  -2.469  -9.093  1.00  0.00     0.326 C 
ATOM     59  O   UNL     1      -5.358  -2.082  -9.496  1.00  0.00    -0.250 OA
BRANCH  58  60
ATOM     60  O   UNL     1      -7.065  -3.487  -9.740  1.00  0.00    -0.480 OA
ATOM     61  H   UNL     1      -7.506  -3.980  -9.014  1.00  0.00     0.296 HD
ENDBRANCH  58  60
ENDBRANCH  48  58
ENDBRANCH  46  48
ENDBRANCH  34  44
ENDBRANCH  32  34
ENDBRANCH  25  30
ENDBRANCH  23  25
ENDBRANCH   2  23
TORSDOF 28
ENDMDL
MODEL 21
REMARK VINA RESULT:    -6.235      3.765      7.071
REMARK INTER + INTRA:         -21.019
REMARK INTER:                 -17.737
REMARK INTRA:                  -3.283
REMARK UNBOUND:                -5.490
REMARK SMILES CCCCCCC[C@H](N)[C@H](O)C(=O)N[C@H](C)C(=O)N(C)[C@H](CC(C)C)C(=O)N[C@@H](Cc1ccc(O)cc1)C(=O)N[C@@H](Cc1ccc(O)cc1)C(=O)O
REMARK SMILES IDX 18 1 17 2 15 3 16 4 14 5 12 6 13 7 10 9 11 10 8 12 9 13 7 16
REMARK SMILES IDX 6 17 5 18 4 19 3 20 2 21 1 22 19 23 20 24 21 25 22 26 23 27
REMARK SMILES IDX 24 28 25 29 26 30 27 31 28 32 29 34 30 35 31 36 32 37 37 38
REMARK SMILES IDX 33 39 36 40 34 41 35 42 38 44 39 45 40 46 41 48 42 49 43 50
REMARK SMILES IDX 44 51 49 52 45 53 48 54 46 55 47 56 50 58 51 59 52 60
REMARK H PARENT 14 8 11 11 9 14 9 15 28 33 35 43 40 47 47 57 52 61
ROOT
ATOM      1  O   UNL     1      -6.175   0.863  -2.961  1.00  0.00    -0.272 OA
ATOM      2  C   UNL     1      -7.274   1.416  -3.110  1.00  0.00     0.245 C 
ENDROOT
BRANCH   2   3
ATOM      3  C   UNL     1      -7.350   2.692  -3.984  1.00  0.00     0.168 C 
ATOM      4  C   UNL     1      -8.662   3.432  -3.751  1.00  0.00     0.041 C 
BRANCH   3   5
ATOM      5  N   UNL     1      -6.201   3.578  -3.873  1.00  0.00    -0.342 N 
ATOM      6  C   UNL     1      -5.838   4.152  -2.673  1.00  0.00     0.251 C 
ATOM      7  O   UNL     1      -6.468   3.999  -1.632  1.00  0.00    -0.272 OA
ATOM      8  H   UNL     1      -5.622   3.808  -4.677  1.00  0.00     0.164 HD
BRANCH   6   9
ATOM      9  C   UNL     1      -4.516   4.932  -2.763  1.00  0.00     0.219 C 
BRANCH   9  10
ATOM     10  O   UNL     1      -3.773   4.902  -1.539  1.00  0.00    -0.382 OA
ATOM     11  H   UNL     1      -3.325   4.027  -1.561  1.00  0.00     0.211 HD
ENDBRANCH   9  10
BRANCH   9  12
ATOM     12  C   UNL     1      -3.629   4.491  -3.957  1.00  0.00     0.089 C 
BRANCH  12  13
ATOM     13  N   UNL     1      -4.057   5.243  -5.159  1.00  0.00    -0.325 NA
ATOM     14  H   UNL     1      -5.032   5.019  -5.366  1.00  0.00     0.119 HD
ATOM     15  H   UNL     1      -3.529   4.904  -5.967  1.00  0.00     0.119 HD
ENDBRANCH  12  13
BRANCH  12  16
ATOM     16  C   UNL     1      -2.102   4.635  -3.756  1.00  0.00     0.022 C 
BRANCH  16  17
ATOM     17  C   UNL     1      -1.398   5.902  -4.260  1.00  0.00     0.002 C 
BRANCH  17  18
ATOM     18  C   UNL     1      -0.342   5.668  -5.338  1.00  0.00     0.000 C 
BRANCH  18  19
ATOM     19  C   UNL     1      -0.603   4.432  -6.209  1.00  0.00    -0.000 C 
BRANCH  19  20
ATOM     20  C   UNL     1      -1.306   4.711  -7.540  1.00  0.00    -0.000 C 
BRANCH  20  21
ATOM     21  C   UNL     1      -0.477   4.292  -8.757  1.00  0.00    -0.003 C 
ATOM     22  C   UNL     1       0.901   3.797  -8.344  1.00  0.00     0.004 C 
ENDBRANCH  20  21
ENDBRANCH  19  20
ENDBRANCH  18  19
ENDBRANCH  17  18
ENDBRANCH  16  17
ENDBRANCH  12  16
ENDBRANCH   9  12
ENDBRANCH   6   9
ENDBRANCH   3   5
ENDBRANCH   2   3
BRANCH   2  23
ATOM     23  N   UNL     1      -8.425   0.824  -2.601  1.00  0.00    -0.332 N 
ATOM     24  C   UNL     1      -9.018   1.145  -1.311  1.00  0.00     0.147 C 
BRANCH  23  25
ATOM     25  C   UNL     1      -9.217  -0.120  -3.436  1.00  0.00     0.174 C 
BRANCH  25  26
ATOM     26  C   UNL     1     -10.655   0.380  -3.712  1.00  0.00     0.038 C 
BRANCH  26  27
ATOM     27  C   UNL     1     -11.163   0.282  -5.167  1.00  0.00    -0.015 C 
ATOM     28  C   UNL     1     -10.022   0.251  -6.184  1.00  0.00     0.007 C 
ATOM     29  C   UNL     1     -12.121  -0.883  -5.399  1.00  0.00     0.007 C 
ENDBRANCH  26  27
ENDBRANCH  25  26
BRANCH  25  30
ATOM     30  C   UNL     1      -9.159  -1.542  -2.833  1.00  0.00     0.243 C 
ATOM     31  O   UNL     1      -8.259  -2.332  -3.116  1.00  0.00    -0.273 OA
ATOM     32  N   UNL     1     -10.176  -1.863  -1.971  1.00  0.00    -0.342 N 
ATOM     33  H   UNL     1     -10.803  -1.110  -1.677  1.00  0.00     0.164 HD
BRANCH  32  34
ATOM     34  C   UNL     1     -10.297  -3.174  -1.327  1.00  0.00     0.175 C 
BRANCH  34  35
ATOM     35  C   UNL     1     -11.078  -3.078  -0.007  1.00  0.00     0.070 C 
BRANCH  35  36
ATOM     36  C   UNL     1     -10.327  -3.672   1.162  1.00  0.00    -0.045 A 
ATOM     37  C   UNL     1      -9.732  -4.938   1.044  1.00  0.00     0.007 A 
ATOM     38  C   UNL     1     -10.232  -2.986   2.380  1.00  0.00     0.007 A 
ATOM     39  C   UNL     1      -9.048  -5.500   2.122  1.00  0.00     0.046 A 
ATOM     40  C   UNL     1      -9.549  -3.549   3.460  1.00  0.00     0.046 A 
ATOM     41  C   UNL     1      -8.961  -4.802   3.320  1.00  0.00     0.115 A 
BRANCH  41  42
ATOM     42  O   UNL     1      -8.287  -5.389   4.350  1.00  0.00    -0.508 OA
ATOM     43  H   UNL     1      -8.410  -6.350   4.287  1.00  0.00     0.293 HD
ENDBRANCH  41  42
ENDBRANCH  35  36
ENDBRANCH  34  35
BRANCH  34  44
ATOM     44  C   UNL     1     -10.971  -4.139  -2.328  1.00  0.00     0.243 C 
ATOM     45  O   UNL     1     -12.182  -4.204  -2.521  1.00  0.00    -0.273 OA
ATOM     46  N   UNL     1     -10.092  -5.030  -2.907  1.00  0.00    -0.341 N 
ATOM     47  H   UNL     1      -9.115  -5.013  -2.627  1.00  0.00     0.164 HD
BRANCH  46  48
ATOM     48  C   UNL     1     -10.508  -6.083  -3.836  1.00  0.00     0.196 C 
BRANCH  48  49
ATOM     49  C   UNL     1      -9.420  -6.366  -4.886  1.00  0.00     0.072 C 
BRANCH  49  50
ATOM     50  C   UNL     1      -9.273  -5.244  -5.888  1.00  0.00    -0.045 A 
ATOM     51  C   UNL     1     -10.413  -4.583  -6.370  1.00  0.00     0.007 A 
ATOM     52  C   UNL     1      -8.012  -4.863  -6.364  1.00  0.00     0.007 A 
ATOM     53  C   UNL     1     -10.290  -3.555  -7.305  1.00  0.00     0.046 A 
ATOM     54  C   UNL     1      -7.889  -3.835  -7.301  1.00  0.00     0.046 A 
ATOM     55  C   UNL     1      -9.031  -3.189  -7.763  1.00  0.00     0.115 A 
BRANCH  55  56
ATOM     56  O   UNL     1      -8.954  -2.181  -8.678  1.00  0.00    -0.508 OA
ATOM     57  H   UNL     1      -8.111  -2.261  -9.152  1.00  0.00     0.293 HD
ENDBRANCH  55  56
ENDBRANCH  49  50
ENDBRANCH  48  49
BRANCH  48  58
ATOM     58  C   UNL     1     -10.802  -7.363  -3.041  1.00  0.00     0.326 C 
ATOM     59  O   UNL     1     -10.019  -8.258  -2.765  1.00  0.00    -0.250 OA
BRANCH  58  60
ATOM     60  O   UNL     1     -12.086  -7.451  -2.612  1.00  0.00    -0.480 OA
ATOM     61  H   UNL     1     -12.361  -6.512  -2.529  1.00  0.00     0.296 HD
ENDBRANCH  58  60
ENDBRANCH  48  58
ENDBRANCH  46  48
ENDBRANCH  34  44
ENDBRANCH  32  34
ENDBRANCH  25  30
ENDBRANCH  23  25
ENDBRANCH   2  23
TORSDOF 28
ENDMDL
MODEL 22
REMARK VINA RESULT:    -6.200      5.028      9.346
REMARK INTER + INTRA:         -20.933
REMARK INTER:                 -17.250
REMARK INTRA:                  -3.683
REMARK UNBOUND:                -5.490
REMARK SMILES CCCCCCC[C@H](N)[C@H](O)C(=O)N[C@H](C)C(=O)N(C)[C@H](CC(C)C)C(=O)N[C@@H](Cc1ccc(O)cc1)C(=O)N[C@@H](Cc1ccc(O)cc1)C(=O)O
REMARK SMILES IDX 18 1 17 2 15 3 16 4 14 5 12 6 13 7 10 9 11 10 8 12 9 13 7 16
REMARK SMILES IDX 6 17 5 18 4 19 3 20 2 21 1 22 19 23 20 24 21 25 22 26 23 27
REMARK SMILES IDX 24 28 25 29 26 30 27 31 28 32 29 34 30 35 31 36 32 37 37 38
REMARK SMILES IDX 33 39 36 40 34 41 35 42 38 44 39 45 40 46 41 48 42 49 43 50
REMARK SMILES IDX 44 51 49 52 45 53 48 54 46 55 47 56 50 58 51 59 52 60
REMARK H PARENT 14 8 11 11 9 14 9 15 28 33 35 43 40 47 47 57 52 61
ROOT
ATOM      1  O   UNL     1      -8.431  -1.492  -3.179  1.00  0.00    -0.272 OA
ATOM      2  C   UNL     1      -9.045  -0.448  -2.912  1.00  0.00     0.245 C 
ENDROOT
BRANCH   2   3
ATOM      3  C   UNL     1      -8.309   0.905  -3.074  1.00  0.00     0.168 C 
ATOM      4  C   UNL     1      -8.321   1.689  -1.766  1.00  0.00     0.041 C 
BRANCH   3   5
ATOM      5  N   UNL     1      -6.970   0.810  -3.636  1.00  0.00    -0.342 N 
ATOM      6  C   UNL     1      -6.598   1.525  -4.754  1.00  0.00     0.251 C 
ATOM      7  O   UNL     1      -7.363   2.252  -5.378  1.00  0.00    -0.272 OA
ATOM      8  H   UNL     1      -6.258   0.211  -3.225  1.00  0.00     0.164 HD
BRANCH   6   9
ATOM      9  C   UNL     1      -5.103   1.379  -5.082  1.00  0.00     0.219 C 
BRANCH   9  10
ATOM     10  O   UNL     1      -4.766   0.068  -5.553  1.00  0.00    -0.382 OA
ATOM     11  H   UNL     1      -4.064  -0.227  -4.932  1.00  0.00     0.211 HD
ENDBRANCH   9  10
BRANCH   9  12
ATOM     12  C   UNL     1      -4.585   2.465  -6.060  1.00  0.00     0.089 C 
BRANCH  12  13
ATOM     13  N   UNL     1      -4.757   3.790  -5.421  1.00  0.00    -0.325 NA
ATOM     14  H   UNL     1      -4.709   3.682  -4.406  1.00  0.00     0.119 HD
ATOM     15  H   UNL     1      -5.704   4.127  -5.609  1.00  0.00     0.119 HD
ENDBRANCH  12  13
BRANCH  12  16
ATOM     16  C   UNL     1      -3.127   2.297  -6.550  1.00  0.00     0.022 C 
BRANCH  16  17
ATOM     17  C   UNL     1      -2.022   3.152  -5.914  1.00  0.00     0.002 C 
BRANCH  17  18
ATOM     18  C   UNL     1      -1.345   4.140  -6.862  1.00  0.00     0.000 C 
BRANCH  18  19
ATOM     19  C   UNL     1      -0.610   5.284  -6.150  1.00  0.00    -0.000 C 
BRANCH  19  20
ATOM     20  C   UNL     1      -0.586   5.190  -4.622  1.00  0.00    -0.000 C 
BRANCH  20  21
ATOM     21  C   UNL     1      -1.400   6.294  -3.941  1.00  0.00    -0.003 C 
ATOM     22  C   UNL     1      -2.620   5.726  -3.233  1.00  0.00     0.004 C 
ENDBRANCH  20  21
ENDBRANCH  19  20
ENDBRANCH  18  19
ENDBRANCH  17  18
ENDBRANCH  16  17
ENDBRANCH  12  16
ENDBRANCH   9  12
ENDBRANCH   6   9
ENDBRANCH   3   5
ENDBRANCH   2   3
BRANCH   2  23
ATOM     23  N   UNL     1     -10.398  -0.498  -2.595  1.00  0.00    -0.332 N 
ATOM     24  C   UNL     1     -11.458   0.079  -3.407  1.00  0.00     0.147 C 
BRANCH  23  25
ATOM     25  C   UNL     1     -10.866  -1.286  -1.421  1.00  0.00     0.174 C 
BRANCH  25  26
ATOM     26  C   UNL     1      -9.938  -1.144  -0.192  1.00  0.00     0.038 C 
BRANCH  26  27
ATOM     27  C   UNL     1     -10.520  -0.426   1.046  1.00  0.00    -0.015 C 
ATOM     28  C   UNL     1     -12.036  -0.250   0.960  1.00  0.00     0.007 C 
ATOM     29  C   UNL     1     -10.130  -1.082   2.368  1.00  0.00     0.007 C 
ENDBRANCH  26  27
ENDBRANCH  25  26
BRANCH  25  30
ATOM     30  C   UNL     1     -11.129  -2.752  -1.836  1.00  0.00     0.243 C 
ATOM     31  O   UNL     1     -12.258  -3.158  -2.107  1.00  0.00    -0.273 OA
ATOM     32  N   UNL     1     -10.026  -3.565  -1.874  1.00  0.00    -0.342 N 
ATOM     33  H   UNL     1      -9.108  -3.123  -1.774  1.00  0.00     0.164 HD
BRANCH  32  34
ATOM     34  C   UNL     1     -10.090  -4.988  -2.218  1.00  0.00     0.175 C 
BRANCH  34  35
ATOM     35  C   UNL     1      -8.954  -5.383  -3.175  1.00  0.00     0.070 C 
BRANCH  35  36
ATOM     36  C   UNL     1      -9.203  -4.929  -4.596  1.00  0.00    -0.045 A 
ATOM     37  C   UNL     1      -8.122  -4.589  -5.423  1.00  0.00     0.007 A 
ATOM     38  C   UNL     1     -10.506  -4.820  -5.098  1.00  0.00     0.007 A 
ATOM     39  C   UNL     1      -8.342  -4.157  -6.731  1.00  0.00     0.046 A 
ATOM     40  C   UNL     1     -10.728  -4.386  -6.407  1.00  0.00     0.046 A 
ATOM     41  C   UNL     1      -9.642  -4.059  -7.213  1.00  0.00     0.115 A 
BRANCH  41  42
ATOM     42  O   UNL     1      -9.814  -3.630  -8.496  1.00  0.00    -0.508 OA
ATOM     43  H   UNL     1     -10.399  -4.258  -8.951  1.00  0.00     0.293 HD
ENDBRANCH  41  42
ENDBRANCH  35  36
ENDBRANCH  34  35
BRANCH  34  44
ATOM     44  C   UNL     1     -10.047  -5.801  -0.904  1.00  0.00     0.243 C 
ATOM     45  O   UNL     1      -9.507  -6.896  -0.784  1.00  0.00    -0.273 OA
ATOM     46  N   UNL     1     -10.793  -5.241   0.112  1.00  0.00    -0.341 N 
ATOM     47  H   UNL     1     -11.319  -4.391  -0.072  1.00  0.00     0.164 HD
BRANCH  46  48
ATOM     48  C   UNL     1     -10.958  -5.865   1.427  1.00  0.00     0.196 C 
BRANCH  48  49
ATOM     49  C   UNL     1     -10.227  -5.068   2.520  1.00  0.00     0.072 C 
BRANCH  49  50
ATOM     50  C   UNL     1      -8.970  -5.758   3.001  1.00  0.00    -0.045 A 
ATOM     51  C   UNL     1      -8.982  -6.469   4.210  1.00  0.00     0.007 A 
ATOM     52  C   UNL     1      -7.780  -5.682   2.266  1.00  0.00     0.007 A 
ATOM     53  C   UNL     1      -7.826  -7.098   4.670  1.00  0.00     0.046 A 
ATOM     54  C   UNL     1      -6.622  -6.311   2.728  1.00  0.00     0.046 A 
ATOM     55  C   UNL     1      -6.655  -7.015   3.926  1.00  0.00     0.115 A 
BRANCH  55  56
ATOM     56  O   UNL     1      -5.546  -7.643   4.412  1.00  0.00    -0.508 OA
ATOM     57  H   UNL     1      -4.778  -7.071   4.255  1.00  0.00     0.293 HD
ENDBRANCH  55  56
ENDBRANCH  49  50
ENDBRANCH  48  49
BRANCH  48  58
ATOM     58  C   UNL     1     -12.455  -5.940   1.758  1.00  0.00     0.326 C 
ATOM     59  O   UNL     1     -13.161  -6.935   1.764  1.00  0.00    -0.250 OA
BRANCH  58  60
ATOM     60  O   UNL     1     -12.998  -4.741   2.087  1.00  0.00    -0.480 OA
ATOM     61  H   UNL     1     -13.062  -4.277   1.224  1.00  0.00     0.296 HD
ENDBRANCH  58  60
ENDBRANCH  48  58
ENDBRANCH  46  48
ENDBRANCH  34  44
ENDBRANCH  32  34
ENDBRANCH  25  30
ENDBRANCH  23  25
ENDBRANCH   2  23
TORSDOF 28
ENDMDL
MODEL 23
REMARK VINA RESULT:    -6.171      3.204      7.251
REMARK INTER + INTRA:         -20.861
REMARK INTER:                 -15.808
REMARK INTRA:                  -5.053
REMARK UNBOUND:                -5.490
REMARK SMILES CCCCCCC[C@H](N)[C@H](O)C(=O)N[C@H](C)C(=O)N(C)[C@H](CC(C)C)C(=O)N[C@@H](Cc1ccc(O)cc1)C(=O)N[C@@H](Cc1ccc(O)cc1)C(=O)O
REMARK SMILES IDX 18 1 17 2 15 3 16 4 14 5 12 6 13 7 10 9 11 10 8 12 9 13 7 16
REMARK SMILES IDX 6 17 5 18 4 19 3 20 2 21 1 22 19 23 20 24 21 25 22 26 23 27
REMARK SMILES IDX 24 28 25 29 26 30 27 31 28 32 29 34 30 35 31 36 32 37 37 38
REMARK SMILES IDX 33 39 36 40 34 41 35 42 38 44 39 45 40 46 41 48 42 49 43 50
REMARK SMILES IDX 44 51 49 52 45 53 48 54 46 55 47 56 50 58 51 59 52 60
REMARK H PARENT 14 8 11 11 9 14 9 15 28 33 35 43 40 47 47 57 52 61
ROOT
ATOM      1  O   UNL     1      -9.464   0.332  -2.913  1.00  0.00    -0.272 OA
ATOM      2  C   UNL     1      -9.358   1.448  -3.443  1.00  0.00     0.245 C 
ENDROOT
BRANCH   2   3
ATOM      3  C   UNL     1      -9.315   2.700  -2.532  1.00  0.00     0.168 C 
ATOM      4  C   UNL     1     -10.274   2.548  -1.356  1.00  0.00     0.041 C 
BRANCH   3   5
ATOM      5  N   UNL     1      -7.984   3.095  -2.097  1.00  0.00    -0.342 N 
ATOM      6  C   UNL     1      -7.497   4.368  -2.306  1.00  0.00     0.251 C 
ATOM      7  O   UNL     1      -8.120   5.241  -2.901  1.00  0.00    -0.272 OA
ATOM      8  H   UNL     1      -7.360   2.445  -1.623  1.00  0.00     0.164 HD
BRANCH   6   9
ATOM      9  C   UNL     1      -6.131   4.599  -1.640  1.00  0.00     0.219 C 
BRANCH   9  10
ATOM     10  O   UNL     1      -5.696   3.473  -0.867  1.00  0.00    -0.382 OA
ATOM     11  H   UNL     1      -6.524   2.970  -0.705  1.00  0.00     0.211 HD
ENDBRANCH   9  10
BRANCH   9  12
ATOM     12  C   UNL     1      -5.032   5.038  -2.642  1.00  0.00     0.089 C 
BRANCH  12  13
ATOM     13  N   UNL     1      -3.710   4.798  -2.019  1.00  0.00    -0.325 NA
ATOM     14  H   UNL     1      -3.770   3.983  -1.406  1.00  0.00     0.119 HD
ATOM     15  H   UNL     1      -3.488   5.581  -1.400  1.00  0.00     0.119 HD
ENDBRANCH  12  13
BRANCH  12  16
ATOM     16  C   UNL     1      -5.088   4.380  -4.041  1.00  0.00     0.022 C 
BRANCH  16  17
ATOM     17  C   UNL     1      -4.554   2.952  -4.217  1.00  0.00     0.002 C 
BRANCH  17  18
ATOM     18  C   UNL     1      -3.121   2.858  -4.735  1.00  0.00     0.000 C 
BRANCH  18  19
ATOM     19  C   UNL     1      -2.765   3.920  -5.784  1.00  0.00    -0.000 C 
BRANCH  19  20
ATOM     20  C   UNL     1      -1.303   4.376  -5.777  1.00  0.00    -0.000 C 
BRANCH  20  21
ATOM     21  C   UNL     1      -0.336   3.282  -5.316  1.00  0.00    -0.003 C 
ATOM     22  C   UNL     1       0.240   2.517  -6.497  1.00  0.00     0.004 C 
ENDBRANCH  20  21
ENDBRANCH  19  20
ENDBRANCH  18  19
ENDBRANCH  17  18
ENDBRANCH  16  17
ENDBRANCH  12  16
ENDBRANCH   9  12
ENDBRANCH   6   9
ENDBRANCH   3   5
ENDBRANCH   2   3
BRANCH   2  23
ATOM     23  N   UNL     1      -9.159   1.551  -4.816  1.00  0.00    -0.332 N 
ATOM     24  C   UNL     1      -9.005   2.806  -5.537  1.00  0.00     0.147 C 
BRANCH  23  25
ATOM     25  C   UNL     1      -8.959   0.327  -5.639  1.00  0.00     0.174 C 
BRANCH  25  26
ATOM     26  C   UNL     1      -8.157   0.596  -6.934  1.00  0.00     0.038 C 
BRANCH  26  27
ATOM     27  C   UNL     1      -6.780  -0.091  -7.061  1.00  0.00    -0.015 C 
ATOM     28  C   UNL     1      -5.648   0.907  -7.300  1.00  0.00     0.007 C 
ATOM     29  C   UNL     1      -6.448  -1.008  -5.887  1.00  0.00     0.007 C 
ENDBRANCH  26  27
ENDBRANCH  25  26
BRANCH  25  30
ATOM     30  C   UNL     1     -10.312  -0.379  -5.881  1.00  0.00     0.243 C 
ATOM     31  O   UNL     1     -11.196   0.129  -6.570  1.00  0.00    -0.273 OA
ATOM     32  N   UNL     1     -10.463  -1.599  -5.274  1.00  0.00    -0.342 N 
ATOM     33  H   UNL     1      -9.636  -2.016  -4.838  1.00  0.00     0.164 HD
BRANCH  32  34
ATOM     34  C   UNL     1     -11.687  -2.398  -5.371  1.00  0.00     0.175 C 
BRANCH  34  35
ATOM     35  C   UNL     1     -11.522  -3.557  -6.366  1.00  0.00     0.070 C 
BRANCH  35  36
ATOM     36  C   UNL     1     -10.078  -3.965  -6.554  1.00  0.00    -0.045 A 
ATOM     37  C   UNL     1      -9.475  -4.848  -5.646  1.00  0.00     0.007 A 
ATOM     38  C   UNL     1      -9.318  -3.454  -7.614  1.00  0.00     0.007 A 
ATOM     39  C   UNL     1      -8.139  -5.220  -5.802  1.00  0.00     0.046 A 
ATOM     40  C   UNL     1      -7.980  -3.825  -7.771  1.00  0.00     0.046 A 
ATOM     41  C   UNL     1      -7.403  -4.706  -6.863  1.00  0.00     0.115 A 
BRANCH  41  42
ATOM     42  O   UNL     1      -6.101  -5.092  -6.979  1.00  0.00    -0.508 OA
ATOM     43  H   UNL     1      -5.670  -4.972  -6.116  1.00  0.00     0.293 HD
ENDBRANCH  41  42
ENDBRANCH  35  36
ENDBRANCH  34  35
BRANCH  34  44
ATOM     44  C   UNL     1     -12.045  -2.900  -3.954  1.00  0.00     0.243 C 
ATOM     45  O   UNL     1     -13.135  -3.368  -3.639  1.00  0.00    -0.273 OA
ATOM     46  N   UNL     1     -11.060  -2.656  -3.021  1.00  0.00    -0.341 N 
ATOM     47  H   UNL     1     -10.220  -2.159  -3.307  1.00  0.00     0.164 HD
BRANCH  46  48
ATOM     48  C   UNL     1     -11.198  -2.981  -1.599  1.00  0.00     0.196 C 
BRANCH  48  49
ATOM     49  C   UNL     1     -10.078  -3.924  -1.129  1.00  0.00     0.072 C 
BRANCH  49  50
ATOM     50  C   UNL     1     -10.132  -5.274  -1.808  1.00  0.00    -0.045 A 
ATOM     51  C   UNL     1     -11.371  -5.864  -2.096  1.00  0.00     0.007 A 
ATOM     52  C   UNL     1      -8.957  -5.962  -2.139  1.00  0.00     0.007 A 
ATOM     53  C   UNL     1     -11.433  -7.115  -2.710  1.00  0.00     0.046 A 
ATOM     54  C   UNL     1      -9.018  -7.215  -2.753  1.00  0.00     0.046 A 
ATOM     55  C   UNL     1     -10.257  -7.780  -3.034  1.00  0.00     0.115 A 
BRANCH  55  56
ATOM     56  O   UNL     1     -10.360  -9.001  -3.632  1.00  0.00    -0.508 OA
ATOM     57  H   UNL     1      -9.589  -9.127  -4.208  1.00  0.00     0.293 HD
ENDBRANCH  55  56
ENDBRANCH  49  50
ENDBRANCH  48  49
BRANCH  48  58
ATOM     58  C   UNL     1     -11.153  -1.682  -0.784  1.00  0.00     0.326 C 
ATOM     59  O   UNL     1     -10.539  -1.480   0.252  1.00  0.00    -0.250 OA
BRANCH  58  60
ATOM     60  O   UNL     1     -11.884  -0.676  -1.327  1.00  0.00    -0.480 OA
ATOM     61  H   UNL     1     -11.275  -0.288  -1.993  1.00  0.00     0.296 HD
ENDBRANCH  58  60
ENDBRANCH  48  58
ENDBRANCH  46  48
ENDBRANCH  34  44
ENDBRANCH  32  34
ENDBRANCH  25  30
ENDBRANCH  23  25
ENDBRANCH   2  23
TORSDOF 28
ENDMDL
MODEL 24
REMARK VINA RESULT:    -6.165      2.448      7.948
REMARK INTER + INTRA:         -20.847
REMARK INTER:                 -14.998
REMARK INTRA:                  -5.849
REMARK UNBOUND:                -5.490
REMARK SMILES CCCCCCC[C@H](N)[C@H](O)C(=O)N[C@H](C)C(=O)N(C)[C@H](CC(C)C)C(=O)N[C@@H](Cc1ccc(O)cc1)C(=O)N[C@@H](Cc1ccc(O)cc1)C(=O)O
REMARK SMILES IDX 18 1 17 2 15 3 16 4 14 5 12 6 13 7 10 9 11 10 8 12 9 13 7 16
REMARK SMILES IDX 6 17 5 18 4 19 3 20 2 21 1 22 19 23 20 24 21 25 22 26 23 27
REMARK SMILES IDX 24 28 25 29 26 30 27 31 28 32 29 34 30 35 31 36 32 37 37 38
REMARK SMILES IDX 33 39 36 40 34 41 35 42 38 44 39 45 40 46 41 48 42 49 43 50
REMARK SMILES IDX 44 51 49 52 45 53 48 54 46 55 47 56 50 58 51 59 52 60
REMARK H PARENT 14 8 11 11 9 14 9 15 28 33 35 43 40 47 47 57 52 61
ROOT
ATOM      1  O   UNL     1      -1.485   3.056  -4.161  1.00  0.00    -0.272 OA
ATOM      2  C   UNL     1      -2.484   3.303  -4.853  1.00  0.00     0.245 C 
ENDROOT
BRANCH   2   3
ATOM      3  C   UNL     1      -3.535   4.302  -4.307  1.00  0.00     0.168 C 
ATOM      4  C   UNL     1      -4.144   5.120  -5.441  1.00  0.00     0.041 C 
BRANCH   3   5
ATOM      5  N   UNL     1      -4.556   3.712  -3.456  1.00  0.00    -0.342 N 
ATOM      6  C   UNL     1      -5.175   4.432  -2.456  1.00  0.00     0.251 C 
ATOM      7  O   UNL     1      -4.890   5.593  -2.182  1.00  0.00    -0.272 OA
ATOM      8  H   UNL     1      -4.851   2.745  -3.565  1.00  0.00     0.164 HD
BRANCH   6   9
ATOM      9  C   UNL     1      -6.316   3.652  -1.782  1.00  0.00     0.219 C 
BRANCH   9  10
ATOM     10  O   UNL     1      -7.505   4.437  -1.627  1.00  0.00    -0.382 OA
ATOM     11  H   UNL     1      -7.164   5.327  -1.387  1.00  0.00     0.211 HD
ENDBRANCH   9  10
BRANCH   9  12
ATOM     12  C   UNL     1      -6.632   2.306  -2.484  1.00  0.00     0.089 C 
BRANCH  12  13
ATOM     13  N   UNL     1      -5.795   1.250  -1.869  1.00  0.00    -0.325 NA
ATOM     14  H   UNL     1      -5.219   1.664  -1.133  1.00  0.00     0.119 HD
ATOM     15  H   UNL     1      -5.131   0.906  -2.566  1.00  0.00     0.119 HD
ENDBRANCH  12  13
BRANCH  12  16
ATOM     16  C   UNL     1      -8.118   1.874  -2.485  1.00  0.00     0.022 C 
BRANCH  16  17
ATOM     17  C   UNL     1      -8.480   0.444  -2.909  1.00  0.00     0.002 C 
BRANCH  17  18
ATOM     18  C   UNL     1      -9.419  -0.293  -1.957  1.00  0.00     0.000 C 
BRANCH  18  19
ATOM     19  C   UNL     1     -10.565  -1.033  -2.659  1.00  0.00    -0.000 C 
BRANCH  19  20
ATOM     20  C   UNL     1     -10.950  -0.481  -4.034  1.00  0.00    -0.000 C 
BRANCH  20  21
ATOM     21  C   UNL     1     -12.365   0.101  -4.072  1.00  0.00    -0.003 C 
ATOM     22  C   UNL     1     -13.193  -0.375  -2.889  1.00  0.00     0.004 C 
ENDBRANCH  20  21
ENDBRANCH  19  20
ENDBRANCH  18  19
ENDBRANCH  17  18
ENDBRANCH  16  17
ENDBRANCH  12  16
ENDBRANCH   9  12
ENDBRANCH   6   9
ENDBRANCH   3   5
ENDBRANCH   2   3
BRANCH   2  23
ATOM     23  N   UNL     1      -2.585   2.783  -6.139  1.00  0.00    -0.332 N 
ATOM     24  C   UNL     1      -2.309   3.531  -7.356  1.00  0.00     0.147 C 
BRANCH  23  25
ATOM     25  C   UNL     1      -2.873   1.337  -6.344  1.00  0.00     0.174 C 
BRANCH  25  26
ATOM     26  C   UNL     1      -2.778   0.908  -7.827  1.00  0.00     0.038 C 
BRANCH  26  27
ATOM     27  C   UNL     1      -1.842  -0.276  -8.155  1.00  0.00    -0.015 C 
ATOM     28  C   UNL     1      -2.491  -1.630  -7.870  1.00  0.00     0.007 C 
ATOM     29  C   UNL     1      -1.285  -0.236  -9.576  1.00  0.00     0.007 C 
ENDBRANCH  26  27
ENDBRANCH  25  26
BRANCH  25  30
ATOM     30  C   UNL     1      -4.214   0.960  -5.673  1.00  0.00     0.243 C 
ATOM     31  O   UNL     1      -4.342   0.925  -4.450  1.00  0.00    -0.273 OA
ATOM     32  N   UNL     1      -5.243   0.664  -6.530  1.00  0.00    -0.342 N 
ATOM     33  H   UNL     1      -5.100   0.853  -7.525  1.00  0.00     0.164 HD
BRANCH  32  34
ATOM     34  C   UNL     1      -6.576   0.261  -6.073  1.00  0.00     0.175 C 
BRANCH  34  35
ATOM     35  C   UNL     1      -7.679   0.936  -6.902  1.00  0.00     0.070 C 
BRANCH  35  36
ATOM     36  C   UNL     1      -8.208   2.196  -6.255  1.00  0.00    -0.045 A 
ATOM     37  C   UNL     1      -7.333   3.251  -5.953  1.00  0.00     0.007 A 
ATOM     38  C   UNL     1      -9.565   2.322  -5.928  1.00  0.00     0.007 A 
ATOM     39  C   UNL     1      -7.809   4.412  -5.343  1.00  0.00     0.046 A 
ATOM     40  C   UNL     1     -10.042   3.483  -5.317  1.00  0.00     0.046 A 
ATOM     41  C   UNL     1      -9.159   4.519  -5.031  1.00  0.00     0.115 A 
BRANCH  41  42
ATOM     42  O   UNL     1      -9.584   5.669  -4.433  1.00  0.00    -0.508 OA
ATOM     43  H   UNL     1      -8.802   6.171  -4.148  1.00  0.00     0.293 HD
ENDBRANCH  41  42
ENDBRANCH  35  36
ENDBRANCH  34  35
BRANCH  34  44
ATOM     44  C   UNL     1      -6.660  -1.280  -6.145  1.00  0.00     0.243 C 
ATOM     45  O   UNL     1      -5.715  -2.015  -6.414  1.00  0.00    -0.273 OA
ATOM     46  N   UNL     1      -7.943  -1.766  -6.006  1.00  0.00    -0.341 N 
ATOM     47  H   UNL     1      -8.712  -1.109  -5.901  1.00  0.00     0.164 HD
BRANCH  46  48
ATOM     48  C   UNL     1      -8.282  -3.188  -6.107  1.00  0.00     0.196 C 
BRANCH  48  49
ATOM     49  C   UNL     1      -9.545  -3.521  -5.296  1.00  0.00     0.072 C 
BRANCH  49  50
ATOM     50  C   UNL     1      -9.390  -4.776  -4.466  1.00  0.00    -0.045 A 
ATOM     51  C   UNL     1      -8.863  -4.695  -3.169  1.00  0.00     0.007 A 
ATOM     52  C   UNL     1      -9.746  -6.029  -4.981  1.00  0.00     0.007 A 
ATOM     53  C   UNL     1      -8.702  -5.847  -2.399  1.00  0.00     0.046 A 
ATOM     54  C   UNL     1      -9.584  -7.183  -4.210  1.00  0.00     0.046 A 
ATOM     55  C   UNL     1      -9.064  -7.081  -2.924  1.00  0.00     0.115 A 
BRANCH  55  56
ATOM     56  O   UNL     1      -8.890  -8.183  -2.140  1.00  0.00    -0.508 OA
ATOM     57  H   UNL     1      -9.403  -8.063  -1.325  1.00  0.00     0.293 HD
ENDBRANCH  55  56
ENDBRANCH  49  50
ENDBRANCH  48  49
BRANCH  48  58
ATOM     58  C   UNL     1      -8.508  -3.544  -7.583  1.00  0.00     0.326 C 
ATOM     59  O   UNL     1      -9.566  -3.535  -8.191  1.00  0.00    -0.250 OA
BRANCH  58  60
ATOM     60  O   UNL     1      -7.370  -3.886  -8.238  1.00  0.00    -0.480 OA
ATOM     61  H   UNL     1      -7.613  -4.722  -8.691  1.00  0.00     0.296 HD
ENDBRANCH  58  60
ENDBRANCH  48  58
ENDBRANCH  46  48
ENDBRANCH  34  44
ENDBRANCH  32  34
ENDBRANCH  25  30
ENDBRANCH  23  25
ENDBRANCH   2  23
TORSDOF 28
ENDMDL
MODEL 25
REMARK VINA RESULT:    -6.164      2.840      7.660
REMARK INTER + INTRA:         -20.843
REMARK INTER:                 -15.772
REMARK INTRA:                  -5.071
REMARK UNBOUND:                -5.490
REMARK SMILES CCCCCCC[C@H](N)[C@H](O)C(=O)N[C@H](C)C(=O)N(C)[C@H](CC(C)C)C(=O)N[C@@H](Cc1ccc(O)cc1)C(=O)N[C@@H](Cc1ccc(O)cc1)C(=O)O
REMARK SMILES IDX 18 1 17 2 15 3 16 4 14 5 12 6 13 7 10 9 11 10 8 12 9 13 7 16
REMARK SMILES IDX 6 17 5 18 4 19 3 20 2 21 1 22 19 23 20 24 21 25 22 26 23 27
REMARK SMILES IDX 24 28 25 29 26 30 27 31 28 32 29 34 30 35 31 36 32 37 37 38
REMARK SMILES IDX 33 39 36 40 34 41 35 42 38 44 39 45 40 46 41 48 42 49 43 50
REMARK SMILES IDX 44 51 49 52 45 53 48 54 46 55 47 56 50 58 51 59 52 60
REMARK H PARENT 14 8 11 11 9 14 9 15 28 33 35 43 40 47 47 57 52 61
ROOT
ATOM      1  O   UNL     1      -7.115   4.942  -5.327  1.00  0.00    -0.272 OA
ATOM      2  C   UNL     1      -8.313   4.643  -5.435  1.00  0.00     0.245 C 
ENDROOT
BRANCH   2   3
ATOM      3  C   UNL     1      -9.356   5.453  -4.625  1.00  0.00     0.168 C 
ATOM      4  C   UNL     1     -10.217   6.305  -5.550  1.00  0.00     0.041 C 
BRANCH   3   5
ATOM      5  N   UNL     1     -10.162   4.664  -3.707  1.00  0.00    -0.342 N 
ATOM      6  C   UNL     1      -9.780   4.452  -2.399  1.00  0.00     0.251 C 
ATOM      7  O   UNL     1      -8.727   4.869  -1.926  1.00  0.00    -0.272 OA
ATOM      8  H   UNL     1     -11.040   4.238  -3.995  1.00  0.00     0.164 HD
BRANCH   6   9
ATOM      9  C   UNL     1     -10.850   3.715  -1.578  1.00  0.00     0.219 C 
BRANCH   9  10
ATOM     10  O   UNL     1     -10.288   2.892  -0.549  1.00  0.00    -0.382 OA
ATOM     11  H   UNL     1     -10.944   2.168  -0.449  1.00  0.00     0.211 HD
ENDBRANCH   9  10
BRANCH   9  12
ATOM     12  C   UNL     1     -11.931   4.663  -0.996  1.00  0.00     0.089 C 
BRANCH  12  13
ATOM     13  N   UNL     1     -11.321   5.997  -0.791  1.00  0.00    -0.325 NA
ATOM     14  H   UNL     1     -10.389   6.008  -1.208  1.00  0.00     0.119 HD
ATOM     15  H   UNL     1     -11.168   6.141   0.210  1.00  0.00     0.119 HD
ENDBRANCH  12  13
BRANCH  12  16
ATOM     16  C   UNL     1     -13.233   4.795  -1.822  1.00  0.00     0.022 C 
BRANCH  16  17
ATOM     17  C   UNL     1     -13.540   3.751  -2.904  1.00  0.00     0.002 C 
BRANCH  17  18
ATOM     18  C   UNL     1     -14.982   3.750  -3.408  1.00  0.00     0.000 C 
BRANCH  18  19
ATOM     19  C   UNL     1     -15.124   3.392  -4.894  1.00  0.00    -0.000 C 
BRANCH  19  20
ATOM     20  C   UNL     1     -15.141   4.587  -5.851  1.00  0.00    -0.000 C 
BRANCH  20  21
ATOM     21  C   UNL     1     -15.538   5.897  -5.168  1.00  0.00    -0.003 C 
ATOM     22  C   UNL     1     -14.411   6.917  -5.225  1.00  0.00     0.004 C 
ENDBRANCH  20  21
ENDBRANCH  19  20
ENDBRANCH  18  19
ENDBRANCH  17  18
ENDBRANCH  16  17
ENDBRANCH  12  16
ENDBRANCH   9  12
ENDBRANCH   6   9
ENDBRANCH   3   5
ENDBRANCH   2   3
BRANCH   2  23
ATOM     23  N   UNL     1      -8.709   3.682  -6.360  1.00  0.00    -0.332 N 
ATOM     24  C   UNL     1      -9.170   3.974  -7.709  1.00  0.00     0.147 C 
BRANCH  23  25
ATOM     25  C   UNL     1      -8.557   2.234  -6.049  1.00  0.00     0.174 C 
BRANCH  25  26
ATOM     26  C   UNL     1      -8.835   1.904  -4.564  1.00  0.00     0.038 C 
BRANCH  26  27
ATOM     27  C   UNL     1     -10.073   1.030  -4.261  1.00  0.00    -0.015 C 
ATOM     28  C   UNL     1     -11.301   1.457  -5.064  1.00  0.00     0.007 C 
ATOM     29  C   UNL     1      -9.816  -0.466  -4.428  1.00  0.00     0.007 C 
ENDBRANCH  26  27
ENDBRANCH  25  26
BRANCH  25  30
ATOM     30  C   UNL     1      -7.189   1.722  -6.554  1.00  0.00     0.243 C 
ATOM     31  O   UNL     1      -7.098   0.901  -7.466  1.00  0.00    -0.273 OA
ATOM     32  N   UNL     1      -6.090   2.237  -5.915  1.00  0.00    -0.342 N 
ATOM     33  H   UNL     1      -6.241   3.016  -5.268  1.00  0.00     0.164 HD
BRANCH  32  34
ATOM     34  C   UNL     1      -4.716   1.847  -6.242  1.00  0.00     0.175 C 
BRANCH  34  35
ATOM     35  C   UNL     1      -4.219   2.561  -7.508  1.00  0.00     0.070 C 
BRANCH  35  36
ATOM     36  C   UNL     1      -3.156   1.775  -8.243  1.00  0.00    -0.045 A 
ATOM     37  C   UNL     1      -2.655   2.246  -9.466  1.00  0.00     0.007 A 
ATOM     38  C   UNL     1      -2.675   0.563  -7.731  1.00  0.00     0.007 A 
ATOM     39  C   UNL     1      -1.684   1.521 -10.158  1.00  0.00     0.046 A 
ATOM     40  C   UNL     1      -1.704  -0.164  -8.424  1.00  0.00     0.046 A 
ATOM     41  C   UNL     1      -1.216   0.323  -9.632  1.00  0.00     0.115 A 
BRANCH  41  42
ATOM     42  O   UNL     1      -0.270  -0.356 -10.340  1.00  0.00    -0.508 OA
ATOM     43  H   UNL     1       0.290  -0.843  -9.713  1.00  0.00     0.293 HD
ENDBRANCH  41  42
ENDBRANCH  35  36
ENDBRANCH  34  35
BRANCH  34  44
ATOM     44  C   UNL     1      -3.826   2.157  -5.017  1.00  0.00     0.243 C 
ATOM     45  O   UNL     1      -3.576   1.356  -4.121  1.00  0.00    -0.273 OA
ATOM     46  N   UNL     1      -3.432   3.476  -4.945  1.00  0.00    -0.341 N 
ATOM     47  H   UNL     1      -3.762   4.130  -5.651  1.00  0.00     0.164 HD
BRANCH  46  48
ATOM     48  C   UNL     1      -2.641   4.022  -3.840  1.00  0.00     0.196 C 
BRANCH  48  49
ATOM     49  C   UNL     1      -1.499   4.914  -4.355  1.00  0.00     0.072 C 
BRANCH  49  50
ATOM     50  C   UNL     1      -0.766   4.302  -5.528  1.00  0.00    -0.045 A 
ATOM     51  C   UNL     1      -0.662   5.010  -6.734  1.00  0.00     0.007 A 
ATOM     52  C   UNL     1      -0.203   3.023  -5.437  1.00  0.00     0.007 A 
ATOM     53  C   UNL     1       0.000   4.451  -7.826  1.00  0.00     0.046 A 
ATOM     54  C   UNL     1       0.459   2.462  -6.532  1.00  0.00     0.046 A 
ATOM     55  C   UNL     1       0.556   3.182  -7.717  1.00  0.00     0.115 A 
BRANCH  55  56
ATOM     56  O   UNL     1       1.193   2.670  -8.809  1.00  0.00    -0.508 OA
ATOM     57  H   UNL     1       0.528   2.474  -9.487  1.00  0.00     0.293 HD
ENDBRANCH  55  56
ENDBRANCH  49  50
ENDBRANCH  48  49
BRANCH  48  58
ATOM     58  C   UNL     1      -3.561   4.840  -2.924  1.00  0.00     0.326 C 
ATOM     59  O   UNL     1      -4.568   5.451  -3.243  1.00  0.00    -0.250 OA
BRANCH  58  60
ATOM     60  O   UNL     1      -3.171   4.839  -1.624  1.00  0.00    -0.480 OA
ATOM     61  H   UNL     1      -2.347   4.304  -1.636  1.00  0.00     0.296 HD
ENDBRANCH  58  60
ENDBRANCH  48  58
ENDBRANCH  46  48
ENDBRANCH  34  44
ENDBRANCH  32  34
ENDBRANCH  25  30
ENDBRANCH  23  25
ENDBRANCH   2  23
TORSDOF 28
ENDMDL
MODEL 26
REMARK VINA RESULT:    -6.161      2.599      8.268
REMARK INTER + INTRA:         -20.836
REMARK INTER:                 -15.790
REMARK INTRA:                  -5.046
REMARK UNBOUND:                -5.490
REMARK SMILES CCCCCCC[C@H](N)[C@H](O)C(=O)N[C@H](C)C(=O)N(C)[C@H](CC(C)C)C(=O)N[C@@H](Cc1ccc(O)cc1)C(=O)N[C@@H](Cc1ccc(O)cc1)C(=O)O
REMARK SMILES IDX 18 1 17 2 15 3 16 4 14 5 12 6 13 7 10 9 11 10 8 12 9 13 7 16
REMARK SMILES IDX 6 17 5 18 4 19 3 20 2 21 1 22 19 23 20 24 21 25 22 26 23 27
REMARK SMILES IDX 24 28 25 29 26 30 27 31 28 32 29 34 30 35 31 36 32 37 37 38
REMARK SMILES IDX 33 39 36 40 34 41 35 42 38 44 39 45 40 46 41 48 42 49 43 50
REMARK SMILES IDX 44 51 49 52 45 53 48 54 46 55 47 56 50 58 51 59 52 60
REMARK H PARENT 14 8 11 11 9 14 9 15 28 33 35 43 40 47 47 57 52 61
ROOT
ATOM      1  O   UNL     1      -6.277  -1.866  -5.676  1.00  0.00    -0.272 OA
ATOM      2  C   UNL     1      -5.515  -1.548  -6.601  1.00  0.00     0.245 C 
ENDROOT
BRANCH   2   3
ATOM      3  C   UNL     1      -5.049  -2.648  -7.588  1.00  0.00     0.168 C 
ATOM      4  C   UNL     1      -5.279  -4.036  -7.000  1.00  0.00     0.041 C 
BRANCH   3   5
ATOM      5  N   UNL     1      -5.593  -2.532  -8.932  1.00  0.00    -0.342 N 
ATOM      6  C   UNL     1      -6.701  -3.248  -9.334  1.00  0.00     0.251 C 
ATOM      7  O   UNL     1      -7.280  -4.056  -8.616  1.00  0.00    -0.272 OA
ATOM      8  H   UNL     1      -5.176  -1.918  -9.628  1.00  0.00     0.164 HD
BRANCH   6   9
ATOM      9  C   UNL     1      -7.180  -2.861 -10.742  1.00  0.00     0.219 C 
BRANCH   9  10
ATOM     10  O   UNL     1      -7.318  -3.993 -11.609  1.00  0.00    -0.382 OA
ATOM     11  H   UNL     1      -7.670  -4.695 -11.019  1.00  0.00     0.211 HD
ENDBRANCH   9  10
BRANCH   9  12
ATOM     12  C   UNL     1      -8.479  -2.014 -10.732  1.00  0.00     0.089 C 
BRANCH  12  13
ATOM     13  N   UNL     1      -9.630  -2.925 -10.539  1.00  0.00    -0.325 NA
ATOM     14  H   UNL     1     -10.352  -2.706 -11.228  1.00  0.00     0.119 HD
ATOM     15  H   UNL     1     -10.059  -2.729  -9.631  1.00  0.00     0.119 HD
ENDBRANCH  12  13
BRANCH  12  16
ATOM     16  C   UNL     1      -8.532  -0.865  -9.696  1.00  0.00     0.022 C 
BRANCH  16  17
ATOM     17  C   UNL     1      -9.653  -0.855  -8.648  1.00  0.00     0.002 C 
BRANCH  17  18
ATOM     18  C   UNL     1      -9.282  -1.474  -7.302  1.00  0.00     0.000 C 
BRANCH  18  19
ATOM     19  C   UNL     1     -10.064  -2.751  -6.965  1.00  0.00    -0.000 C 
BRANCH  19  20
ATOM     20  C   UNL     1      -9.402  -3.663  -5.928  1.00  0.00    -0.000 C 
BRANCH  20  21
ATOM     21  C   UNL     1     -10.345  -4.743  -5.391  1.00  0.00    -0.003 C 
ATOM     22  C   UNL     1      -9.585  -6.003  -5.008  1.00  0.00     0.004 C 
ENDBRANCH  20  21
ENDBRANCH  19  20
ENDBRANCH  18  19
ENDBRANCH  17  18
ENDBRANCH  16  17
ENDBRANCH  12  16
ENDBRANCH   9  12
ENDBRANCH   6   9
ENDBRANCH   3   5
ENDBRANCH   2   3
BRANCH   2  23
ATOM     23  N   UNL     1      -5.191  -0.212  -6.808  1.00  0.00    -0.332 N 
ATOM     24  C   UNL     1      -3.878   0.367  -6.567  1.00  0.00     0.147 C 
BRANCH  23  25
ATOM     25  C   UNL     1      -6.178   0.711  -7.433  1.00  0.00     0.174 C 
BRANCH  25  26
ATOM     26  C   UNL     1      -5.558   1.595  -8.541  1.00  0.00     0.038 C 
BRANCH  26  27
ATOM     27  C   UNL     1      -5.460   0.979  -9.955  1.00  0.00    -0.015 C 
ATOM     28  C   UNL     1      -5.955   1.932 -11.043  1.00  0.00     0.007 C 
ATOM     29  C   UNL     1      -4.067   0.453 -10.294  1.00  0.00     0.007 C 
ENDBRANCH  26  27
ENDBRANCH  25  26
BRANCH  25  30
ATOM     30  C   UNL     1      -6.921   1.515  -6.342  1.00  0.00     0.243 C 
ATOM     31  O   UNL     1      -7.221   2.698  -6.496  1.00  0.00    -0.273 OA
ATOM     32  N   UNL     1      -7.216   0.824  -5.194  1.00  0.00    -0.342 N 
ATOM     33  H   UNL     1      -7.062  -0.187  -5.197  1.00  0.00     0.164 HD
BRANCH  32  34
ATOM     34  C   UNL     1      -7.892   1.431  -4.044  1.00  0.00     0.175 C 
BRANCH  34  35
ATOM     35  C   UNL     1      -8.694   0.387  -3.252  1.00  0.00     0.070 C 
BRANCH  35  36
ATOM     36  C   UNL     1     -10.015   0.046  -3.904  1.00  0.00    -0.045 A 
ATOM     37  C   UNL     1     -10.586   0.928  -4.834  1.00  0.00     0.007 A 
ATOM     38  C   UNL     1     -10.696  -1.134  -3.576  1.00  0.00     0.007 A 
ATOM     39  C   UNL     1     -11.812   0.629  -5.431  1.00  0.00     0.046 A 
ATOM     40  C   UNL     1     -11.923  -1.433  -4.172  1.00  0.00     0.046 A 
ATOM     41  C   UNL     1     -12.470  -0.549  -5.096  1.00  0.00     0.115 A 
BRANCH  41  42
ATOM     42  O   UNL     1     -13.666  -0.802  -5.698  1.00  0.00    -0.508 OA
ATOM     43  H   UNL     1     -13.506  -0.939  -6.647  1.00  0.00     0.293 HD
ENDBRANCH  41  42
ENDBRANCH  35  36
ENDBRANCH  34  35
BRANCH  34  44
ATOM     44  C   UNL     1      -6.822   2.122  -3.170  1.00  0.00     0.243 C 
ATOM     45  O   UNL     1      -6.217   1.576  -2.252  1.00  0.00    -0.273 OA
ATOM     46  N   UNL     1      -6.691   3.471  -3.426  1.00  0.00    -0.341 N 
ATOM     47  H   UNL     1      -7.299   3.904  -4.117  1.00  0.00     0.164 HD
BRANCH  46  48
ATOM     48  C   UNL     1      -5.790   4.350  -2.678  1.00  0.00     0.196 C 
BRANCH  48  49
ATOM     49  C   UNL     1      -5.008   5.282  -3.619  1.00  0.00     0.072 C 
BRANCH  49  50
ATOM     50  C   UNL     1      -3.593   4.807  -3.864  1.00  0.00    -0.045 A 
ATOM     51  C   UNL     1      -3.361   3.490  -4.287  1.00  0.00     0.007 A 
ATOM     52  C   UNL     1      -2.501   5.658  -3.656  1.00  0.00     0.007 A 
ATOM     53  C   UNL     1      -2.060   3.037  -4.504  1.00  0.00     0.046 A 
ATOM     54  C   UNL     1      -1.198   5.204  -3.872  1.00  0.00     0.046 A 
ATOM     55  C   UNL     1      -0.989   3.896  -4.295  1.00  0.00     0.115 A 
BRANCH  55  56
ATOM     56  O   UNL     1       0.267   3.414  -4.517  1.00  0.00    -0.508 OA
ATOM     57  H   UNL     1       0.821   4.140  -4.845  1.00  0.00     0.293 HD
ENDBRANCH  55  56
ENDBRANCH  49  50
ENDBRANCH  48  49
BRANCH  48  58
ATOM     58  C   UNL     1      -6.614   5.188  -1.691  1.00  0.00     0.326 C 
ATOM     59  O   UNL     1      -6.202   6.037  -0.917  1.00  0.00    -0.250 OA
BRANCH  58  60
ATOM     60  O   UNL     1      -7.945   4.925  -1.737  1.00  0.00    -0.480 OA
ATOM     61  H   UNL     1      -8.298   5.645  -2.303  1.00  0.00     0.296 HD
ENDBRANCH  58  60
ENDBRANCH  48  58
ENDBRANCH  46  48
ENDBRANCH  34  44
ENDBRANCH  32  34
ENDBRANCH  25  30
ENDBRANCH  23  25
ENDBRANCH   2  23
TORSDOF 28
ENDMDL
MODEL 27
REMARK VINA RESULT:    -6.158      2.289      7.819
REMARK INTER + INTRA:         -20.828
REMARK INTER:                 -15.952
REMARK INTRA:                  -4.876
REMARK UNBOUND:                -5.490
REMARK SMILES CCCCCCC[C@H](N)[C@H](O)C(=O)N[C@H](C)C(=O)N(C)[C@H](CC(C)C)C(=O)N[C@@H](Cc1ccc(O)cc1)C(=O)N[C@@H](Cc1ccc(O)cc1)C(=O)O
REMARK SMILES IDX 18 1 17 2 15 3 16 4 14 5 12 6 13 7 10 9 11 10 8 12 9 13 7 16
REMARK SMILES IDX 6 17 5 18 4 19 3 20 2 21 1 22 19 23 20 24 21 25 22 26 23 27
REMARK SMILES IDX 24 28 25 29 26 30 27 31 28 32 29 34 30 35 31 36 32 37 37 38
REMARK SMILES IDX 33 39 36 40 34 41 35 42 38 44 39 45 40 46 41 48 42 49 43 50
REMARK SMILES IDX 44 51 49 52 45 53 48 54 46 55 47 56 50 58 51 59 52 60
REMARK H PARENT 14 8 11 11 9 14 9 15 28 33 35 43 40 47 47 57 52 61
ROOT
ATOM      1  O   UNL     1      -7.468   2.405  -4.031  1.00  0.00    -0.272 OA
ATOM      2  C   UNL     1      -8.285   2.213  -4.943  1.00  0.00     0.245 C 
ENDROOT
BRANCH   2   3
ATOM      3  C   UNL     1      -9.072   0.878  -4.964  1.00  0.00     0.168 C 
ATOM      4  C   UNL     1     -10.499   1.098  -5.456  1.00  0.00     0.041 C 
BRANCH   3   5
ATOM      5  N   UNL     1      -8.415  -0.208  -5.675  1.00  0.00    -0.342 N 
ATOM      6  C   UNL     1      -7.441  -0.982  -5.081  1.00  0.00     0.251 C 
ATOM      7  O   UNL     1      -7.028  -0.793  -3.942  1.00  0.00    -0.272 OA
ATOM      8  H   UNL     1      -8.649  -0.437  -6.638  1.00  0.00     0.164 HD
BRANCH   6   9
ATOM      9  C   UNL     1      -6.992  -2.155  -5.967  1.00  0.00     0.219 C 
BRANCH   9  10
ATOM     10  O   UNL     1      -7.206  -3.429  -5.347  1.00  0.00    -0.382 OA
ATOM     11  H   UNL     1      -7.070  -3.246  -4.391  1.00  0.00     0.211 HD
ENDBRANCH   9  10
BRANCH   9  12
ATOM     12  C   UNL     1      -7.617  -2.121  -7.386  1.00  0.00     0.089 C 
BRANCH  12  13
ATOM     13  N   UNL     1      -6.533  -1.897  -8.369  1.00  0.00    -0.325 NA
ATOM     14  H   UNL     1      -6.889  -1.327  -9.138  1.00  0.00     0.119 HD
ATOM     15  H   UNL     1      -6.282  -2.792  -8.795  1.00  0.00     0.119 HD
ENDBRANCH  12  13
BRANCH  12  16
ATOM     16  C   UNL     1      -8.453  -3.359  -7.789  1.00  0.00     0.022 C 
BRANCH  16  17
ATOM     17  C   UNL     1      -9.980  -3.309  -7.646  1.00  0.00     0.002 C 
BRANCH  17  18
ATOM     18  C   UNL     1     -10.589  -4.445  -6.827  1.00  0.00     0.000 C 
BRANCH  18  19
ATOM     19  C   UNL     1     -10.906  -4.067  -5.374  1.00  0.00    -0.000 C 
BRANCH  19  20
ATOM     20  C   UNL     1     -10.185  -4.903  -4.313  1.00  0.00    -0.000 C 
BRANCH  20  21
ATOM     21  C   UNL     1      -9.646  -6.228  -4.858  1.00  0.00    -0.003 C 
ATOM     22  C   UNL     1     -10.030  -7.394  -3.959  1.00  0.00     0.004 C 
ENDBRANCH  20  21
ENDBRANCH  19  20
ENDBRANCH  18  19
ENDBRANCH  17  18
ENDBRANCH  16  17
ENDBRANCH  12  16
ENDBRANCH   9  12
ENDBRANCH   6   9
ENDBRANCH   3   5
ENDBRANCH   2   3
BRANCH   2  23
ATOM     23  N   UNL     1      -8.569   3.229  -5.849  1.00  0.00    -0.332 N 
ATOM     24  C   UNL     1      -9.266   4.462  -5.515  1.00  0.00     0.147 C 
BRANCH  23  25
ATOM     25  C   UNL     1      -8.043   3.164  -7.240  1.00  0.00     0.174 C 
BRANCH  25  26
ATOM     26  C   UNL     1      -9.137   2.836  -8.283  1.00  0.00     0.038 C 
BRANCH  26  27
ATOM     27  C   UNL     1      -9.234   3.768  -9.512  1.00  0.00    -0.015 C 
ATOM     28  C   UNL     1      -9.449   5.230  -9.122  1.00  0.00     0.007 C 
ATOM     29  C   UNL     1      -8.052   3.636 -10.469  1.00  0.00     0.007 C 
ENDBRANCH  26  27
ENDBRANCH  25  26
BRANCH  25  30
ATOM     30  C   UNL     1      -6.821   2.218  -7.303  1.00  0.00     0.243 C 
ATOM     31  O   UNL     1      -6.839   1.176  -7.956  1.00  0.00    -0.273 OA
ATOM     32  N   UNL     1      -5.725   2.616  -6.581  1.00  0.00    -0.342 N 
ATOM     33  H   UNL     1      -5.737   3.558  -6.183  1.00  0.00     0.164 HD
BRANCH  32  34
ATOM     34  C   UNL     1      -4.490   1.833  -6.503  1.00  0.00     0.175 C 
BRANCH  34  35
ATOM     35  C   UNL     1      -3.511   2.218  -7.623  1.00  0.00     0.070 C 
BRANCH  35  36
ATOM     36  C   UNL     1      -2.696   1.045  -8.117  1.00  0.00    -0.045 A 
ATOM     37  C   UNL     1      -2.481  -0.062  -7.282  1.00  0.00     0.007 A 
ATOM     38  C   UNL     1      -2.128   1.053  -9.398  1.00  0.00     0.007 A 
ATOM     39  C   UNL     1      -1.719  -1.144  -7.725  1.00  0.00     0.046 A 
ATOM     40  C   UNL     1      -1.364  -0.029  -9.841  1.00  0.00     0.046 A 
ATOM     41  C   UNL     1      -1.167  -1.119  -9.000  1.00  0.00     0.115 A 
BRANCH  41  42
ATOM     42  O   UNL     1      -0.427  -2.195  -9.392  1.00  0.00    -0.508 OA
ATOM     43  H   UNL     1       0.319  -1.873  -9.926  1.00  0.00     0.293 HD
ENDBRANCH  41  42
ENDBRANCH  35  36
ENDBRANCH  34  35
BRANCH  34  44
ATOM     44  C   UNL     1      -3.876   2.046  -5.101  1.00  0.00     0.243 C 
ATOM     45  O   UNL     1      -4.107   1.336  -4.126  1.00  0.00    -0.273 OA
ATOM     46  N   UNL     1      -3.130   3.202  -4.998  1.00  0.00    -0.341 N 
ATOM     47  H   UNL     1      -3.064   3.820  -5.803  1.00  0.00     0.164 HD
BRANCH  46  48
ATOM     48  C   UNL     1      -2.507   3.651  -3.751  1.00  0.00     0.196 C 
BRANCH  48  49
ATOM     49  C   UNL     1      -1.003   3.912  -3.940  1.00  0.00     0.072 C 
BRANCH  49  50
ATOM     50  C   UNL     1      -0.585   3.884  -5.392  1.00  0.00    -0.045 A 
ATOM     51  C   UNL     1       0.031   2.740  -5.921  1.00  0.00     0.007 A 
ATOM     52  C   UNL     1      -0.784   4.995  -6.221  1.00  0.00     0.007 A 
ATOM     53  C   UNL     1       0.433   2.707  -7.256  1.00  0.00     0.046 A 
ATOM     54  C   UNL     1      -0.380   4.963  -7.558  1.00  0.00     0.046 A 
ATOM     55  C   UNL     1       0.224   3.818  -8.065  1.00  0.00     0.115 A 
BRANCH  55  56
ATOM     56  O   UNL     1       0.633   3.747  -9.363  1.00  0.00    -0.508 OA
ATOM     57  H   UNL     1      -0.153   3.682  -9.929  1.00  0.00     0.293 HD
ENDBRANCH  55  56
ENDBRANCH  49  50
ENDBRANCH  48  49
BRANCH  48  58
ATOM     58  C   UNL     1      -3.198   4.939  -3.283  1.00  0.00     0.326 C 
ATOM     59  O   UNL     1      -2.853   5.673  -2.371  1.00  0.00    -0.250 OA
BRANCH  58  60
ATOM     60  O   UNL     1      -4.301   5.255  -4.007  1.00  0.00    -0.480 OA
ATOM     61  H   UNL     1      -4.958   4.582  -3.724  1.00  0.00     0.296 HD
ENDBRANCH  58  60
ENDBRANCH  48  58
ENDBRANCH  46  48
ENDBRANCH  34  44
ENDBRANCH  32  34
ENDBRANCH  25  30
ENDBRANCH  23  25
ENDBRANCH   2  23
TORSDOF 28
ENDMDL
MODEL 28
REMARK VINA RESULT:    -6.155      3.591      8.629
REMARK INTER + INTRA:         -20.821
REMARK INTER:                 -17.492
REMARK INTRA:                  -3.329
REMARK UNBOUND:                -5.490
REMARK SMILES CCCCCCC[C@H](N)[C@H](O)C(=O)N[C@H](C)C(=O)N(C)[C@H](CC(C)C)C(=O)N[C@@H](Cc1ccc(O)cc1)C(=O)N[C@@H](Cc1ccc(O)cc1)C(=O)O
REMARK SMILES IDX 18 1 17 2 15 3 16 4 14 5 12 6 13 7 10 9 11 10 8 12 9 13 7 16
REMARK SMILES IDX 6 17 5 18 4 19 3 20 2 21 1 22 19 23 20 24 21 25 22 26 23 27
REMARK SMILES IDX 24 28 25 29 26 30 27 31 28 32 29 34 30 35 31 36 32 37 37 38
REMARK SMILES IDX 33 39 36 40 34 41 35 42 38 44 39 45 40 46 41 48 42 49 43 50
REMARK SMILES IDX 44 51 49 52 45 53 48 54 46 55 47 56 50 58 51 59 52 60
REMARK H PARENT 14 8 11 11 9 14 9 15 28 33 35 43 40 47 47 57 52 61
ROOT
ATOM      1  O   UNL     1      -7.184  -2.907  -3.991  1.00  0.00    -0.272 OA
ATOM      2  C   UNL     1      -7.871  -2.910  -5.024  1.00  0.00     0.245 C 
ENDROOT
BRANCH   2   3
ATOM      3  C   UNL     1      -8.261  -4.272  -5.650  1.00  0.00     0.168 C 
ATOM      4  C   UNL     1      -7.101  -4.852  -6.450  1.00  0.00     0.041 C 
BRANCH   3   5
ATOM      5  N   UNL     1      -8.812  -5.240  -4.714  1.00  0.00    -0.342 N 
ATOM      6  C   UNL     1     -10.165  -5.491  -4.639  1.00  0.00     0.251 C 
ATOM      7  O   UNL     1     -11.002  -4.900  -5.314  1.00  0.00    -0.272 OA
ATOM      8  H   UNL     1      -8.219  -5.768  -4.078  1.00  0.00     0.164 HD
BRANCH   6   9
ATOM      9  C   UNL     1     -10.503  -6.648  -3.685  1.00  0.00     0.219 C 
BRANCH   9  10
ATOM     10  O   UNL     1      -9.439  -7.602  -3.575  1.00  0.00    -0.382 OA
ATOM     11  H   UNL     1      -9.862  -8.369  -3.129  1.00  0.00     0.211 HD
ENDBRANCH   9  10
BRANCH   9  12
ATOM     12  C   UNL     1     -10.961  -6.169  -2.283  1.00  0.00     0.089 C 
BRANCH  12  13
ATOM     13  N   UNL     1     -12.273  -6.786  -1.983  1.00  0.00    -0.325 NA
ATOM     14  H   UNL     1     -12.952  -6.050  -1.781  1.00  0.00     0.119 HD
ATOM     15  H   UNL     1     -12.195  -7.323  -1.116  1.00  0.00     0.119 HD
ENDBRANCH  12  13
BRANCH  12  16
ATOM     16  C   UNL     1      -9.972  -6.429  -1.121  1.00  0.00     0.022 C 
BRANCH  16  17
ATOM     17  C   UNL     1      -9.536  -5.256  -0.234  1.00  0.00     0.002 C 
BRANCH  17  18
ATOM     18  C   UNL     1      -9.235  -5.622   1.218  1.00  0.00     0.000 C 
BRANCH  18  19
ATOM     19  C   UNL     1      -9.551  -4.506   2.223  1.00  0.00    -0.000 C 
BRANCH  19  20
ATOM     20  C   UNL     1     -10.696  -3.573   1.819  1.00  0.00    -0.000 C 
BRANCH  20  21
ATOM     21  C   UNL     1     -10.212  -2.277   1.165  1.00  0.00    -0.003 C 
ATOM     22  C   UNL     1     -10.568  -1.063   2.008  1.00  0.00     0.004 C 
ENDBRANCH  20  21
ENDBRANCH  19  20
ENDBRANCH  18  19
ENDBRANCH  17  18
ENDBRANCH  16  17
ENDBRANCH  12  16
ENDBRANCH   9  12
ENDBRANCH   6   9
ENDBRANCH   3   5
ENDBRANCH   2   3
BRANCH   2  23
ATOM     23  N   UNL     1      -8.376  -1.716  -5.527  1.00  0.00    -0.332 N 
ATOM     24  C   UNL     1      -9.687  -1.172  -5.204  1.00  0.00     0.147 C 
BRANCH  23  25
ATOM     25  C   UNL     1      -7.517  -0.828  -6.358  1.00  0.00     0.174 C 
BRANCH  25  26
ATOM     26  C   UNL     1      -6.174  -1.487  -6.753  1.00  0.00     0.038 C 
BRANCH  26  27
ATOM     27  C   UNL     1      -5.332  -0.768  -7.830  1.00  0.00    -0.015 C 
ATOM     28  C   UNL     1      -3.939  -0.390  -7.326  1.00  0.00     0.007 C 
ATOM     29  C   UNL     1      -5.237  -1.541  -9.143  1.00  0.00     0.007 C 
ENDBRANCH  26  27
ENDBRANCH  25  26
BRANCH  25  30
ATOM     30  C   UNL     1      -7.356   0.549  -5.674  1.00  0.00     0.243 C 
ATOM     31  O   UNL     1      -7.931   1.553  -6.091  1.00  0.00    -0.273 OA
ATOM     32  N   UNL     1      -6.528   0.576  -4.581  1.00  0.00    -0.342 N 
ATOM     33  H   UNL     1      -6.201  -0.321  -4.213  1.00  0.00     0.164 HD
BRANCH  32  34
ATOM     34  C   UNL     1      -6.237   1.797  -3.826  1.00  0.00     0.175 C 
BRANCH  34  35
ATOM     35  C   UNL     1      -6.557   1.621  -2.334  1.00  0.00     0.070 C 
BRANCH  35  36
ATOM     36  C   UNL     1      -8.002   1.923  -2.006  1.00  0.00    -0.045 A 
ATOM     37  C   UNL     1      -8.732   1.052  -1.182  1.00  0.00     0.007 A 
ATOM     38  C   UNL     1      -8.638   3.054  -2.535  1.00  0.00     0.007 A 
ATOM     39  C   UNL     1     -10.070   1.315  -0.886  1.00  0.00     0.046 A 
ATOM     40  C   UNL     1      -9.978   3.317  -2.240  1.00  0.00     0.046 A 
ATOM     41  C   UNL     1     -10.682   2.444  -1.416  1.00  0.00     0.115 A 
BRANCH  41  42
ATOM     42  O   UNL     1     -11.991   2.663  -1.104  1.00  0.00    -0.508 OA
ATOM     43  H   UNL     1     -12.306   1.914  -0.571  1.00  0.00     0.293 HD
ENDBRANCH  41  42
ENDBRANCH  35  36
ENDBRANCH  34  35
BRANCH  34  44
ATOM     44  C   UNL     1      -4.753   2.162  -4.059  1.00  0.00     0.243 C 
ATOM     45  O   UNL     1      -3.862   1.343  -4.265  1.00  0.00    -0.273 OA
ATOM     46  N   UNL     1      -4.484   3.503  -3.884  1.00  0.00    -0.341 N 
ATOM     47  H   UNL     1      -5.236   4.125  -3.599  1.00  0.00     0.164 HD
BRANCH  46  48
ATOM     48  C   UNL     1      -3.139   4.074  -3.986  1.00  0.00     0.196 C 
BRANCH  48  49
ATOM     49  C   UNL     1      -2.934   4.789  -5.332  1.00  0.00     0.072 C 
BRANCH  49  50
ATOM     50  C   UNL     1      -1.766   4.232  -6.114  1.00  0.00    -0.045 A 
ATOM     51  C   UNL     1      -1.115   3.073  -5.668  1.00  0.00     0.007 A 
ATOM     52  C   UNL     1      -1.306   4.868  -7.274  1.00  0.00     0.007 A 
ATOM     53  C   UNL     1      -0.028   2.557  -6.374  1.00  0.00     0.046 A 
ATOM     54  C   UNL     1      -0.217   4.353  -7.981  1.00  0.00     0.046 A 
ATOM     55  C   UNL     1       0.412   3.200  -7.525  1.00  0.00     0.115 A 
BRANCH  55  56
ATOM     56  O   UNL     1       1.479   2.665  -8.185  1.00  0.00    -0.508 OA
ATOM     57  H   UNL     1       1.146   2.035  -8.844  1.00  0.00     0.293 HD
ENDBRANCH  55  56
ENDBRANCH  49  50
ENDBRANCH  48  49
BRANCH  48  58
ATOM     58  C   UNL     1      -2.932   5.071  -2.837  1.00  0.00     0.326 C 
ATOM     59  O   UNL     1      -2.349   6.142  -2.884  1.00  0.00    -0.250 OA
BRANCH  58  60
ATOM     60  O   UNL     1      -3.492   4.672  -1.667  1.00  0.00    -0.480 OA
ATOM     61  H   UNL     1      -3.735   5.519  -1.233  1.00  0.00     0.296 HD
ENDBRANCH  58  60
ENDBRANCH  48  58
ENDBRANCH  46  48
ENDBRANCH  34  44
ENDBRANCH  32  34
ENDBRANCH  25  30
ENDBRANCH  23  25
ENDBRANCH   2  23
TORSDOF 28
ENDMDL
MODEL 29
REMARK VINA RESULT:    -6.145      3.268      7.293
REMARK INTER + INTRA:         -20.796
REMARK INTER:                 -16.944
REMARK INTRA:                  -3.852
REMARK UNBOUND:                -5.490
REMARK SMILES CCCCCCC[C@H](N)[C@H](O)C(=O)N[C@H](C)C(=O)N(C)[C@H](CC(C)C)C(=O)N[C@@H](Cc1ccc(O)cc1)C(=O)N[C@@H](Cc1ccc(O)cc1)C(=O)O
REMARK SMILES IDX 18 1 17 2 15 3 16 4 14 5 12 6 13 7 10 9 11 10 8 12 9 13 7 16
REMARK SMILES IDX 6 17 5 18 4 19 3 20 2 21 1 22 19 23 20 24 21 25 22 26 23 27
REMARK SMILES IDX 24 28 25 29 26 30 27 31 28 32 29 34 30 35 31 36 32 37 37 38
REMARK SMILES IDX 33 39 36 40 34 41 35 42 38 44 39 45 40 46 41 48 42 49 43 50
REMARK SMILES IDX 44 51 49 52 45 53 48 54 46 55 47 56 50 58 51 59 52 60
REMARK H PARENT 14 8 11 11 9 14 9 15 28 33 35 43 40 47 47 57 52 61
ROOT
ATOM      1  O   UNL     1      -4.191   0.836  -4.985  1.00  0.00    -0.272 OA
ATOM      2  C   UNL     1      -5.364   1.223  -4.876  1.00  0.00     0.245 C 
ENDROOT
BRANCH   2   3
ATOM      3  C   UNL     1      -5.698   2.285  -3.799  1.00  0.00     0.168 C 
ATOM      4  C   UNL     1      -6.360   1.637  -2.587  1.00  0.00     0.041 C 
BRANCH   3   5
ATOM      5  N   UNL     1      -4.584   3.138  -3.416  1.00  0.00    -0.342 N 
ATOM      6  C   UNL     1      -4.614   4.504  -3.605  1.00  0.00     0.251 C 
ATOM      7  O   UNL     1      -5.549   5.092  -4.140  1.00  0.00    -0.272 OA
ATOM      8  H   UNL     1      -3.739   2.760  -2.994  1.00  0.00     0.164 HD
BRANCH   6   9
ATOM      9  C   UNL     1      -3.395   5.215  -2.998  1.00  0.00     0.219 C 
BRANCH   9  10
ATOM     10  O   UNL     1      -3.250   4.964  -1.595  1.00  0.00    -0.382 OA
ATOM     11  H   UNL     1      -3.151   5.861  -1.208  1.00  0.00     0.211 HD
ENDBRANCH   9  10
BRANCH   9  12
ATOM     12  C   UNL     1      -2.074   4.910  -3.752  1.00  0.00     0.089 C 
BRANCH  12  13
ATOM     13  N   UNL     1      -1.673   3.517  -3.447  1.00  0.00    -0.325 NA
ATOM     14  H   UNL     1      -1.357   3.063  -4.306  1.00  0.00     0.119 HD
ATOM     15  H   UNL     1      -2.500   2.991  -3.156  1.00  0.00     0.119 HD
ENDBRANCH  12  13
BRANCH  12  16
ATOM     16  C   UNL     1      -2.100   5.133  -5.283  1.00  0.00     0.022 C 
BRANCH  16  17
ATOM     17  C   UNL     1      -1.712   3.976  -6.213  1.00  0.00     0.002 C 
BRANCH  17  18
ATOM     18  C   UNL     1      -0.243   3.946  -6.627  1.00  0.00     0.000 C 
BRANCH  18  19
ATOM     19  C   UNL     1       0.038   4.609  -7.982  1.00  0.00    -0.000 C 
BRANCH  19  20
ATOM     20  C   UNL     1      -1.176   4.740  -8.906  1.00  0.00    -0.000 C 
BRANCH  20  21
ATOM     21  C   UNL     1      -1.207   3.679 -10.009  1.00  0.00    -0.003 C 
ATOM     22  C   UNL     1      -2.198   2.572  -9.685  1.00  0.00     0.004 C 
ENDBRANCH  20  21
ENDBRANCH  19  20
ENDBRANCH  18  19
ENDBRANCH  17  18
ENDBRANCH  16  17
ENDBRANCH  12  16
ENDBRANCH   9  12
ENDBRANCH   6   9
ENDBRANCH   3   5
ENDBRANCH   2   3
BRANCH   2  23
ATOM     23  N   UNL     1      -6.324   0.798  -5.789  1.00  0.00    -0.332 N 
ATOM     24  C   UNL     1      -7.490   1.575  -6.183  1.00  0.00     0.147 C 
BRANCH  23  25
ATOM     25  C   UNL     1      -6.136  -0.475  -6.538  1.00  0.00     0.174 C 
BRANCH  25  26
ATOM     26  C   UNL     1      -5.916  -0.255  -8.053  1.00  0.00     0.038 C 
BRANCH  26  27
ATOM     27  C   UNL     1      -5.155  -1.361  -8.818  1.00  0.00    -0.015 C 
ATOM     28  C   UNL     1      -5.925  -1.863 -10.038  1.00  0.00     0.007 C 
ATOM     29  C   UNL     1      -3.733  -0.963  -9.207  1.00  0.00     0.007 C 
ENDBRANCH  26  27
ENDBRANCH  25  26
BRANCH  25  30
ATOM     30  C   UNL     1      -7.284  -1.457  -6.213  1.00  0.00     0.243 C 
ATOM     31  O   UNL     1      -8.106  -1.800  -7.062  1.00  0.00    -0.273 OA
ATOM     32  N   UNL     1      -7.326  -1.914  -4.921  1.00  0.00    -0.342 N 
ATOM     33  H   UNL     1      -6.531  -1.697  -4.316  1.00  0.00     0.164 HD
BRANCH  32  34
ATOM     34  C   UNL     1      -8.359  -2.829  -4.427  1.00  0.00     0.175 C 
BRANCH  34  35
ATOM     35  C   UNL     1      -7.774  -3.854  -3.444  1.00  0.00     0.070 C 
BRANCH  35  36
ATOM     36  C   UNL     1      -8.508  -5.176  -3.471  1.00  0.00    -0.045 A 
ATOM     37  C   UNL     1      -8.559  -5.973  -2.318  1.00  0.00     0.007 A 
ATOM     38  C   UNL     1      -9.123  -5.632  -4.644  1.00  0.00     0.007 A 
ATOM     39  C   UNL     1      -9.222  -7.201  -2.337  1.00  0.00     0.046 A 
ATOM     40  C   UNL     1      -9.786  -6.862  -4.664  1.00  0.00     0.046 A 
ATOM     41  C   UNL     1      -9.831  -7.635  -3.508  1.00  0.00     0.115 A 
BRANCH  41  42
ATOM     42  O   UNL     1     -10.465  -8.841  -3.486  1.00  0.00    -0.508 OA
ATOM     43  H   UNL     1     -10.533  -9.132  -2.561  1.00  0.00     0.293 HD
ENDBRANCH  41  42
ENDBRANCH  35  36
ENDBRANCH  34  35
BRANCH  34  44
ATOM     44  C   UNL     1      -9.479  -1.983  -3.781  1.00  0.00     0.243 C 
ATOM     45  O   UNL     1     -10.670  -2.072  -4.068  1.00  0.00    -0.273 OA
ATOM     46  N   UNL     1      -9.007  -1.007  -2.928  1.00  0.00    -0.341 N 
ATOM     47  H   UNL     1      -8.003  -0.896  -2.812  1.00  0.00     0.164 HD
BRANCH  46  48
ATOM     48  C   UNL     1      -9.875  -0.040  -2.252  1.00  0.00     0.196 C 
BRANCH  48  49
ATOM     49  C   UNL     1      -9.305   0.360  -0.880  1.00  0.00     0.072 C 
BRANCH  49  50
ATOM     50  C   UNL     1      -9.766  -0.556   0.231  1.00  0.00    -0.045 A 
ATOM     51  C   UNL     1     -10.217  -1.849  -0.071  1.00  0.00     0.007 A 
ATOM     52  C   UNL     1      -9.772  -0.125   1.564  1.00  0.00     0.007 A 
ATOM     53  C   UNL     1     -10.658  -2.698   0.945  1.00  0.00     0.046 A 
ATOM     54  C   UNL     1     -10.214  -0.975   2.580  1.00  0.00     0.046 A 
ATOM     55  C   UNL     1     -10.653  -2.255   2.262  1.00  0.00     0.115 A 
BRANCH  55  56
ATOM     56  O   UNL     1     -11.093  -3.115   3.224  1.00  0.00    -0.508 OA
ATOM     57  H   UNL     1     -12.058  -3.187   3.152  1.00  0.00     0.293 HD
ENDBRANCH  55  56
ENDBRANCH  49  50
ENDBRANCH  48  49
BRANCH  48  58
ATOM     58  C   UNL     1     -10.015   1.208  -3.135  1.00  0.00     0.326 C 
ATOM     59  O   UNL     1      -9.765   2.362  -2.828  1.00  0.00    -0.250 OA
BRANCH  58  60
ATOM     60  O   UNL     1     -10.457   0.937  -4.388  1.00  0.00    -0.480 OA
ATOM     61  H   UNL     1     -11.152   1.615  -4.535  1.00  0.00     0.296 HD
ENDBRANCH  58  60
ENDBRANCH  48  58
ENDBRANCH  46  48
ENDBRANCH  34  44
ENDBRANCH  32  34
ENDBRANCH  25  30
ENDBRANCH  23  25
ENDBRANCH   2  23
TORSDOF 28
ENDMDL
MODEL 30
REMARK VINA RESULT:    -6.144      3.991      9.476
REMARK INTER + INTRA:         -20.793
REMARK INTER:                 -16.942
REMARK INTRA:                  -3.852
REMARK UNBOUND:                -5.490
REMARK SMILES CCCCCCC[C@H](N)[C@H](O)C(=O)N[C@H](C)C(=O)N(C)[C@H](CC(C)C)C(=O)N[C@@H](Cc1ccc(O)cc1)C(=O)N[C@@H](Cc1ccc(O)cc1)C(=O)O
REMARK SMILES IDX 18 1 17 2 15 3 16 4 14 5 12 6 13 7 10 9 11 10 8 12 9 13 7 16
REMARK SMILES IDX 6 17 5 18 4 19 3 20 2 21 1 22 19 23 20 24 21 25 22 26 23 27
REMARK SMILES IDX 24 28 25 29 26 30 27 31 28 32 29 34 30 35 31 36 32 37 37 38
REMARK SMILES IDX 33 39 36 40 34 41 35 42 38 44 39 45 40 46 41 48 42 49 43 50
REMARK SMILES IDX 44 51 49 52 45 53 48 54 46 55 47 56 50 58 51 59 52 60
REMARK H PARENT 14 8 11 11 9 14 9 15 28 33 35 43 40 47 47 57 52 61
ROOT
ATOM      1  O   UNL     1      -7.209  -2.115  -4.368  1.00  0.00    -0.272 OA
ATOM      2  C   UNL     1      -8.378  -2.514  -4.257  1.00  0.00     0.245 C 
ENDROOT
BRANCH   2   3
ATOM      3  C   UNL     1      -8.706  -3.970  -4.673  1.00  0.00     0.168 C 
ATOM      4  C   UNL     1      -7.743  -4.456  -5.752  1.00  0.00     0.041 C 
BRANCH   3   5
ATOM      5  N   UNL     1      -8.805  -4.913  -3.571  1.00  0.00    -0.342 N 
ATOM      6  C   UNL     1     -10.002  -5.503  -3.222  1.00  0.00     0.251 C 
ATOM      7  O   UNL     1     -11.066  -5.251  -3.776  1.00  0.00    -0.272 OA
ATOM      8  H   UNL     1      -7.994  -5.174  -3.014  1.00  0.00     0.164 HD
BRANCH   6   9
ATOM      9  C   UNL     1      -9.842  -6.568  -2.125  1.00  0.00     0.219 C 
BRANCH   9  10
ATOM     10  O   UNL     1      -8.972  -7.637  -2.515  1.00  0.00    -0.382 OA
ATOM     11  H   UNL     1      -8.080  -7.224  -2.503  1.00  0.00     0.211 HD
ENDBRANCH   9  10
BRANCH   9  12
ATOM     12  C   UNL     1      -9.409  -5.976  -0.759  1.00  0.00     0.089 C 
BRANCH  12  13
ATOM     13  N   UNL     1      -9.597  -4.507  -0.805  1.00  0.00    -0.325 NA
ATOM     14  H   UNL     1      -9.484  -4.124   0.135  1.00  0.00     0.119 HD
ATOM     15  H   UNL     1     -10.566  -4.306  -1.061  1.00  0.00     0.119 HD
ENDBRANCH  12  13
BRANCH  12  16
ATOM     16  C   UNL     1     -10.113  -6.562   0.488  1.00  0.00     0.022 C 
BRANCH  16  17
ATOM     17  C   UNL     1     -11.587  -6.221   0.744  1.00  0.00     0.002 C 
BRANCH  17  18
ATOM     18  C   UNL     1     -11.875  -5.588   2.104  1.00  0.00     0.000 C 
BRANCH  18  19
ATOM     19  C   UNL     1     -11.783  -4.056   2.113  1.00  0.00    -0.000 C 
BRANCH  19  20
ATOM     20  C   UNL     1     -10.425  -3.489   2.536  1.00  0.00    -0.000 C 
BRANCH  20  21
ATOM     21  C   UNL     1      -9.948  -4.022   3.889  1.00  0.00    -0.003 C 
ATOM     22  C   UNL     1      -8.528  -4.560   3.804  1.00  0.00     0.004 C 
ENDBRANCH  20  21
ENDBRANCH  19  20
ENDBRANCH  18  19
ENDBRANCH  17  18
ENDBRANCH  16  17
ENDBRANCH  12  16
ENDBRANCH   9  12
ENDBRANCH   6   9
ENDBRANCH   3   5
ENDBRANCH   2   3
BRANCH   2  23
ATOM     23  N   UNL     1      -9.335  -1.704  -3.656  1.00  0.00    -0.332 N 
ATOM     24  C   UNL     1     -10.767  -1.802  -3.895  1.00  0.00     0.147 C 
BRANCH  23  25
ATOM     25  C   UNL     1      -8.941  -0.736  -2.596  1.00  0.00     0.174 C 
BRANCH  25  26
ATOM     26  C   UNL     1      -9.879  -0.775  -1.367  1.00  0.00     0.038 C 
BRANCH  26  27
ATOM     27  C   UNL     1      -9.709   0.350  -0.321  1.00  0.00    -0.015 C 
ATOM     28  C   UNL     1     -10.824   1.392  -0.397  1.00  0.00     0.007 C 
ATOM     29  C   UNL     1      -9.554  -0.167   1.107  1.00  0.00     0.007 C 
ENDBRANCH  26  27
ENDBRANCH  25  26
BRANCH  25  30
ATOM     30  C   UNL     1      -8.769   0.676  -3.203  1.00  0.00     0.243 C 
ATOM     31  O   UNL     1      -9.674   1.231  -3.824  1.00  0.00    -0.273 OA
ATOM     32  N   UNL     1      -7.544   1.260  -3.008  1.00  0.00    -0.342 N 
ATOM     33  H   UNL     1      -6.896   0.798  -2.364  1.00  0.00     0.164 HD
BRANCH  32  34
ATOM     34  C   UNL     1      -7.193   2.582  -3.534  1.00  0.00     0.175 C 
BRANCH  34  35
ATOM     35  C   UNL     1      -7.641   3.700  -2.580  1.00  0.00     0.070 C 
BRANCH  35  36
ATOM     36  C   UNL     1      -8.756   4.545  -3.152  1.00  0.00    -0.045 A 
ATOM     37  C   UNL     1      -8.518   5.357  -4.271  1.00  0.00     0.007 A 
ATOM     38  C   UNL     1     -10.028   4.549  -2.565  1.00  0.00     0.007 A 
ATOM     39  C   UNL     1      -9.537   6.151  -4.798  1.00  0.00     0.046 A 
ATOM     40  C   UNL     1     -11.049   5.345  -3.091  1.00  0.00     0.046 A 
ATOM     41  C   UNL     1     -10.794   6.138  -4.205  1.00  0.00     0.115 A 
BRANCH  41  42
ATOM     42  O   UNL     1     -11.761   6.931  -4.748  1.00  0.00    -0.508 OA
ATOM     43  H   UNL     1     -11.674   6.898  -5.715  1.00  0.00     0.293 HD
ENDBRANCH  41  42
ENDBRANCH  35  36
ENDBRANCH  34  35
BRANCH  34  44
ATOM     44  C   UNL     1      -5.668   2.609  -3.781  1.00  0.00     0.243 C 
ATOM     45  O   UNL     1      -4.962   1.609  -3.872  1.00  0.00    -0.273 OA
ATOM     46  N   UNL     1      -5.132   3.879  -3.760  1.00  0.00    -0.341 N 
ATOM     47  H   UNL     1      -5.741   4.670  -3.564  1.00  0.00     0.164 HD
BRANCH  46  48
ATOM     48  C   UNL     1      -3.700   4.152  -3.903  1.00  0.00     0.196 C 
BRANCH  48  49
ATOM     49  C   UNL     1      -3.396   4.872  -5.228  1.00  0.00     0.072 C 
BRANCH  49  50
ATOM     50  C   UNL     1      -2.207   4.281  -5.952  1.00  0.00    -0.045 A 
ATOM     51  C   UNL     1      -2.033   4.521  -7.323  1.00  0.00     0.007 A 
ATOM     52  C   UNL     1      -1.280   3.476  -5.278  1.00  0.00     0.007 A 
ATOM     53  C   UNL     1      -0.947   3.972  -8.004  1.00  0.00     0.046 A 
ATOM     54  C   UNL     1      -0.193   2.925  -5.960  1.00  0.00     0.046 A 
ATOM     55  C   UNL     1      -0.036   3.178  -7.318  1.00  0.00     0.115 A 
BRANCH  55  56
ATOM     56  O   UNL     1       1.011   2.658  -8.020  1.00  0.00    -0.508 OA
ATOM     57  H   UNL     1       1.514   2.074  -7.431  1.00  0.00     0.293 HD
ENDBRANCH  55  56
ENDBRANCH  49  50
ENDBRANCH  48  49
BRANCH  48  58
ATOM     58  C   UNL     1      -3.237   5.022  -2.727  1.00  0.00     0.326 C 
ATOM     59  O   UNL     1      -2.418   5.927  -2.754  1.00  0.00    -0.250 OA
BRANCH  58  60
ATOM     60  O   UNL     1      -3.849   4.718  -1.555  1.00  0.00    -0.480 OA
ATOM     61  H   UNL     1      -3.126   4.797  -0.895  1.00  0.00     0.296 HD
ENDBRANCH  58  60
ENDBRANCH  48  58
ENDBRANCH  46  48
ENDBRANCH  34  44
ENDBRANCH  32  34
ENDBRANCH  25  30
ENDBRANCH  23  25
ENDBRANCH   2  23
TORSDOF 28
ENDMDL
MODEL 31
REMARK VINA RESULT:    -6.131      3.025      7.957
REMARK INTER + INTRA:         -20.762
REMARK INTER:                 -17.073
REMARK INTRA:                  -3.689
REMARK UNBOUND:                -5.490
REMARK SMILES CCCCCCC[C@H](N)[C@H](O)C(=O)N[C@H](C)C(=O)N(C)[C@H](CC(C)C)C(=O)N[C@@H](Cc1ccc(O)cc1)C(=O)N[C@@H](Cc1ccc(O)cc1)C(=O)O
REMARK SMILES IDX 18 1 17 2 15 3 16 4 14 5 12 6 13 7 10 9 11 10 8 12 9 13 7 16
REMARK SMILES IDX 6 17 5 18 4 19 3 20 2 21 1 22 19 23 20 24 21 25 22 26 23 27
REMARK SMILES IDX 24 28 25 29 26 30 27 31 28 32 29 34 30 35 31 36 32 37 37 38
REMARK SMILES IDX 33 39 36 40 34 41 35 42 38 44 39 45 40 46 41 48 42 49 43 50
REMARK SMILES IDX 44 51 49 52 45 53 48 54 46 55 47 56 50 58 51 59 52 60
REMARK H PARENT 14 8 11 11 9 14 9 15 28 33 35 43 40 47 47 57 52 61
ROOT
ATOM      1  O   UNL     1      -5.760   1.774  -7.728  1.00  0.00    -0.272 OA
ATOM      2  C   UNL     1      -4.929   1.235  -6.982  1.00  0.00     0.245 C 
ENDROOT
BRANCH   2   3
ATOM      3  C   UNL     1      -3.911   0.243  -7.599  1.00  0.00     0.168 C 
ATOM      4  C   UNL     1      -4.616  -1.010  -8.106  1.00  0.00     0.041 C 
BRANCH   3   5
ATOM      5  N   UNL     1      -3.033   0.817  -8.607  1.00  0.00    -0.342 N 
ATOM      6  C   UNL     1      -1.661   0.716  -8.520  1.00  0.00     0.251 C 
ATOM      7  O   UNL     1      -1.081   0.180  -7.581  1.00  0.00    -0.272 OA
ATOM      8  H   UNL     1      -3.398   1.315  -9.415  1.00  0.00     0.164 HD
BRANCH   6   9
ATOM      9  C   UNL     1      -0.944   1.267  -9.763  1.00  0.00     0.219 C 
BRANCH   9  10
ATOM     10  O   UNL     1      -1.849   1.585 -10.827  1.00  0.00    -0.382 OA
ATOM     11  H   UNL     1      -1.259   1.911 -11.542  1.00  0.00     0.211 HD
ENDBRANCH   9  10
BRANCH   9  12
ATOM     12  C   UNL     1      -0.019   2.471  -9.448  1.00  0.00     0.089 C 
BRANCH  12  13
ATOM     13  N   UNL     1       1.244   2.300 -10.202  1.00  0.00    -0.325 NA
ATOM     14  H   UNL     1       1.740   1.482  -9.845  1.00  0.00     0.119 HD
ATOM     15  H   UNL     1       1.859   3.093 -10.002  1.00  0.00     0.119 HD
ENDBRANCH  12  13
BRANCH  12  16
ATOM     16  C   UNL     1      -0.615   3.873  -9.721  1.00  0.00     0.022 C 
BRANCH  16  17
ATOM     17  C   UNL     1      -0.889   4.812  -8.537  1.00  0.00     0.002 C 
BRANCH  17  18
ATOM     18  C   UNL     1      -1.363   4.119  -7.261  1.00  0.00     0.000 C 
BRANCH  18  19
ATOM     19  C   UNL     1      -1.932   5.076  -6.206  1.00  0.00    -0.000 C 
BRANCH  19  20
ATOM     20  C   UNL     1      -0.924   5.568  -5.163  1.00  0.00    -0.000 C 
BRANCH  20  21
ATOM     21  C   UNL     1      -1.588   6.082  -3.883  1.00  0.00    -0.003 C 
ATOM     22  C   UNL     1      -2.561   5.060  -3.314  1.00  0.00     0.004 C 
ENDBRANCH  20  21
ENDBRANCH  19  20
ENDBRANCH  18  19
ENDBRANCH  17  18
ENDBRANCH  16  17
ENDBRANCH  12  16
ENDBRANCH   9  12
ENDBRANCH   6   9
ENDBRANCH   3   5
ENDBRANCH   2   3
BRANCH   2  23
ATOM     23  N   UNL     1      -4.844   1.615  -5.647  1.00  0.00    -0.332 N 
ATOM     24  C   UNL     1      -3.612   1.641  -4.872  1.00  0.00     0.147 C 
BRANCH  23  25
ATOM     25  C   UNL     1      -6.038   2.160  -4.943  1.00  0.00     0.174 C 
BRANCH  25  26
ATOM     26  C   UNL     1      -5.797   3.567  -4.349  1.00  0.00     0.038 C 
BRANCH  26  27
ATOM     27  C   UNL     1      -6.999   4.253  -3.663  1.00  0.00    -0.015 C 
ATOM     28  C   UNL     1      -6.578   5.130  -2.485  1.00  0.00     0.007 C 
ATOM     29  C   UNL     1      -7.882   5.039  -4.630  1.00  0.00     0.007 C 
ENDBRANCH  26  27
ENDBRANCH  25  26
BRANCH  25  30
ATOM     30  C   UNL     1      -6.564   1.132  -3.915  1.00  0.00     0.243 C 
ATOM     31  O   UNL     1      -6.220   1.160  -2.734  1.00  0.00    -0.273 OA
ATOM     32  N   UNL     1      -7.429   0.190  -4.407  1.00  0.00    -0.342 N 
ATOM     33  H   UNL     1      -7.776   0.317  -5.361  1.00  0.00     0.164 HD
BRANCH  32  34
ATOM     34  C   UNL     1      -8.006  -0.877  -3.584  1.00  0.00     0.175 C 
BRANCH  34  35
ATOM     35  C   UNL     1      -9.420  -0.512  -3.106  1.00  0.00     0.070 C 
BRANCH  35  36
ATOM     36  C   UNL     1      -9.563  -0.574  -1.602  1.00  0.00    -0.045 A 
ATOM     37  C   UNL     1     -10.112  -1.714  -0.996  1.00  0.00     0.007 A 
ATOM     38  C   UNL     1      -9.175   0.506  -0.798  1.00  0.00     0.007 A 
ATOM     39  C   UNL     1     -10.261  -1.775   0.390  1.00  0.00     0.046 A 
ATOM     40  C   UNL     1      -9.325   0.446   0.589  1.00  0.00     0.046 A 
ATOM     41  C   UNL     1      -9.866  -0.696   1.171  1.00  0.00     0.115 A 
BRANCH  41  42
ATOM     42  O   UNL     1     -10.032  -0.794   2.521  1.00  0.00    -0.508 OA
ATOM     43  H   UNL     1      -9.180  -0.602   2.947  1.00  0.00     0.293 HD
ENDBRANCH  41  42
ENDBRANCH  35  36
ENDBRANCH  34  35
BRANCH  34  44
ATOM     44  C   UNL     1      -7.995  -2.181  -4.414  1.00  0.00     0.243 C 
ATOM     45  O   UNL     1      -6.984  -2.825  -4.681  1.00  0.00    -0.273 OA
ATOM     46  N   UNL     1      -9.224  -2.500  -4.951  1.00  0.00    -0.341 N 
ATOM     47  H   UNL     1     -10.008  -1.871  -4.797  1.00  0.00     0.164 HD
BRANCH  46  48
ATOM     48  C   UNL     1      -9.446  -3.651  -5.828  1.00  0.00     0.196 C 
BRANCH  48  49
ATOM     49  C   UNL     1     -10.597  -4.533  -5.314  1.00  0.00     0.072 C 
BRANCH  49  50
ATOM     50  C   UNL     1     -10.219  -5.322  -4.081  1.00  0.00    -0.045 A 
ATOM     51  C   UNL     1      -9.594  -6.571  -4.214  1.00  0.00     0.007 A 
ATOM     52  C   UNL     1     -10.502  -4.836  -2.798  1.00  0.00     0.007 A 
ATOM     53  C   UNL     1      -9.253  -7.314  -3.085  1.00  0.00     0.046 A 
ATOM     54  C   UNL     1     -10.161  -5.580  -1.667  1.00  0.00     0.046 A 
ATOM     55  C   UNL     1      -9.538  -6.814  -1.820  1.00  0.00     0.115 A 
BRANCH  55  56
ATOM     56  O   UNL     1      -9.190  -7.572  -0.742  1.00  0.00    -0.508 OA
ATOM     57  H   UNL     1      -9.850  -7.432  -0.044  1.00  0.00     0.293 HD
ENDBRANCH  55  56
ENDBRANCH  49  50
ENDBRANCH  48  49
BRANCH  48  58
ATOM     58  C   UNL     1      -9.775  -3.148  -7.240  1.00  0.00     0.326 C 
ATOM     59  O   UNL     1      -9.629  -3.749  -8.292  1.00  0.00    -0.250 OA
BRANCH  58  60
ATOM     60  O   UNL     1     -10.295  -1.895  -7.260  1.00  0.00    -0.480 OA
ATOM     61  H   UNL     1     -11.263  -2.052  -7.299  1.00  0.00     0.296 HD
ENDBRANCH  58  60
ENDBRANCH  48  58
ENDBRANCH  46  48
ENDBRANCH  34  44
ENDBRANCH  32  34
ENDBRANCH  25  30
ENDBRANCH  23  25
ENDBRANCH   2  23
TORSDOF 28
ENDMDL
MODEL 32
REMARK VINA RESULT:    -6.120      3.552      9.250
REMARK INTER + INTRA:         -20.734
REMARK INTER:                 -16.253
REMARK INTRA:                  -4.480
REMARK UNBOUND:                -5.490
REMARK SMILES CCCCCCC[C@H](N)[C@H](O)C(=O)N[C@H](C)C(=O)N(C)[C@H](CC(C)C)C(=O)N[C@@H](Cc1ccc(O)cc1)C(=O)N[C@@H](Cc1ccc(O)cc1)C(=O)O
REMARK SMILES IDX 18 1 17 2 15 3 16 4 14 5 12 6 13 7 10 9 11 10 8 12 9 13 7 16
REMARK SMILES IDX 6 17 5 18 4 19 3 20 2 21 1 22 19 23 20 24 21 25 22 26 23 27
REMARK SMILES IDX 24 28 25 29 26 30 27 31 28 32 29 34 30 35 31 36 32 37 37 38
REMARK SMILES IDX 33 39 36 40 34 41 35 42 38 44 39 45 40 46 41 48 42 49 43 50
REMARK SMILES IDX 44 51 49 52 45 53 48 54 46 55 47 56 50 58 51 59 52 60
REMARK H PARENT 14 8 11 11 9 14 9 15 28 33 35 43 40 47 47 57 52 61
ROOT
ATOM      1  O   UNL     1      -9.994  -0.894  -4.168  1.00  0.00    -0.272 OA
ATOM      2  C   UNL     1      -9.639  -2.049  -4.447  1.00  0.00     0.245 C 
ENDROOT
BRANCH   2   3
ATOM      3  C   UNL     1     -10.715  -3.161  -4.505  1.00  0.00     0.168 C 
ATOM      4  C   UNL     1     -11.269  -3.305  -5.919  1.00  0.00     0.041 C 
BRANCH   3   5
ATOM      5  N   UNL     1     -10.301  -4.441  -3.952  1.00  0.00    -0.342 N 
ATOM      6  C   UNL     1     -11.115  -5.166  -3.107  1.00  0.00     0.251 C 
ATOM      7  O   UNL     1     -12.215  -4.777  -2.729  1.00  0.00    -0.272 OA
ATOM      8  H   UNL     1      -9.395  -4.850  -4.166  1.00  0.00     0.164 HD
BRANCH   6   9
ATOM      9  C   UNL     1     -10.534  -6.547  -2.763  1.00  0.00     0.219 C 
BRANCH   9  10
ATOM     10  O   UNL     1      -9.915  -7.183  -3.887  1.00  0.00    -0.382 OA
ATOM     11  H   UNL     1      -9.090  -6.666  -4.019  1.00  0.00     0.211 HD
ENDBRANCH   9  10
BRANCH   9  12
ATOM     12  C   UNL     1      -9.570  -6.516  -1.548  1.00  0.00     0.089 C 
BRANCH  12  13
ATOM     13  N   UNL     1      -8.455  -5.593  -1.860  1.00  0.00    -0.325 NA
ATOM     14  H   UNL     1      -7.901  -5.981  -2.625  1.00  0.00     0.119 HD
ATOM     15  H   UNL     1      -7.819  -5.560  -1.060  1.00  0.00     0.119 HD
ENDBRANCH  12  13
BRANCH  12  16
ATOM     16  C   UNL     1     -10.205  -6.143  -0.187  1.00  0.00     0.022 C 
BRANCH  16  17
ATOM     17  C   UNL     1      -9.366  -6.277   1.091  1.00  0.00     0.002 C 
BRANCH  17  18
ATOM     18  C   UNL     1      -9.173  -4.980   1.874  1.00  0.00     0.000 C 
BRANCH  18  19
ATOM     19  C   UNL     1     -10.038  -4.878   3.137  1.00  0.00    -0.000 C 
BRANCH  19  20
ATOM     20  C   UNL     1     -11.047  -3.726   3.143  1.00  0.00    -0.000 C 
BRANCH  20  21
ATOM     21  C   UNL     1     -10.812  -2.718   2.015  1.00  0.00    -0.003 C 
ATOM     22  C   UNL     1     -10.198  -1.430   2.542  1.00  0.00     0.004 C 
ENDBRANCH  20  21
ENDBRANCH  19  20
ENDBRANCH  18  19
ENDBRANCH  17  18
ENDBRANCH  16  17
ENDBRANCH  12  16
ENDBRANCH   9  12
ENDBRANCH   6   9
ENDBRANCH   3   5
ENDBRANCH   2   3
BRANCH   2  23
ATOM     23  N   UNL     1      -8.322  -2.301  -4.817  1.00  0.00    -0.332 N 
ATOM     24  C   UNL     1      -7.354  -3.010  -3.993  1.00  0.00     0.147 C 
BRANCH  23  25
ATOM     25  C   UNL     1      -7.847  -1.955  -6.184  1.00  0.00     0.174 C 
BRANCH  25  26
ATOM     26  C   UNL     1      -7.812  -3.173  -7.136  1.00  0.00     0.038 C 
BRANCH  26  27
ATOM     27  C   UNL     1      -8.182  -2.918  -8.615  1.00  0.00    -0.015 C 
ATOM     28  C   UNL     1      -9.028  -1.659  -8.796  1.00  0.00     0.007 C 
ATOM     29  C   UNL     1      -6.973  -2.891  -9.547  1.00  0.00     0.007 C 
ENDBRANCH  26  27
ENDBRANCH  25  26
BRANCH  25  30
ATOM     30  C   UNL     1      -6.506  -1.190  -6.104  1.00  0.00     0.243 C 
ATOM     31  O   UNL     1      -5.457  -1.670  -6.532  1.00  0.00    -0.273 OA
ATOM     32  N   UNL     1      -6.563   0.049  -5.521  1.00  0.00    -0.342 N 
ATOM     33  H   UNL     1      -7.489   0.436  -5.320  1.00  0.00     0.164 HD
BRANCH  32  34
ATOM     34  C   UNL     1      -5.387   0.904  -5.335  1.00  0.00     0.175 C 
BRANCH  34  35
ATOM     35  C   UNL     1      -5.203   1.866  -6.519  1.00  0.00     0.070 C 
BRANCH  35  36
ATOM     36  C   UNL     1      -3.857   1.716  -7.190  1.00  0.00    -0.045 A 
ATOM     37  C   UNL     1      -3.631   2.296  -8.448  1.00  0.00     0.007 A 
ATOM     38  C   UNL     1      -2.828   0.983  -6.584  1.00  0.00     0.007 A 
ATOM     39  C   UNL     1      -2.397   2.152  -9.081  1.00  0.00     0.046 A 
ATOM     40  C   UNL     1      -1.592   0.837  -7.218  1.00  0.00     0.046 A 
ATOM     41  C   UNL     1      -1.387   1.424  -8.462  1.00  0.00     0.115 A 
BRANCH  41  42
ATOM     42  O   UNL     1      -0.197   1.305  -9.116  1.00  0.00    -0.508 OA
ATOM     43  H   UNL     1       0.020   2.164  -9.513  1.00  0.00     0.293 HD
ENDBRANCH  41  42
ENDBRANCH  35  36
ENDBRANCH  34  35
BRANCH  34  44
ATOM     44  C   UNL     1      -5.551   1.659  -3.997  1.00  0.00     0.243 C 
ATOM     45  O   UNL     1      -5.970   1.152  -2.960  1.00  0.00    -0.273 OA
ATOM     46  N   UNL     1      -5.304   3.012  -4.097  1.00  0.00    -0.341 N 
ATOM     47  H   UNL     1      -5.072   3.406  -5.005  1.00  0.00     0.164 HD
BRANCH  46  48
ATOM     48  C   UNL     1      -5.459   3.944  -2.978  1.00  0.00     0.196 C 
BRANCH  48  49
ATOM     49  C   UNL     1      -4.471   5.118  -3.085  1.00  0.00     0.072 C 
BRANCH  49  50
ATOM     50  C   UNL     1      -3.288   4.803  -3.972  1.00  0.00    -0.045 A 
ATOM     51  C   UNL     1      -3.302   5.189  -5.320  1.00  0.00     0.007 A 
ATOM     52  C   UNL     1      -2.178   4.109  -3.473  1.00  0.00     0.007 A 
ATOM     53  C   UNL     1      -2.221   4.892  -6.151  1.00  0.00     0.046 A 
ATOM     54  C   UNL     1      -1.096   3.810  -4.305  1.00  0.00     0.046 A 
ATOM     55  C   UNL     1      -1.127   4.206  -5.638  1.00  0.00     0.115 A 
BRANCH  55  56
ATOM     56  O   UNL     1      -0.093   3.934  -6.483  1.00  0.00    -0.508 OA
ATOM     57  H   UNL     1      -0.353   3.196  -7.058  1.00  0.00     0.293 HD
ENDBRANCH  55  56
ENDBRANCH  49  50
ENDBRANCH  48  49
BRANCH  48  58
ATOM     58  C   UNL     1      -6.897   4.481  -2.971  1.00  0.00     0.326 C 
ATOM     59  O   UNL     1      -7.923   3.843  -2.795  1.00  0.00    -0.250 OA
BRANCH  58  60
ATOM     60  O   UNL     1      -6.976   5.820  -3.175  1.00  0.00    -0.480 OA
ATOM     61  H   UNL     1      -6.080   6.139  -2.932  1.00  0.00     0.296 HD
ENDBRANCH  58  60
ENDBRANCH  48  58
ENDBRANCH  46  48
ENDBRANCH  34  44
ENDBRANCH  32  34
ENDBRANCH  25  30
ENDBRANCH  23  25
ENDBRANCH   2  23
TORSDOF 28
ENDMDL
MODEL 33
REMARK VINA RESULT:    -6.118      2.097      8.033
REMARK INTER + INTRA:         -20.728
REMARK INTER:                 -14.428
REMARK INTRA:                  -6.299
REMARK UNBOUND:                -5.490
REMARK SMILES CCCCCCC[C@H](N)[C@H](O)C(=O)N[C@H](C)C(=O)N(C)[C@H](CC(C)C)C(=O)N[C@@H](Cc1ccc(O)cc1)C(=O)N[C@@H](Cc1ccc(O)cc1)C(=O)O
REMARK SMILES IDX 18 1 17 2 15 3 16 4 14 5 12 6 13 7 10 9 11 10 8 12 9 13 7 16
REMARK SMILES IDX 6 17 5 18 4 19 3 20 2 21 1 22 19 23 20 24 21 25 22 26 23 27
REMARK SMILES IDX 24 28 25 29 26 30 27 31 28 32 29 34 30 35 31 36 32 37 37 38
REMARK SMILES IDX 33 39 36 40 34 41 35 42 38 44 39 45 40 46 41 48 42 49 43 50
REMARK SMILES IDX 44 51 49 52 45 53 48 54 46 55 47 56 50 58 51 59 52 60
REMARK H PARENT 14 8 11 11 9 14 9 15 28 33 35 43 40 47 47 57 52 61
ROOT
ATOM      1  O   UNL     1      -5.411   1.587  -3.272  1.00  0.00    -0.272 OA
ATOM      2  C   UNL     1      -5.338   2.766  -3.651  1.00  0.00     0.245 C 
ENDROOT
BRANCH   2   3
ATOM      3  C   UNL     1      -6.617   3.638  -3.607  1.00  0.00     0.168 C 
ATOM      4  C   UNL     1      -6.709   4.527  -4.843  1.00  0.00     0.041 C 
BRANCH   3   5
ATOM      5  N   UNL     1      -7.851   2.903  -3.376  1.00  0.00    -0.342 N 
ATOM      6  C   UNL     1      -8.396   2.076  -4.334  1.00  0.00     0.251 C 
ATOM      7  O   UNL     1      -7.916   1.928  -5.453  1.00  0.00    -0.272 OA
ATOM      8  H   UNL     1      -8.360   2.973  -2.497  1.00  0.00     0.164 HD
BRANCH   6   9
ATOM      9  C   UNL     1      -9.617   1.295  -3.820  1.00  0.00     0.219 C 
BRANCH   9  10
ATOM     10  O   UNL     1     -10.719   1.329  -4.735  1.00  0.00    -0.382 OA
ATOM     11  H   UNL     1     -11.310   0.613  -4.412  1.00  0.00     0.211 HD
ENDBRANCH   9  10
BRANCH   9  12
ATOM     12  C   UNL     1      -9.281  -0.165  -3.418  1.00  0.00     0.089 C 
BRANCH  12  13
ATOM     13  N   UNL     1      -7.837  -0.240  -3.097  1.00  0.00    -0.325 NA
ATOM     14  H   UNL     1      -7.482   0.702  -2.920  1.00  0.00     0.119 HD
ATOM     15  H   UNL     1      -7.331  -0.565  -3.924  1.00  0.00     0.119 HD
ENDBRANCH  12  13
BRANCH  12  16
ATOM     16  C   UNL     1     -10.115  -0.757  -2.256  1.00  0.00     0.022 C 
BRANCH  16  17
ATOM     17  C   UNL     1      -9.758  -2.148  -1.714  1.00  0.00     0.002 C 
BRANCH  17  18
ATOM     18  C   UNL     1      -9.957  -3.295  -2.701  1.00  0.00     0.000 C 
BRANCH  18  19
ATOM     19  C   UNL     1      -8.657  -3.806  -3.336  1.00  0.00    -0.000 C 
BRANCH  19  20
ATOM     20  C   UNL     1      -8.756  -5.180  -4.006  1.00  0.00    -0.000 C 
BRANCH  20  21
ATOM     21  C   UNL     1      -9.632  -6.165  -3.227  1.00  0.00    -0.003 C 
ATOM     22  C   UNL     1     -10.041  -7.346  -4.092  1.00  0.00     0.004 C 
ENDBRANCH  20  21
ENDBRANCH  19  20
ENDBRANCH  18  19
ENDBRANCH  17  18
ENDBRANCH  16  17
ENDBRANCH  12  16
ENDBRANCH   9  12
ENDBRANCH   6   9
ENDBRANCH   3   5
ENDBRANCH   2   3
BRANCH   2  23
ATOM     23  N   UNL     1      -4.105   3.313  -3.987  1.00  0.00    -0.332 N 
ATOM     24  C   UNL     1      -3.560   4.535  -3.414  1.00  0.00     0.147 C 
BRANCH  23  25
ATOM     25  C   UNL     1      -3.181   2.581  -4.895  1.00  0.00     0.174 C 
BRANCH  25  26
ATOM     26  C   UNL     1      -1.915   3.396  -5.251  1.00  0.00     0.038 C 
BRANCH  26  27
ATOM     27  C   UNL     1      -1.236   3.080  -6.603  1.00  0.00    -0.015 C 
ATOM     28  C   UNL     1      -1.267   4.269  -7.563  1.00  0.00     0.007 C 
ATOM     29  C   UNL     1       0.185   2.543  -6.458  1.00  0.00     0.007 C 
ENDBRANCH  26  27
ENDBRANCH  25  26
BRANCH  25  30
ATOM     30  C   UNL     1      -3.951   2.059  -6.130  1.00  0.00     0.243 C 
ATOM     31  O   UNL     1      -4.477   2.822  -6.939  1.00  0.00    -0.273 OA
ATOM     32  N   UNL     1      -4.013   0.695  -6.258  1.00  0.00    -0.342 N 
ATOM     33  H   UNL     1      -3.434   0.134  -5.628  1.00  0.00     0.164 HD
BRANCH  32  34
ATOM     34  C   UNL     1      -4.723   0.024  -7.349  1.00  0.00     0.175 C 
BRANCH  34  35
ATOM     35  C   UNL     1      -3.746  -0.684  -8.301  1.00  0.00     0.070 C 
BRANCH  35  36
ATOM     36  C   UNL     1      -2.915   0.285  -9.112  1.00  0.00    -0.045 A 
ATOM     37  C   UNL     1      -1.515   0.202  -9.086  1.00  0.00     0.007 A 
ATOM     38  C   UNL     1      -3.524   1.288  -9.877  1.00  0.00     0.007 A 
ATOM     39  C   UNL     1      -0.740   1.100  -9.820  1.00  0.00     0.046 A 
ATOM     40  C   UNL     1      -2.749   2.189 -10.612  1.00  0.00     0.046 A 
ATOM     41  C   UNL     1      -1.362   2.085 -10.577  1.00  0.00     0.115 A 
BRANCH  41  42
ATOM     42  O   UNL     1      -0.569   2.944 -11.278  1.00  0.00    -0.508 OA
ATOM     43  H   UNL     1      -0.656   2.738 -12.223  1.00  0.00     0.293 HD
ENDBRANCH  41  42
ENDBRANCH  35  36
ENDBRANCH  34  35
BRANCH  34  44
ATOM     44  C   UNL     1      -5.737  -0.962  -6.726  1.00  0.00     0.243 C 
ATOM     45  O   UNL     1      -6.148  -0.896  -5.571  1.00  0.00    -0.273 OA
ATOM     46  N   UNL     1      -6.052  -2.021  -7.551  1.00  0.00    -0.341 N 
ATOM     47  H   UNL     1      -5.594  -2.094  -8.457  1.00  0.00     0.164 HD
BRANCH  46  48
ATOM     48  C   UNL     1      -6.937  -3.117  -7.153  1.00  0.00     0.196 C 
BRANCH  48  49
ATOM     49  C   UNL     1      -8.170  -3.203  -8.070  1.00  0.00     0.072 C 
BRANCH  49  50
ATOM     50  C   UNL     1      -9.470  -3.197  -7.298  1.00  0.00    -0.045 A 
ATOM     51  C   UNL     1      -9.895  -2.027  -6.652  1.00  0.00     0.007 A 
ATOM     52  C   UNL     1     -10.254  -4.354  -7.199  1.00  0.00     0.007 A 
ATOM     53  C   UNL     1     -11.086  -2.014  -5.926  1.00  0.00     0.046 A 
ATOM     54  C   UNL     1     -11.446  -4.341  -6.471  1.00  0.00     0.046 A 
ATOM     55  C   UNL     1     -11.852  -3.170  -5.841  1.00  0.00     0.115 A 
BRANCH  55  56
ATOM     56  O   UNL     1     -13.009  -3.116  -5.121  1.00  0.00    -0.508 OA
ATOM     57  H   UNL     1     -12.785  -2.922  -4.197  1.00  0.00     0.293 HD
ENDBRANCH  55  56
ENDBRANCH  49  50
ENDBRANCH  48  49
BRANCH  48  58
ATOM     58  C   UNL     1      -6.157  -4.438  -7.216  1.00  0.00     0.326 C 
ATOM     59  O   UNL     1      -6.618  -5.567  -7.255  1.00  0.00    -0.250 OA
BRANCH  58  60
ATOM     60  O   UNL     1      -4.811  -4.270  -7.241  1.00  0.00    -0.480 OA
ATOM     61  H   UNL     1      -4.644  -3.671  -6.482  1.00  0.00     0.296 HD
ENDBRANCH  58  60
ENDBRANCH  48  58
ENDBRANCH  46  48
ENDBRANCH  34  44
ENDBRANCH  32  34
ENDBRANCH  25  30
ENDBRANCH  23  25
ENDBRANCH   2  23
TORSDOF 28
ENDMDL
MODEL 34
REMARK VINA RESULT:    -6.102      4.013      8.466
REMARK INTER + INTRA:         -20.689
REMARK INTER:                 -16.519
REMARK INTRA:                  -4.171
REMARK UNBOUND:                -5.490
REMARK SMILES CCCCCCC[C@H](N)[C@H](O)C(=O)N[C@H](C)C(=O)N(C)[C@H](CC(C)C)C(=O)N[C@@H](Cc1ccc(O)cc1)C(=O)N[C@@H](Cc1ccc(O)cc1)C(=O)O
REMARK SMILES IDX 18 1 17 2 15 3 16 4 14 5 12 6 13 7 10 9 11 10 8 12 9 13 7 16
REMARK SMILES IDX 6 17 5 18 4 19 3 20 2 21 1 22 19 23 20 24 21 25 22 26 23 27
REMARK SMILES IDX 24 28 25 29 26 30 27 31 28 32 29 34 30 35 31 36 32 37 37 38
REMARK SMILES IDX 33 39 36 40 34 41 35 42 38 44 39 45 40 46 41 48 42 49 43 50
REMARK SMILES IDX 44 51 49 52 45 53 48 54 46 55 47 56 50 58 51 59 52 60
REMARK H PARENT 14 8 11 11 9 14 9 15 28 33 35 43 40 47 47 57 52 61
ROOT
ATOM      1  O   UNL     1      -9.846  -1.702  -4.789  1.00  0.00    -0.272 OA
ATOM      2  C   UNL     1      -9.108  -2.011  -5.737  1.00  0.00     0.245 C 
ENDROOT
BRANCH   2   3
ATOM      3  C   UNL     1      -8.034  -0.996  -6.200  1.00  0.00     0.168 C 
ATOM      4  C   UNL     1      -8.510  -0.223  -7.425  1.00  0.00     0.041 C 
BRANCH   3   5
ATOM      5  N   UNL     1      -7.541  -0.109  -5.157  1.00  0.00    -0.342 N 
ATOM      6  C   UNL     1      -6.344   0.565  -5.279  1.00  0.00     0.251 C 
ATOM      7  O   UNL     1      -5.593   0.439  -6.240  1.00  0.00    -0.272 OA
ATOM      8  H   UNL     1      -8.062   0.048  -4.297  1.00  0.00     0.164 HD
BRANCH   6   9
ATOM      9  C   UNL     1      -6.096   1.550  -4.126  1.00  0.00     0.219 C 
BRANCH   9  10
ATOM     10  O   UNL     1      -6.240   0.941  -2.837  1.00  0.00    -0.382 OA
ATOM     11  H   UNL     1      -6.427  -0.001  -3.047  1.00  0.00     0.211 HD
ENDBRANCH   9  10
BRANCH   9  12
ATOM     12  C   UNL     1      -4.737   2.289  -4.238  1.00  0.00     0.089 C 
BRANCH  12  13
ATOM     13  N   UNL     1      -3.664   1.276  -4.363  1.00  0.00    -0.325 NA
ATOM     14  H   UNL     1      -3.441   0.906  -3.437  1.00  0.00     0.119 HD
ATOM     15  H   UNL     1      -2.808   1.738  -4.679  1.00  0.00     0.119 HD
ENDBRANCH  12  13
BRANCH  12  16
ATOM     16  C   UNL     1      -4.622   3.329  -5.377  1.00  0.00     0.022 C 
BRANCH  16  17
ATOM     17  C   UNL     1      -3.296   3.460  -6.139  1.00  0.00     0.002 C 
BRANCH  17  18
ATOM     18  C   UNL     1      -2.511   4.738  -5.852  1.00  0.00     0.000 C 
BRANCH  18  19
ATOM     19  C   UNL     1      -0.988   4.556  -5.882  1.00  0.00    -0.000 C 
BRANCH  19  20
ATOM     20  C   UNL     1      -0.364   4.531  -7.280  1.00  0.00    -0.000 C 
BRANCH  20  21
ATOM     21  C   UNL     1       0.187   3.155  -7.667  1.00  0.00    -0.003 C 
ATOM     22  C   UNL     1       1.453   3.279  -8.499  1.00  0.00     0.004 C 
ENDBRANCH  20  21
ENDBRANCH  19  20
ENDBRANCH  18  19
ENDBRANCH  17  18
ENDBRANCH  16  17
ENDBRANCH  12  16
ENDBRANCH   9  12
ENDBRANCH   6   9
ENDBRANCH   3   5
ENDBRANCH   2   3
BRANCH   2  23
ATOM     23  N   UNL     1      -9.173  -3.289  -6.281  1.00  0.00    -0.332 N 
ATOM     24  C   UNL     1      -9.959  -3.650  -7.451  1.00  0.00     0.147 C 
BRANCH  23  25
ATOM     25  C   UNL     1      -8.306  -4.376  -5.749  1.00  0.00     0.174 C 
BRANCH  25  26
ATOM     26  C   UNL     1      -7.689  -5.254  -6.864  1.00  0.00     0.038 C 
BRANCH  26  27
ATOM     27  C   UNL     1      -6.364  -4.764  -7.489  1.00  0.00    -0.015 C 
ATOM     28  C   UNL     1      -6.589  -3.778  -8.636  1.00  0.00     0.007 C 
ATOM     29  C   UNL     1      -5.388  -4.186  -6.468  1.00  0.00     0.007 C 
ENDBRANCH  26  27
ENDBRANCH  25  26
BRANCH  25  30
ATOM     30  C   UNL     1      -9.065  -5.182  -4.671  1.00  0.00     0.243 C 
ATOM     31  O   UNL     1      -9.338  -6.372  -4.821  1.00  0.00    -0.273 OA
ATOM     32  N   UNL     1      -9.416  -4.483  -3.545  1.00  0.00    -0.342 N 
ATOM     33  H   UNL     1      -9.031  -3.542  -3.433  1.00  0.00     0.164 HD
BRANCH  32  34
ATOM     34  C   UNL     1     -10.162  -5.078  -2.432  1.00  0.00     0.175 C 
BRANCH  34  35
ATOM     35  C   UNL     1      -9.589  -4.636  -1.076  1.00  0.00     0.070 C 
BRANCH  35  36
ATOM     36  C   UNL     1     -10.227  -5.356   0.090  1.00  0.00    -0.045 A 
ATOM     37  C   UNL     1     -11.325  -4.785   0.752  1.00  0.00     0.007 A 
ATOM     38  C   UNL     1      -9.723  -6.584   0.540  1.00  0.00     0.007 A 
ATOM     39  C   UNL     1     -11.911  -5.435   1.838  1.00  0.00     0.046 A 
ATOM     40  C   UNL     1     -10.309  -7.234   1.629  1.00  0.00     0.046 A 
ATOM     41  C   UNL     1     -11.400  -6.654   2.267  1.00  0.00     0.115 A 
BRANCH  41  42
ATOM     42  O   UNL     1     -12.001  -7.255   3.334  1.00  0.00    -0.508 OA
ATOM     43  H   UNL     1     -12.045  -6.611   4.060  1.00  0.00     0.293 HD
ENDBRANCH  41  42
ENDBRANCH  35  36
ENDBRANCH  34  35
BRANCH  34  44
ATOM     44  C   UNL     1     -11.648  -4.683  -2.587  1.00  0.00     0.243 C 
ATOM     45  O   UNL     1     -12.588  -5.467  -2.492  1.00  0.00    -0.273 OA
ATOM     46  N   UNL     1     -11.830  -3.373  -2.977  1.00  0.00    -0.341 N 
ATOM     47  H   UNL     1     -11.014  -2.793  -3.156  1.00  0.00     0.164 HD
BRANCH  46  48
ATOM     48  C   UNL     1     -13.144  -2.789  -3.252  1.00  0.00     0.196 C 
BRANCH  48  49
ATOM     49  C   UNL     1     -13.204  -1.314  -2.821  1.00  0.00     0.072 C 
BRANCH  49  50
ATOM     50  C   UNL     1     -12.380  -1.036  -1.584  1.00  0.00    -0.045 A 
ATOM     51  C   UNL     1     -12.832  -1.472  -0.330  1.00  0.00     0.007 A 
ATOM     52  C   UNL     1     -11.175  -0.326  -1.665  1.00  0.00     0.007 A 
ATOM     53  C   UNL     1     -12.087  -1.210   0.819  1.00  0.00     0.046 A 
ATOM     54  C   UNL     1     -10.430  -0.062  -0.514  1.00  0.00     0.046 A 
ATOM     55  C   UNL     1     -10.892  -0.508   0.720  1.00  0.00     0.115 A 
BRANCH  55  56
ATOM     56  O   UNL     1     -10.195  -0.271   1.867  1.00  0.00    -0.508 OA
ATOM     57  H   UNL     1     -10.159  -1.094   2.379  1.00  0.00     0.293 HD
ENDBRANCH  55  56
ENDBRANCH  49  50
ENDBRANCH  48  49
BRANCH  48  58
ATOM     58  C   UNL     1     -13.434  -2.898  -4.756  1.00  0.00     0.326 C 
ATOM     59  O   UNL     1     -14.327  -3.534  -5.292  1.00  0.00    -0.250 OA
BRANCH  58  60
ATOM     60  O   UNL     1     -12.580  -2.177  -5.525  1.00  0.00    -0.480 OA
ATOM     61  H   UNL     1     -11.768  -2.727  -5.538  1.00  0.00     0.296 HD
ENDBRANCH  58  60
ENDBRANCH  48  58
ENDBRANCH  46  48
ENDBRANCH  34  44
ENDBRANCH  32  34
ENDBRANCH  25  30
ENDBRANCH  23  25
ENDBRANCH   2  23
TORSDOF 28
ENDMDL
MODEL 35
REMARK VINA RESULT:    -6.098      3.766      8.066
REMARK INTER + INTRA:         -20.679
REMARK INTER:                 -16.594
REMARK INTRA:                  -4.085
REMARK UNBOUND:                -5.490
REMARK SMILES CCCCCCC[C@H](N)[C@H](O)C(=O)N[C@H](C)C(=O)N(C)[C@H](CC(C)C)C(=O)N[C@@H](Cc1ccc(O)cc1)C(=O)N[C@@H](Cc1ccc(O)cc1)C(=O)O
REMARK SMILES IDX 18 1 17 2 15 3 16 4 14 5 12 6 13 7 10 9 11 10 8 12 9 13 7 16
REMARK SMILES IDX 6 17 5 18 4 19 3 20 2 21 1 22 19 23 20 24 21 25 22 26 23 27
REMARK SMILES IDX 24 28 25 29 26 30 27 31 28 32 29 34 30 35 31 36 32 37 37 38
REMARK SMILES IDX 33 39 36 40 34 41 35 42 38 44 39 45 40 46 41 48 42 49 43 50
REMARK SMILES IDX 44 51 49 52 45 53 48 54 46 55 47 56 50 58 51 59 52 60
REMARK H PARENT 14 8 11 11 9 14 9 15 28 33 35 43 40 47 47 57 52 61
ROOT
ATOM      1  O   UNL     1      -9.058   0.246  -2.495  1.00  0.00    -0.272 OA
ATOM      2  C   UNL     1      -9.186   1.259  -3.199  1.00  0.00     0.245 C 
ENDROOT
BRANCH   2   3
ATOM      3  C   UNL     1      -9.147   2.647  -2.513  1.00  0.00     0.168 C 
ATOM      4  C   UNL     1     -10.167   2.721  -1.381  1.00  0.00     0.041 C 
BRANCH   3   5
ATOM      5  N   UNL     1      -7.827   3.079  -2.081  1.00  0.00    -0.342 N 
ATOM      6  C   UNL     1      -7.352   4.345  -2.348  1.00  0.00     0.251 C 
ATOM      7  O   UNL     1      -7.976   5.180  -2.994  1.00  0.00    -0.272 OA
ATOM      8  H   UNL     1      -7.203   2.462  -1.566  1.00  0.00     0.164 HD
BRANCH   6   9
ATOM      9  C   UNL     1      -5.998   4.626  -1.676  1.00  0.00     0.219 C 
BRANCH   9  10
ATOM     10  O   UNL     1      -5.659   3.648  -0.685  1.00  0.00    -0.382 OA
ATOM     11  H   UNL     1      -6.099   2.831  -1.008  1.00  0.00     0.211 HD
ENDBRANCH   9  10
BRANCH   9  12
ATOM     12  C   UNL     1      -4.840   4.806  -2.691  1.00  0.00     0.089 C 
BRANCH  12  13
ATOM     13  N   UNL     1      -3.565   4.872  -1.940  1.00  0.00    -0.325 NA
ATOM     14  H   UNL     1      -3.257   3.923  -1.718  1.00  0.00     0.119 HD
ATOM     15  H   UNL     1      -3.738   5.315  -1.034  1.00  0.00     0.119 HD
ENDBRANCH  12  13
BRANCH  12  16
ATOM     16  C   UNL     1      -4.744   3.738  -3.807  1.00  0.00     0.022 C 
BRANCH  16  17
ATOM     17  C   UNL     1      -3.459   3.641  -4.641  1.00  0.00     0.002 C 
BRANCH  17  18
ATOM     18  C   UNL     1      -3.170   4.854  -5.522  1.00  0.00     0.000 C 
BRANCH  18  19
ATOM     19  C   UNL     1      -1.996   5.714  -5.035  1.00  0.00    -0.000 C 
BRANCH  19  20
ATOM     20  C   UNL     1      -0.606   5.174  -5.382  1.00  0.00    -0.000 C 
BRANCH  20  21
ATOM     21  C   UNL     1      -0.594   4.325  -6.656  1.00  0.00    -0.003 C 
ATOM     22  C   UNL     1      -0.215   5.156  -7.872  1.00  0.00     0.004 C 
ENDBRANCH  20  21
ENDBRANCH  19  20
ENDBRANCH  18  19
ENDBRANCH  17  18
ENDBRANCH  16  17
ENDBRANCH  12  16
ENDBRANCH   9  12
ENDBRANCH   6   9
ENDBRANCH   3   5
ENDBRANCH   2   3
BRANCH   2  23
ATOM     23  N   UNL     1      -9.238   1.142  -4.584  1.00  0.00    -0.332 N 
ATOM     24  C   UNL     1      -9.778   2.155  -5.478  1.00  0.00     0.147 C 
BRANCH  23  25
ATOM     25  C   UNL     1      -8.604  -0.021  -5.264  1.00  0.00     0.174 C 
BRANCH  25  26
ATOM     26  C   UNL     1      -7.768   0.388  -6.500  1.00  0.00     0.038 C 
BRANCH  26  27
ATOM     27  C   UNL     1      -6.293   0.777  -6.250  1.00  0.00    -0.015 C 
ATOM     28  C   UNL     1      -5.335  -0.393  -6.470  1.00  0.00     0.007 C 
ATOM     29  C   UNL     1      -5.844   1.997  -7.050  1.00  0.00     0.007 C 
ENDBRANCH  26  27
ENDBRANCH  25  26
BRANCH  25  30
ATOM     30  C   UNL     1      -9.663  -1.106  -5.561  1.00  0.00     0.243 C 
ATOM     31  O   UNL     1     -10.368  -1.068  -6.568  1.00  0.00    -0.273 OA
ATOM     32  N   UNL     1      -9.766  -2.106  -4.628  1.00  0.00    -0.342 N 
ATOM     33  H   UNL     1      -9.053  -2.146  -3.896  1.00  0.00     0.164 HD
BRANCH  32  34
ATOM     34  C   UNL     1     -10.733  -3.202  -4.731  1.00  0.00     0.175 C 
BRANCH  34  35
ATOM     35  C   UNL     1     -10.063  -4.493  -5.228  1.00  0.00     0.070 C 
BRANCH  35  36
ATOM     36  C   UNL     1      -9.720  -5.444  -4.103  1.00  0.00    -0.045 A 
ATOM     37  C   UNL     1      -8.773  -5.074  -3.136  1.00  0.00     0.007 A 
ATOM     38  C   UNL     1     -10.320  -6.707  -4.022  1.00  0.00     0.007 A 
ATOM     39  C   UNL     1      -8.440  -5.951  -2.103  1.00  0.00     0.046 A 
ATOM     40  C   UNL     1      -9.986  -7.586  -2.989  1.00  0.00     0.046 A 
ATOM     41  C   UNL     1      -9.049  -7.198  -2.037  1.00  0.00     0.115 A 
BRANCH  41  42
ATOM     42  O   UNL     1      -8.693  -8.025  -1.013  1.00  0.00    -0.508 OA
ATOM     43  H   UNL     1      -9.448  -8.603  -0.812  1.00  0.00     0.293 HD
ENDBRANCH  41  42
ENDBRANCH  35  36
ENDBRANCH  34  35
BRANCH  34  44
ATOM     44  C   UNL     1     -11.393  -3.390  -3.347  1.00  0.00     0.243 C 
ATOM     45  O   UNL     1     -12.360  -4.116  -3.132  1.00  0.00    -0.273 OA
ATOM     46  N   UNL     1     -10.876  -2.559  -2.375  1.00  0.00    -0.341 N 
ATOM     47  H   UNL     1     -10.153  -1.891  -2.630  1.00  0.00     0.164 HD
BRANCH  46  48
ATOM     48  C   UNL     1     -11.387  -2.509  -1.003  1.00  0.00     0.196 C 
BRANCH  48  49
ATOM     49  C   UNL     1     -10.324  -2.970   0.008  1.00  0.00     0.072 C 
BRANCH  49  50
ATOM     50  C   UNL     1     -10.757  -4.186   0.794  1.00  0.00    -0.045 A 
ATOM     51  C   UNL     1     -10.563  -4.226   2.183  1.00  0.00     0.007 A 
ATOM     52  C   UNL     1     -11.335  -5.290   0.155  1.00  0.00     0.007 A 
ATOM     53  C   UNL     1     -10.947  -5.348   2.917  1.00  0.00     0.046 A 
ATOM     54  C   UNL     1     -11.719  -6.414   0.890  1.00  0.00     0.046 A 
ATOM     55  C   UNL     1     -11.522  -6.432   2.267  1.00  0.00     0.115 A 
BRANCH  55  56
ATOM     56  O   UNL     1     -11.882  -7.510   3.020  1.00  0.00    -0.508 OA
ATOM     57  H   UNL     1     -12.119  -8.236   2.422  1.00  0.00     0.293 HD
ENDBRANCH  55  56
ENDBRANCH  49  50
ENDBRANCH  48  49
BRANCH  48  58
ATOM     58  C   UNL     1     -11.813  -1.069  -0.682  1.00  0.00     0.326 C 
ATOM     59  O   UNL     1     -12.901  -0.557  -0.888  1.00  0.00    -0.250 OA
BRANCH  58  60
ATOM     60  O   UNL     1     -10.836  -0.335  -0.092  1.00  0.00    -0.480 OA
ATOM     61  H   UNL     1     -10.262  -0.076  -0.845  1.00  0.00     0.296 HD
ENDBRANCH  58  60
ENDBRANCH  48  58
ENDBRANCH  46  48
ENDBRANCH  34  44
ENDBRANCH  32  34
ENDBRANCH  25  30
ENDBRANCH  23  25
ENDBRANCH   2  23
TORSDOF 28
ENDMDL
MODEL 36
REMARK VINA RESULT:    -6.096      2.606      7.915
REMARK INTER + INTRA:         -20.675
REMARK INTER:                 -16.054
REMARK INTRA:                  -4.621
REMARK UNBOUND:                -5.490
REMARK SMILES CCCCCCC[C@H](N)[C@H](O)C(=O)N[C@H](C)C(=O)N(C)[C@H](CC(C)C)C(=O)N[C@@H](Cc1ccc(O)cc1)C(=O)N[C@@H](Cc1ccc(O)cc1)C(=O)O
REMARK SMILES IDX 18 1 17 2 15 3 16 4 14 5 12 6 13 7 10 9 11 10 8 12 9 13 7 16
REMARK SMILES IDX 6 17 5 18 4 19 3 20 2 21 1 22 19 23 20 24 21 25 22 26 23 27
REMARK SMILES IDX 24 28 25 29 26 30 27 31 28 32 29 34 30 35 31 36 32 37 37 38
REMARK SMILES IDX 33 39 36 40 34 41 35 42 38 44 39 45 40 46 41 48 42 49 43 50
REMARK SMILES IDX 44 51 49 52 45 53 48 54 46 55 47 56 50 58 51 59 52 60
REMARK H PARENT 14 8 11 11 9 14 9 15 28 33 35 43 40 47 47 57 52 61
ROOT
ATOM      1  O   UNL     1      -6.588  -1.205  -5.169  1.00  0.00    -0.272 OA
ATOM      2  C   UNL     1      -6.567  -1.538  -6.363  1.00  0.00     0.245 C 
ENDROOT
BRANCH   2   3
ATOM      3  C   UNL     1      -6.713  -3.040  -6.716  1.00  0.00     0.168 C 
ATOM      4  C   UNL     1      -5.404  -3.783  -6.473  1.00  0.00     0.041 C 
BRANCH   3   5
ATOM      5  N   UNL     1      -7.841  -3.709  -6.087  1.00  0.00    -0.342 N 
ATOM      6  C   UNL     1      -8.917  -4.165  -6.818  1.00  0.00     0.251 C 
ATOM      7  O   UNL     1      -9.026  -4.009  -8.030  1.00  0.00    -0.272 OA
ATOM      8  H   UNL     1      -7.880  -3.865  -5.082  1.00  0.00     0.164 HD
BRANCH   6   9
ATOM      9  C   UNL     1      -9.918  -4.963  -5.968  1.00  0.00     0.219 C 
BRANCH   9  10
ATOM     10  O   UNL     1      -9.282  -5.947  -5.143  1.00  0.00    -0.382 OA
ATOM     11  H   UNL     1      -9.970  -6.170  -4.477  1.00  0.00     0.211 HD
ENDBRANCH   9  10
BRANCH   9  12
ATOM     12  C   UNL     1     -10.857  -4.060  -5.125  1.00  0.00     0.089 C 
BRANCH  12  13
ATOM     13  N   UNL     1     -12.147  -3.932  -5.839  1.00  0.00    -0.325 NA
ATOM     14  H   UNL     1     -12.137  -4.535  -6.663  1.00  0.00     0.119 HD
ATOM     15  H   UNL     1     -12.229  -2.980  -6.206  1.00  0.00     0.119 HD
ENDBRANCH  12  13
BRANCH  12  16
ATOM     16  C   UNL     1     -11.100  -4.512  -3.665  1.00  0.00     0.022 C 
BRANCH  16  17
ATOM     17  C   UNL     1     -11.344  -3.449  -2.585  1.00  0.00     0.002 C 
BRANCH  17  18
ATOM     18  C   UNL     1     -12.069  -2.194  -3.068  1.00  0.00     0.000 C 
BRANCH  18  19
ATOM     19  C   UNL     1     -11.217  -0.919  -3.010  1.00  0.00    -0.000 C 
BRANCH  19  20
ATOM     20  C   UNL     1     -10.531  -0.536  -4.324  1.00  0.00    -0.000 C 
BRANCH  20  21
ATOM     21  C   UNL     1     -10.511   0.975  -4.572  1.00  0.00    -0.003 C 
ATOM     22  C   UNL     1      -9.679   1.325  -5.796  1.00  0.00     0.004 C 
ENDBRANCH  20  21
ENDBRANCH  19  20
ENDBRANCH  18  19
ENDBRANCH  17  18
ENDBRANCH  16  17
ENDBRANCH  12  16
ENDBRANCH   9  12
ENDBRANCH   6   9
ENDBRANCH   3   5
ENDBRANCH   2   3
BRANCH   2  23
ATOM     23  N   UNL     1      -6.538  -0.565  -7.356  1.00  0.00    -0.332 N 
ATOM     24  C   UNL     1      -7.531  -0.432  -8.411  1.00  0.00     0.147 C 
BRANCH  23  25
ATOM     25  C   UNL     1      -5.515   0.516  -7.319  1.00  0.00     0.174 C 
BRANCH  25  26
ATOM     26  C   UNL     1      -4.121   0.010  -6.880  1.00  0.00     0.038 C 
BRANCH  26  27
ATOM     27  C   UNL     1      -2.906   0.883  -7.267  1.00  0.00    -0.015 C 
ATOM     28  C   UNL     1      -1.623   0.065  -7.419  1.00  0.00     0.007 C 
ATOM     29  C   UNL     1      -3.145   1.742  -8.506  1.00  0.00     0.007 C 
ENDBRANCH  26  27
ENDBRANCH  25  26
BRANCH  25  30
ATOM     30  C   UNL     1      -6.033   1.710  -6.486  1.00  0.00     0.243 C 
ATOM     31  O   UNL     1      -6.622   2.658  -7.004  1.00  0.00    -0.273 OA
ATOM     32  N   UNL     1      -5.788   1.645  -5.138  1.00  0.00    -0.342 N 
ATOM     33  H   UNL     1      -5.422   0.765  -4.766  1.00  0.00     0.164 HD
BRANCH  32  34
ATOM     34  C   UNL     1      -6.182   2.699  -4.199  1.00  0.00     0.175 C 
BRANCH  34  35
ATOM     35  C   UNL     1      -6.386   2.138  -2.783  1.00  0.00     0.070 C 
BRANCH  35  36
ATOM     36  C   UNL     1      -7.793   2.345  -2.270  1.00  0.00    -0.045 A 
ATOM     37  C   UNL     1      -8.415   1.346  -1.505  1.00  0.00     0.007 A 
ATOM     38  C   UNL     1      -8.501   3.517  -2.565  1.00  0.00     0.007 A 
ATOM     39  C   UNL     1      -9.718   1.522  -1.038  1.00  0.00     0.046 A 
ATOM     40  C   UNL     1      -9.806   3.694  -2.099  1.00  0.00     0.046 A 
ATOM     41  C   UNL     1     -10.402   2.694  -1.338  1.00  0.00     0.115 A 
BRANCH  41  42
ATOM     42  O   UNL     1     -11.675   2.825  -0.866  1.00  0.00    -0.508 OA
ATOM     43  H   UNL     1     -12.278   2.393  -1.492  1.00  0.00     0.293 HD
ENDBRANCH  41  42
ENDBRANCH  35  36
ENDBRANCH  34  35
BRANCH  34  44
ATOM     44  C   UNL     1      -5.098   3.800  -4.233  1.00  0.00     0.243 C 
ATOM     45  O   UNL     1      -5.283   4.943  -4.642  1.00  0.00    -0.273 OA
ATOM     46  N   UNL     1      -3.845   3.348  -3.879  1.00  0.00    -0.341 N 
ATOM     47  H   UNL     1      -3.719   2.363  -3.660  1.00  0.00     0.164 HD
BRANCH  46  48
ATOM     48  C   UNL     1      -2.648   4.191  -3.901  1.00  0.00     0.196 C 
BRANCH  48  49
ATOM     49  C   UNL     1      -2.503   4.923  -5.246  1.00  0.00     0.072 C 
BRANCH  49  50
ATOM     50  C   UNL     1      -1.431   4.318  -6.125  1.00  0.00    -0.045 A 
ATOM     51  C   UNL     1      -0.604   3.304  -5.620  1.00  0.00     0.007 A 
ATOM     52  C   UNL     1      -1.234   4.770  -7.436  1.00  0.00     0.007 A 
ATOM     53  C   UNL     1       0.397   2.748  -6.417  1.00  0.00     0.046 A 
ATOM     54  C   UNL     1      -0.231   4.214  -8.233  1.00  0.00     0.046 A 
ATOM     55  C   UNL     1       0.576   3.206  -7.716  1.00  0.00     0.115 A 
BRANCH  55  56
ATOM     56  O   UNL     1       1.567   2.637  -8.461  1.00  0.00    -0.508 OA
ATOM     57  H   UNL     1       2.400   2.711  -7.970  1.00  0.00     0.293 HD
ENDBRANCH  55  56
ENDBRANCH  49  50
ENDBRANCH  48  49
BRANCH  48  58
ATOM     58  C   UNL     1      -2.740   5.219  -2.764  1.00  0.00     0.326 C 
ATOM     59  O   UNL     1      -2.356   6.377  -2.782  1.00  0.00    -0.250 OA
BRANCH  58  60
ATOM     60  O   UNL     1      -3.335   4.735  -1.645  1.00  0.00    -0.480 OA
ATOM     61  H   UNL     1      -3.329   5.505  -1.035  1.00  0.00     0.296 HD
ENDBRANCH  58  60
ENDBRANCH  48  58
ENDBRANCH  46  48
ENDBRANCH  34  44
ENDBRANCH  32  34
ENDBRANCH  25  30
ENDBRANCH  23  25
ENDBRANCH   2  23
TORSDOF 28
ENDMDL
MODEL 37
REMARK VINA RESULT:    -6.070      3.453      8.781
REMARK INTER + INTRA:         -20.609
REMARK INTER:                 -17.403
REMARK INTRA:                  -3.206
REMARK UNBOUND:                -5.490
REMARK SMILES CCCCCCC[C@H](N)[C@H](O)C(=O)N[C@H](C)C(=O)N(C)[C@H](CC(C)C)C(=O)N[C@@H](Cc1ccc(O)cc1)C(=O)N[C@@H](Cc1ccc(O)cc1)C(=O)O
REMARK SMILES IDX 18 1 17 2 15 3 16 4 14 5 12 6 13 7 10 9 11 10 8 12 9 13 7 16
REMARK SMILES IDX 6 17 5 18 4 19 3 20 2 21 1 22 19 23 20 24 21 25 22 26 23 27
REMARK SMILES IDX 24 28 25 29 26 30 27 31 28 32 29 34 30 35 31 36 32 37 37 38
REMARK SMILES IDX 33 39 36 40 34 41 35 42 38 44 39 45 40 46 41 48 42 49 43 50
REMARK SMILES IDX 44 51 49 52 45 53 48 54 46 55 47 56 50 58 51 59 52 60
REMARK H PARENT 14 8 11 11 9 14 9 15 28 33 35 43 40 47 47 57 52 61
ROOT
ATOM      1  O   UNL     1      -8.022  -1.095  -3.822  1.00  0.00    -0.272 OA
ATOM      2  C   UNL     1      -8.253  -1.898  -4.739  1.00  0.00     0.245 C 
ENDROOT
BRANCH   2   3
ATOM      3  C   UNL     1      -8.590  -3.364  -4.371  1.00  0.00     0.168 C 
ATOM      4  C   UNL     1      -7.338  -4.114  -3.931  1.00  0.00     0.041 C 
BRANCH   3   5
ATOM      5  N   UNL     1      -9.679  -3.521  -3.419  1.00  0.00    -0.342 N 
ATOM      6  C   UNL     1     -10.561  -4.578  -3.489  1.00  0.00     0.251 C 
ATOM      7  O   UNL     1     -10.524  -5.432  -4.368  1.00  0.00    -0.272 OA
ATOM      8  H   UNL     1      -9.831  -2.855  -2.665  1.00  0.00     0.164 HD
BRANCH   6   9
ATOM      9  C   UNL     1     -11.536  -4.618  -2.302  1.00  0.00     0.219 C 
BRANCH   9  10
ATOM     10  O   UNL     1     -12.388  -5.770  -2.325  1.00  0.00    -0.382 OA
ATOM     11  H   UNL     1     -11.967  -6.355  -2.992  1.00  0.00     0.211 HD
ENDBRANCH   9  10
BRANCH   9  12
ATOM     12  C   UNL     1     -10.829  -4.483  -0.928  1.00  0.00     0.089 C 
BRANCH  12  13
ATOM     13  N   UNL     1     -11.815  -4.780   0.136  1.00  0.00    -0.325 NA
ATOM     14  H   UNL     1     -11.508  -5.602   0.659  1.00  0.00     0.119 HD
ATOM     15  H   UNL     1     -12.699  -5.055  -0.299  1.00  0.00     0.119 HD
ENDBRANCH  12  13
BRANCH  12  16
ATOM     16  C   UNL     1      -9.559  -5.346  -0.731  1.00  0.00     0.022 C 
BRANCH  16  17
ATOM     17  C   UNL     1      -9.628  -6.852  -1.019  1.00  0.00     0.002 C 
BRANCH  17  18
ATOM     18  C   UNL     1      -8.312  -7.482  -1.471  1.00  0.00     0.000 C 
BRANCH  18  19
ATOM     19  C   UNL     1      -7.100  -7.073  -0.623  1.00  0.00    -0.000 C 
BRANCH  19  20
ATOM     20  C   UNL     1      -7.188  -7.448   0.859  1.00  0.00    -0.000 C 
BRANCH  20  21
ATOM     21  C   UNL     1      -6.919  -6.266   1.794  1.00  0.00    -0.003 C 
ATOM     22  C   UNL     1      -7.319  -6.588   3.225  1.00  0.00     0.004 C 
ENDBRANCH  20  21
ENDBRANCH  19  20
ENDBRANCH  18  19
ENDBRANCH  17  18
ENDBRANCH  16  17
ENDBRANCH  12  16
ENDBRANCH   9  12
ENDBRANCH   6   9
ENDBRANCH   3   5
ENDBRANCH   2   3
BRANCH   2  23
ATOM     23  N   UNL     1      -8.326  -1.450  -6.054  1.00  0.00    -0.332 N 
ATOM     24  C   UNL     1      -9.540  -1.438  -6.856  1.00  0.00     0.147 C 
BRANCH  23  25
ATOM     25  C   UNL     1      -7.143  -0.816  -6.698  1.00  0.00     0.174 C 
BRANCH  25  26
ATOM     26  C   UNL     1      -5.827  -1.585  -6.431  1.00  0.00     0.038 C 
BRANCH  26  27
ATOM     27  C   UNL     1      -5.412  -2.645  -7.475  1.00  0.00    -0.015 C 
ATOM     28  C   UNL     1      -5.092  -3.998  -6.840  1.00  0.00     0.007 C 
ATOM     29  C   UNL     1      -6.422  -2.810  -8.608  1.00  0.00     0.007 C 
ENDBRANCH  26  27
ENDBRANCH  25  26
BRANCH  25  30
ATOM     30  C   UNL     1      -7.073   0.682  -6.325  1.00  0.00     0.243 C 
ATOM     31  O   UNL     1      -7.692   1.539  -6.954  1.00  0.00    -0.273 OA
ATOM     32  N   UNL     1      -6.274   0.991  -5.254  1.00  0.00    -0.342 N 
ATOM     33  H   UNL     1      -5.907   0.214  -4.698  1.00  0.00     0.164 HD
BRANCH  32  34
ATOM     34  C   UNL     1      -6.067   2.360  -4.776  1.00  0.00     0.175 C 
BRANCH  34  35
ATOM     35  C   UNL     1      -6.795   2.604  -3.445  1.00  0.00     0.070 C 
BRANCH  35  36
ATOM     36  C   UNL     1      -7.881   3.650  -3.556  1.00  0.00    -0.045 A 
ATOM     37  C   UNL     1      -8.982   3.613  -2.687  1.00  0.00     0.007 A 
ATOM     38  C   UNL     1      -7.818   4.651  -4.534  1.00  0.00     0.007 A 
ATOM     39  C   UNL     1      -9.996   4.566  -2.790  1.00  0.00     0.046 A 
ATOM     40  C   UNL     1      -8.834   5.605  -4.638  1.00  0.00     0.046 A 
ATOM     41  C   UNL     1      -9.914   5.554  -3.764  1.00  0.00     0.115 A 
BRANCH  41  42
ATOM     42  O   UNL     1     -10.927   6.464  -3.833  1.00  0.00    -0.508 OA
ATOM     43  H   UNL     1     -11.763   6.004  -3.648  1.00  0.00     0.293 HD
ENDBRANCH  41  42
ENDBRANCH  35  36
ENDBRANCH  34  35
BRANCH  34  44
ATOM     44  C   UNL     1      -4.545   2.600  -4.653  1.00  0.00     0.243 C 
ATOM     45  O   UNL     1      -3.701   1.709  -4.646  1.00  0.00    -0.273 OA
ATOM     46  N   UNL     1      -4.214   3.918  -4.419  1.00  0.00    -0.341 N 
ATOM     47  H   UNL     1      -4.959   4.603  -4.316  1.00  0.00     0.164 HD
BRANCH  46  48
ATOM     48  C   UNL     1      -2.841   4.378  -4.200  1.00  0.00     0.196 C 
BRANCH  48  49
ATOM     49  C   UNL     1      -2.340   5.226  -5.381  1.00  0.00     0.072 C 
BRANCH  49  50
ATOM     50  C   UNL     1      -1.411   4.460  -6.296  1.00  0.00    -0.045 A 
ATOM     51  C   UNL     1      -0.680   3.372  -5.797  1.00  0.00     0.007 A 
ATOM     52  C   UNL     1      -1.250   4.833  -7.636  1.00  0.00     0.007 A 
ATOM     53  C   UNL     1       0.190   2.666  -6.628  1.00  0.00     0.046 A 
ATOM     54  C   UNL     1      -0.378   4.127  -8.468  1.00  0.00     0.046 A 
ATOM     55  C   UNL     1       0.334   3.047  -7.956  1.00  0.00     0.115 A 
BRANCH  55  56
ATOM     56  O   UNL     1       1.196   2.332  -8.734  1.00  0.00    -0.508 OA
ATOM     57  H   UNL     1       1.851   2.944  -9.106  1.00  0.00     0.293 HD
ENDBRANCH  55  56
ENDBRANCH  49  50
ENDBRANCH  48  49
BRANCH  48  58
ATOM     58  C   UNL     1      -2.792   5.209  -2.911  1.00  0.00     0.326 C 
ATOM     59  O   UNL     1      -2.287   6.310  -2.761  1.00  0.00    -0.250 OA
BRANCH  58  60
ATOM     60  O   UNL     1      -3.404   4.612  -1.858  1.00  0.00    -0.480 OA
ATOM     61  H   UNL     1      -3.015   5.070  -1.081  1.00  0.00     0.296 HD
ENDBRANCH  58  60
ENDBRANCH  48  58
ENDBRANCH  46  48
ENDBRANCH  34  44
ENDBRANCH  32  34
ENDBRANCH  25  30
ENDBRANCH  23  25
ENDBRANCH   2  23
TORSDOF 28
ENDMDL
MODEL 38
REMARK VINA RESULT:    -6.059      3.476      8.052
REMARK INTER + INTRA:         -20.583
REMARK INTER:                 -16.794
REMARK INTRA:                  -3.789
REMARK UNBOUND:                -5.490
REMARK SMILES CCCCCCC[C@H](N)[C@H](O)C(=O)N[C@H](C)C(=O)N(C)[C@H](CC(C)C)C(=O)N[C@@H](Cc1ccc(O)cc1)C(=O)N[C@@H](Cc1ccc(O)cc1)C(=O)O
REMARK SMILES IDX 18 1 17 2 15 3 16 4 14 5 12 6 13 7 10 9 11 10 8 12 9 13 7 16
REMARK SMILES IDX 6 17 5 18 4 19 3 20 2 21 1 22 19 23 20 24 21 25 22 26 23 27
REMARK SMILES IDX 24 28 25 29 26 30 27 31 28 32 29 34 30 35 31 36 32 37 37 38
REMARK SMILES IDX 33 39 36 40 34 41 35 42 38 44 39 45 40 46 41 48 42 49 43 50
REMARK SMILES IDX 44 51 49 52 45 53 48 54 46 55 47 56 50 58 51 59 52 60
REMARK H PARENT 14 8 11 11 9 14 9 15 28 33 35 43 40 47 47 57 52 61
ROOT
ATOM      1  O   UNL     1      -9.548  -2.011  -8.209  1.00  0.00    -0.272 OA
ATOM      2  C   UNL     1      -9.678  -1.990  -6.976  1.00  0.00     0.245 C 
ENDROOT
BRANCH   2   3
ATOM      3  C   UNL     1     -10.365  -3.193  -6.283  1.00  0.00     0.168 C 
ATOM      4  C   UNL     1     -10.418  -4.398  -7.217  1.00  0.00     0.041 C 
BRANCH   3   5
ATOM      5  N   UNL     1      -9.820  -3.541  -4.980  1.00  0.00    -0.342 N 
ATOM      6  C   UNL     1     -10.617  -4.017  -3.961  1.00  0.00     0.251 C 
ATOM      7  O   UNL     1     -11.833  -4.144  -4.057  1.00  0.00    -0.272 OA
ATOM      8  H   UNL     1      -8.829  -3.445  -4.771  1.00  0.00     0.164 HD
BRANCH   6   9
ATOM      9  C   UNL     1      -9.808  -4.452  -2.728  1.00  0.00     0.219 C 
BRANCH   9  10
ATOM     10  O   UNL     1      -8.421  -4.108  -2.828  1.00  0.00    -0.382 OA
ATOM     11  H   UNL     1      -7.964  -4.869  -2.406  1.00  0.00     0.211 HD
ENDBRANCH   9  10
BRANCH   9  12
ATOM     12  C   UNL     1     -10.409  -3.937  -1.394  1.00  0.00     0.089 C 
BRANCH  12  13
ATOM     13  N   UNL     1      -9.605  -4.485  -0.277  1.00  0.00    -0.325 NA
ATOM     14  H   UNL     1      -9.040  -3.736   0.129  1.00  0.00     0.119 HD
ATOM     15  H   UNL     1      -8.929  -5.154  -0.653  1.00  0.00     0.119 HD
ENDBRANCH  12  13
BRANCH  12  16
ATOM     16  C   UNL     1     -10.534  -2.401  -1.255  1.00  0.00     0.022 C 
BRANCH  16  17
ATOM     17  C   UNL     1     -11.922  -1.781  -1.040  1.00  0.00     0.002 C 
BRANCH  17  18
ATOM     18  C   UNL     1     -12.063  -0.939   0.226  1.00  0.00     0.000 C 
BRANCH  18  19
ATOM     19  C   UNL     1     -12.049  -1.756   1.525  1.00  0.00    -0.000 C 
BRANCH  19  20
ATOM     20  C   UNL     1     -10.972  -1.352   2.536  1.00  0.00    -0.000 C 
BRANCH  20  21
ATOM     21  C   UNL     1      -9.862  -0.497   1.920  1.00  0.00    -0.003 C 
ATOM     22  C   UNL     1     -10.041   0.974   2.260  1.00  0.00     0.004 C 
ENDBRANCH  20  21
ENDBRANCH  19  20
ENDBRANCH  18  19
ENDBRANCH  17  18
ENDBRANCH  16  17
ENDBRANCH  12  16
ENDBRANCH   9  12
ENDBRANCH   6   9
ENDBRANCH   3   5
ENDBRANCH   2   3
BRANCH   2  23
ATOM     23  N   UNL     1      -9.106  -0.962  -6.234  1.00  0.00    -0.332 N 
ATOM     24  C   UNL     1      -9.806  -0.187  -5.221  1.00  0.00     0.147 C 
BRANCH  23  25
ATOM     25  C   UNL     1      -7.651  -0.672  -6.351  1.00  0.00     0.174 C 
BRANCH  25  26
ATOM     26  C   UNL     1      -6.764  -1.775  -5.728  1.00  0.00     0.038 C 
BRANCH  26  27
ATOM     27  C   UNL     1      -6.114  -2.784  -6.702  1.00  0.00    -0.015 C 
ATOM     28  C   UNL     1      -4.850  -2.231  -7.358  1.00  0.00     0.007 C 
ATOM     29  C   UNL     1      -5.840  -4.147  -6.071  1.00  0.00     0.007 C 
ENDBRANCH  26  27
ENDBRANCH  25  26
BRANCH  25  30
ATOM     30  C   UNL     1      -7.347   0.746  -5.815  1.00  0.00     0.243 C 
ATOM     31  O   UNL     1      -7.688   1.759  -6.424  1.00  0.00    -0.273 OA
ATOM     32  N   UNL     1      -6.669   0.797  -4.624  1.00  0.00    -0.342 N 
ATOM     33  H   UNL     1      -6.546  -0.079  -4.111  1.00  0.00     0.164 HD
BRANCH  32  34
ATOM     34  C   UNL     1      -6.272   2.053  -3.980  1.00  0.00     0.175 C 
BRANCH  34  35
ATOM     35  C   UNL     1      -6.592   2.036  -2.478  1.00  0.00     0.070 C 
BRANCH  35  36
ATOM     36  C   UNL     1      -8.035   2.380  -2.183  1.00  0.00    -0.045 A 
ATOM     37  C   UNL     1      -8.500   3.688  -2.391  1.00  0.00     0.007 A 
ATOM     38  C   UNL     1      -8.916   1.415  -1.680  1.00  0.00     0.007 A 
ATOM     39  C   UNL     1      -9.826   4.019  -2.108  1.00  0.00     0.046 A 
ATOM     40  C   UNL     1     -10.243   1.746  -1.396  1.00  0.00     0.046 A 
ATOM     41  C   UNL     1     -10.687   3.046  -1.614  1.00  0.00     0.115 A 
BRANCH  41  42
ATOM     42  O   UNL     1     -11.973   3.411  -1.349  1.00  0.00    -0.508 OA
ATOM     43  H   UNL     1     -12.329   3.863  -2.132  1.00  0.00     0.293 HD
ENDBRANCH  41  42
ENDBRANCH  35  36
ENDBRANCH  34  35
BRANCH  34  44
ATOM     44  C   UNL     1      -4.766   2.273  -4.247  1.00  0.00     0.243 C 
ATOM     45  O   UNL     1      -3.948   1.369  -4.390  1.00  0.00    -0.273 OA
ATOM     46  N   UNL     1      -4.385   3.597  -4.183  1.00  0.00    -0.341 N 
ATOM     47  H   UNL     1      -5.081   4.300  -3.946  1.00  0.00     0.164 HD
BRANCH  46  48
ATOM     48  C   UNL     1      -2.999   4.044  -4.336  1.00  0.00     0.196 C 
BRANCH  48  49
ATOM     49  C   UNL     1      -2.772   4.707  -5.705  1.00  0.00     0.072 C 
BRANCH  49  50
ATOM     50  C   UNL     1      -1.568   4.149  -6.429  1.00  0.00    -0.045 A 
ATOM     51  C   UNL     1      -1.216   4.651  -7.690  1.00  0.00     0.007 A 
ATOM     52  C   UNL     1      -0.805   3.117  -5.869  1.00  0.00     0.007 A 
ATOM     53  C   UNL     1      -0.116   4.134  -8.374  1.00  0.00     0.046 A 
ATOM     54  C   UNL     1       0.296   2.598  -6.554  1.00  0.00     0.046 A 
ATOM     55  C   UNL     1       0.632   3.113  -7.801  1.00  0.00     0.115 A 
BRANCH  55  56
ATOM     56  O   UNL     1       1.699   2.634  -8.503  1.00  0.00    -0.508 OA
ATOM     57  H   UNL     1       2.358   3.343  -8.579  1.00  0.00     0.293 HD
ENDBRANCH  55  56
ENDBRANCH  49  50
ENDBRANCH  48  49
BRANCH  48  58
ATOM     58  C   UNL     1      -2.672   5.045  -3.219  1.00  0.00     0.326 C 
ATOM     59  O   UNL     1      -2.077   6.105  -3.327  1.00  0.00    -0.250 OA
BRANCH  58  60
ATOM     60  O   UNL     1      -3.131   4.665  -2.000  1.00  0.00    -0.480 OA
ATOM     61  H   UNL     1      -3.040   5.480  -1.460  1.00  0.00     0.296 HD
ENDBRANCH  58  60
ENDBRANCH  48  58
ENDBRANCH  46  48
ENDBRANCH  34  44
ENDBRANCH  32  34
ENDBRANCH  25  30
ENDBRANCH  23  25
ENDBRANCH   2  23
TORSDOF 28
ENDMDL
MODEL 39
REMARK VINA RESULT:    -6.055      3.428      8.719
REMARK INTER + INTRA:         -20.573
REMARK INTER:                 -16.332
REMARK INTRA:                  -4.240
REMARK UNBOUND:                -5.490
REMARK SMILES CCCCCCC[C@H](N)[C@H](O)C(=O)N[C@H](C)C(=O)N(C)[C@H](CC(C)C)C(=O)N[C@@H](Cc1ccc(O)cc1)C(=O)N[C@@H](Cc1ccc(O)cc1)C(=O)O
REMARK SMILES IDX 18 1 17 2 15 3 16 4 14 5 12 6 13 7 10 9 11 10 8 12 9 13 7 16
REMARK SMILES IDX 6 17 5 18 4 19 3 20 2 21 1 22 19 23 20 24 21 25 22 26 23 27
REMARK SMILES IDX 24 28 25 29 26 30 27 31 28 32 29 34 30 35 31 36 32 37 37 38
REMARK SMILES IDX 33 39 36 40 34 41 35 42 38 44 39 45 40 46 41 48 42 49 43 50
REMARK SMILES IDX 44 51 49 52 45 53 48 54 46 55 47 56 50 58 51 59 52 60
REMARK H PARENT 14 8 11 11 9 14 9 15 28 33 35 43 40 47 47 57 52 61
ROOT
ATOM      1  O   UNL     1      -7.940  -1.549  -4.285  1.00  0.00    -0.272 OA
ATOM      2  C   UNL     1      -8.061  -2.215  -5.324  1.00  0.00     0.245 C 
ENDROOT
BRANCH   2   3
ATOM      3  C   UNL     1      -8.069  -3.760  -5.216  1.00  0.00     0.168 C 
ATOM      4  C   UNL     1      -6.664  -4.324  -5.398  1.00  0.00     0.041 C 
BRANCH   3   5
ATOM      5  N   UNL     1      -8.713  -4.286  -4.022  1.00  0.00    -0.342 N 
ATOM      6  C   UNL     1      -9.988  -4.810  -4.053  1.00  0.00     0.251 C 
ATOM      7  O   UNL     1     -10.684  -4.835  -5.062  1.00  0.00    -0.272 OA
ATOM      8  H   UNL     1      -8.247  -4.287  -3.117  1.00  0.00     0.164 HD
BRANCH   6   9
ATOM      9  C   UNL     1     -10.407  -5.434  -2.712  1.00  0.00     0.219 C 
BRANCH   9  10
ATOM     10  O   UNL     1     -11.827  -5.427  -2.519  1.00  0.00    -0.382 OA
ATOM     11  H   UNL     1     -11.928  -5.292  -1.551  1.00  0.00     0.211 HD
ENDBRANCH   9  10
BRANCH   9  12
ATOM     12  C   UNL     1      -9.829  -6.856  -2.495  1.00  0.00     0.089 C 
BRANCH  12  13
ATOM     13  N   UNL     1      -9.572  -7.464  -3.821  1.00  0.00    -0.325 NA
ATOM     14  H   UNL     1     -10.301  -8.151  -4.023  1.00  0.00     0.119 HD
ATOM     15  H   UNL     1      -8.703  -8.001  -3.776  1.00  0.00     0.119 HD
ENDBRANCH  12  13
BRANCH  12  16
ATOM     16  C   UNL     1      -8.560  -6.945  -1.615  1.00  0.00     0.022 C 
BRANCH  16  17
ATOM     17  C   UNL     1      -8.714  -7.096  -0.095  1.00  0.00     0.002 C 
BRANCH  17  18
ATOM     18  C   UNL     1      -7.471  -6.737   0.718  1.00  0.00     0.000 C 
BRANCH  18  19
ATOM     19  C   UNL     1      -7.772  -5.966   2.010  1.00  0.00    -0.000 C 
BRANCH  19  20
ATOM     20  C   UNL     1      -9.258  -5.756   2.311  1.00  0.00    -0.000 C 
BRANCH  20  21
ATOM     21  C   UNL     1      -9.664  -4.280   2.324  1.00  0.00    -0.003 C 
ATOM     22  C   UNL     1     -10.125  -3.819   0.950  1.00  0.00     0.004 C 
ENDBRANCH  20  21
ENDBRANCH  19  20
ENDBRANCH  18  19
ENDBRANCH  17  18
ENDBRANCH  16  17
ENDBRANCH  12  16
ENDBRANCH   9  12
ENDBRANCH   6   9
ENDBRANCH   3   5
ENDBRANCH   2   3
BRANCH   2  23
ATOM     23  N   UNL     1      -8.306  -1.577  -6.535  1.00  0.00    -0.332 N 
ATOM     24  C   UNL     1      -9.233  -2.058  -7.548  1.00  0.00     0.147 C 
BRANCH  23  25
ATOM     25  C   UNL     1      -7.702  -0.246  -6.819  1.00  0.00     0.174 C 
BRANCH  25  26
ATOM     26  C   UNL     1      -8.286   0.422  -8.085  1.00  0.00     0.038 C 
BRANCH  26  27
ATOM     27  C   UNL     1      -7.326   0.618  -9.280  1.00  0.00    -0.015 C 
ATOM     28  C   UNL     1      -7.778  -0.145 -10.524  1.00  0.00     0.007 C 
ATOM     29  C   UNL     1      -7.064   2.084  -9.615  1.00  0.00     0.007 C 
ENDBRANCH  26  27
ENDBRANCH  25  26
BRANCH  25  30
ATOM     30  C   UNL     1      -6.160  -0.353  -6.827  1.00  0.00     0.243 C 
ATOM     31  O   UNL     1      -5.581  -1.390  -7.150  1.00  0.00    -0.273 OA
ATOM     32  N   UNL     1      -5.484   0.778  -6.447  1.00  0.00    -0.342 N 
ATOM     33  H   UNL     1      -6.028   1.637  -6.331  1.00  0.00     0.164 HD
BRANCH  32  34
ATOM     34  C   UNL     1      -4.023   0.852  -6.369  1.00  0.00     0.175 C 
BRANCH  34  35
ATOM     35  C   UNL     1      -3.430   1.522  -7.618  1.00  0.00     0.070 C 
BRANCH  35  36
ATOM     36  C   UNL     1      -2.991   0.524  -8.665  1.00  0.00    -0.045 A 
ATOM     37  C   UNL     1      -1.761  -0.138  -8.531  1.00  0.00     0.007 A 
ATOM     38  C   UNL     1      -3.787   0.263  -9.788  1.00  0.00     0.007 A 
ATOM     39  C   UNL     1      -1.341  -1.051  -9.499  1.00  0.00     0.046 A 
ATOM     40  C   UNL     1      -3.366  -0.650 -10.759  1.00  0.00     0.046 A 
ATOM     41  C   UNL     1      -2.146  -1.300 -10.604  1.00  0.00     0.115 A 
BRANCH  41  42
ATOM     42  O   UNL     1      -1.698  -2.196 -11.528  1.00  0.00    -0.508 OA
ATOM     43  H   UNL     1      -2.441  -2.766 -11.786  1.00  0.00     0.293 HD
ENDBRANCH  41  42
ENDBRANCH  35  36
ENDBRANCH  34  35
BRANCH  34  44
ATOM     44  C   UNL     1      -3.650   1.609  -5.075  1.00  0.00     0.243 C 
ATOM     45  O   UNL     1      -3.825   1.173  -3.941  1.00  0.00    -0.273 OA
ATOM     46  N   UNL     1      -3.212   2.897  -5.300  1.00  0.00    -0.341 N 
ATOM     47  H   UNL     1      -3.194   3.254  -6.252  1.00  0.00     0.164 HD
BRANCH  46  48
ATOM     48  C   UNL     1      -2.865   3.830  -4.225  1.00  0.00     0.196 C 
BRANCH  48  49
ATOM     49  C   UNL     1      -1.697   4.744  -4.632  1.00  0.00     0.072 C 
BRANCH  49  50
ATOM     50  C   UNL     1      -0.913   4.199  -5.804  1.00  0.00    -0.045 A 
ATOM     51  C   UNL     1      -0.200   2.999  -5.672  1.00  0.00     0.007 A 
ATOM     52  C   UNL     1      -0.870   4.887  -7.024  1.00  0.00     0.007 A 
ATOM     53  C   UNL     1       0.537   2.494  -6.743  1.00  0.00     0.046 A 
ATOM     54  C   UNL     1      -0.130   4.382  -8.096  1.00  0.00     0.046 A 
ATOM     55  C   UNL     1       0.566   3.188  -7.946  1.00  0.00     0.115 A 
BRANCH  55  56
ATOM     56  O   UNL     1       1.300   2.662  -8.968  1.00  0.00    -0.508 OA
ATOM     57  H   UNL     1       2.148   2.355  -8.609  1.00  0.00     0.293 HD
ENDBRANCH  55  56
ENDBRANCH  49  50
ENDBRANCH  48  49
BRANCH  48  58
ATOM     58  C   UNL     1      -4.095   4.685  -3.890  1.00  0.00     0.326 C 
ATOM     59  O   UNL     1      -4.413   5.126  -2.798  1.00  0.00    -0.250 OA
BRANCH  58  60
ATOM     60  O   UNL     1      -4.872   4.961  -4.968  1.00  0.00    -0.480 OA
ATOM     61  H   UNL     1      -5.186   5.875  -4.791  1.00  0.00     0.296 HD
ENDBRANCH  58  60
ENDBRANCH  48  58
ENDBRANCH  46  48
ENDBRANCH  34  44
ENDBRANCH  32  34
ENDBRANCH  25  30
ENDBRANCH  23  25
ENDBRANCH   2  23
TORSDOF 28
ENDMDL
MODEL 40
REMARK VINA RESULT:    -6.038      3.227      9.380
REMARK INTER + INTRA:         -20.531
REMARK INTER:                 -16.123
REMARK INTRA:                  -4.408
REMARK UNBOUND:                -5.490
REMARK SMILES CCCCCCC[C@H](N)[C@H](O)C(=O)N[C@H](C)C(=O)N(C)[C@H](CC(C)C)C(=O)N[C@@H](Cc1ccc(O)cc1)C(=O)N[C@@H](Cc1ccc(O)cc1)C(=O)O
REMARK SMILES IDX 18 1 17 2 15 3 16 4 14 5 12 6 13 7 10 9 11 10 8 12 9 13 7 16
REMARK SMILES IDX 6 17 5 18 4 19 3 20 2 21 1 22 19 23 20 24 21 25 22 26 23 27
REMARK SMILES IDX 24 28 25 29 26 30 27 31 28 32 29 34 30 35 31 36 32 37 37 38
REMARK SMILES IDX 33 39 36 40 34 41 35 42 38 44 39 45 40 46 41 48 42 49 43 50
REMARK SMILES IDX 44 51 49 52 45 53 48 54 46 55 47 56 50 58 51 59 52 60
REMARK H PARENT 14 8 11 11 9 14 9 15 28 33 35 43 40 47 47 57 52 61
ROOT
ATOM      1  O   UNL     1      -6.686  -2.139  -5.279  1.00  0.00    -0.272 OA
ATOM      2  C   UNL     1      -7.922  -2.214  -5.217  1.00  0.00     0.245 C 
ENDROOT
BRANCH   2   3
ATOM      3  C   UNL     1      -8.593  -3.592  -5.443  1.00  0.00     0.168 C 
ATOM      4  C   UNL     1      -7.646  -4.544  -6.165  1.00  0.00     0.041 C 
BRANCH   3   5
ATOM      5  N   UNL     1      -9.163  -4.197  -4.249  1.00  0.00    -0.342 N 
ATOM      6  C   UNL     1     -10.476  -4.616  -4.202  1.00  0.00     0.251 C 
ATOM      7  O   UNL     1     -11.264  -4.476  -5.130  1.00  0.00    -0.272 OA
ATOM      8  H   UNL     1      -8.615  -4.333  -3.403  1.00  0.00     0.164 HD
BRANCH   6   9
ATOM      9  C   UNL     1     -10.818  -5.351  -2.896  1.00  0.00     0.219 C 
BRANCH   9  10
ATOM     10  O   UNL     1     -12.216  -5.309  -2.588  1.00  0.00    -0.382 OA
ATOM     11  H   UNL     1     -12.566  -4.622  -3.197  1.00  0.00     0.211 HD
ENDBRANCH   9  10
BRANCH   9  12
ATOM     12  C   UNL     1     -10.290  -6.809  -2.862  1.00  0.00     0.089 C 
BRANCH  12  13
ATOM     13  N   UNL     1      -9.962  -7.220  -4.247  1.00  0.00    -0.325 NA
ATOM     14  H   UNL     1     -10.551  -6.700  -4.900  1.00  0.00     0.119 HD
ATOM     15  H   UNL     1     -10.224  -8.200  -4.373  1.00  0.00     0.119 HD
ENDBRANCH  12  13
BRANCH  12  16
ATOM     16  C   UNL     1      -9.084  -7.073  -1.930  1.00  0.00     0.022 C 
BRANCH  16  17
ATOM     17  C   UNL     1      -8.921  -6.224  -0.661  1.00  0.00     0.002 C 
BRANCH  17  18
ATOM     18  C   UNL     1      -9.081  -6.988   0.651  1.00  0.00     0.000 C 
BRANCH  18  19
ATOM     19  C   UNL     1     -10.399  -6.703   1.383  1.00  0.00    -0.000 C 
BRANCH  19  20
ATOM     20  C   UNL     1     -11.241  -5.571   0.789  1.00  0.00    -0.000 C 
BRANCH  20  21
ATOM     21  C   UNL     1     -11.159  -4.274   1.599  1.00  0.00    -0.003 C 
ATOM     22  C   UNL     1     -10.389  -3.199   0.848  1.00  0.00     0.004 C 
ENDBRANCH  20  21
ENDBRANCH  19  20
ENDBRANCH  18  19
ENDBRANCH  17  18
ENDBRANCH  16  17
ENDBRANCH  12  16
ENDBRANCH   9  12
ENDBRANCH   6   9
ENDBRANCH   3   5
ENDBRANCH   2   3
BRANCH   2  23
ATOM     23  N   UNL     1      -8.668  -1.105  -4.832  1.00  0.00    -0.332 N 
ATOM     24  C   UNL     1      -9.825  -0.597  -5.553  1.00  0.00     0.147 C 
BRANCH  23  25
ATOM     25  C   UNL     1      -8.387  -0.424  -3.538  1.00  0.00     0.174 C 
BRANCH  25  26
ATOM     26  C   UNL     1      -9.611   0.341  -2.982  1.00  0.00     0.038 C 
BRANCH  26  27
ATOM     27  C   UNL     1     -10.233  -0.191  -1.672  1.00  0.00    -0.015 C 
ATOM     28  C   UNL     1      -9.465   0.265  -0.432  1.00  0.00     0.007 C 
ATOM     29  C   UNL     1     -11.719   0.129  -1.531  1.00  0.00     0.007 C 
ENDBRANCH  26  27
ENDBRANCH  25  26
BRANCH  25  30
ATOM     30  C   UNL     1      -7.114   0.445  -3.659  1.00  0.00     0.243 C 
ATOM     31  O   UNL     1      -6.464   0.787  -2.673  1.00  0.00    -0.273 OA
ATOM     32  N   UNL     1      -6.764   0.811  -4.934  1.00  0.00    -0.342 N 
ATOM     33  H   UNL     1      -7.269   0.372  -5.708  1.00  0.00     0.164 HD
BRANCH  32  34
ATOM     34  C   UNL     1      -5.605   1.654  -5.236  1.00  0.00     0.175 C 
BRANCH  34  35
ATOM     35  C   UNL     1      -5.485   1.919  -6.745  1.00  0.00     0.070 C 
BRANCH  35  36
ATOM     36  C   UNL     1      -4.059   1.837  -7.242  1.00  0.00    -0.045 A 
ATOM     37  C   UNL     1      -3.761   2.155  -8.575  1.00  0.00     0.007 A 
ATOM     38  C   UNL     1      -3.025   1.424  -6.392  1.00  0.00     0.007 A 
ATOM     39  C   UNL     1      -2.451   2.069  -9.047  1.00  0.00     0.046 A 
ATOM     40  C   UNL     1      -1.713   1.336  -6.863  1.00  0.00     0.046 A 
ATOM     41  C   UNL     1      -1.438   1.661  -8.188  1.00  0.00     0.115 A 
BRANCH  41  42
ATOM     42  O   UNL     1      -0.171   1.588  -8.688  1.00  0.00    -0.508 OA
ATOM     43  H   UNL     1       0.007   0.664  -8.932  1.00  0.00     0.293 HD
ENDBRANCH  41  42
ENDBRANCH  35  36
ENDBRANCH  34  35
BRANCH  34  44
ATOM     44  C   UNL     1      -5.743   2.965  -4.429  1.00  0.00     0.243 C 
ATOM     45  O   UNL     1      -6.574   3.838  -4.661  1.00  0.00    -0.273 OA
ATOM     46  N   UNL     1      -4.750   3.136  -3.487  1.00  0.00    -0.341 N 
ATOM     47  H   UNL     1      -4.015   2.438  -3.412  1.00  0.00     0.164 HD
BRANCH  46  48
ATOM     48  C   UNL     1      -4.633   4.331  -2.649  1.00  0.00     0.196 C 
BRANCH  48  49
ATOM     49  C   UNL     1      -4.241   5.563  -3.481  1.00  0.00     0.072 C 
BRANCH  49  50
ATOM     50  C   UNL     1      -3.068   5.297  -4.397  1.00  0.00    -0.045 A 
ATOM     51  C   UNL     1      -1.784   5.128  -3.858  1.00  0.00     0.007 A 
ATOM     52  C   UNL     1      -3.237   5.237  -5.786  1.00  0.00     0.007 A 
ATOM     53  C   UNL     1      -0.692   4.895  -4.694  1.00  0.00     0.046 A 
ATOM     54  C   UNL     1      -2.143   5.005  -6.623  1.00  0.00     0.046 A 
ATOM     55  C   UNL     1      -0.879   4.834  -6.069  1.00  0.00     0.115 A 
BRANCH  55  56
ATOM     56  O   UNL     1       0.214   4.607  -6.851  1.00  0.00    -0.508 OA
ATOM     57  H   UNL     1       0.978   5.044  -6.444  1.00  0.00     0.293 HD
ENDBRANCH  55  56
ENDBRANCH  49  50
ENDBRANCH  48  49
BRANCH  48  58
ATOM     58  C   UNL     1      -5.978   4.587  -1.953  1.00  0.00     0.326 C 
ATOM     59  O   UNL     1      -6.566   5.651  -1.850  1.00  0.00    -0.250 OA
BRANCH  58  60
ATOM     60  O   UNL     1      -6.534   3.468  -1.423  1.00  0.00    -0.480 OA
ATOM     61  H   UNL     1      -7.114   3.141  -2.145  1.00  0.00     0.296 HD
ENDBRANCH  58  60
ENDBRANCH  48  58
ENDBRANCH  46  48
ENDBRANCH  34  44
ENDBRANCH  32  34
ENDBRANCH  25  30
ENDBRANCH  23  25
ENDBRANCH   2  23
TORSDOF 28
ENDMDL
MODEL 41
REMARK VINA RESULT:    -6.021      3.077      9.270
REMARK INTER + INTRA:         -20.487
REMARK INTER:                 -16.463
REMARK INTRA:                  -4.024
REMARK UNBOUND:                -5.490
REMARK SMILES CCCCCCC[C@H](N)[C@H](O)C(=O)N[C@H](C)C(=O)N(C)[C@H](CC(C)C)C(=O)N[C@@H](Cc1ccc(O)cc1)C(=O)N[C@@H](Cc1ccc(O)cc1)C(=O)O
REMARK SMILES IDX 18 1 17 2 15 3 16 4 14 5 12 6 13 7 10 9 11 10 8 12 9 13 7 16
REMARK SMILES IDX 6 17 5 18 4 19 3 20 2 21 1 22 19 23 20 24 21 25 22 26 23 27
REMARK SMILES IDX 24 28 25 29 26 30 27 31 28 32 29 34 30 35 31 36 32 37 37 38
REMARK SMILES IDX 33 39 36 40 34 41 35 42 38 44 39 45 40 46 41 48 42 49 43 50
REMARK SMILES IDX 44 51 49 52 45 53 48 54 46 55 47 56 50 58 51 59 52 60
REMARK H PARENT 14 8 11 11 9 14 9 15 28 33 35 43 40 47 47 57 52 61
ROOT
ATOM      1  O   UNL     1      -6.601  -2.945  -5.067  1.00  0.00    -0.272 OA
ATOM      2  C   UNL     1      -7.276  -3.084  -6.097  1.00  0.00     0.245 C 
ENDROOT
BRANCH   2   3
ATOM      3  C   UNL     1      -7.787  -4.500  -6.464  1.00  0.00     0.168 C 
ATOM      4  C   UNL     1      -6.738  -5.265  -7.263  1.00  0.00     0.041 C 
BRANCH   3   5
ATOM      5  N   UNL     1      -8.287  -5.278  -5.341  1.00  0.00    -0.342 N 
ATOM      6  C   UNL     1      -9.609  -5.229  -4.953  1.00  0.00     0.251 C 
ATOM      7  O   UNL     1     -10.445  -4.507  -5.487  1.00  0.00    -0.272 OA
ATOM      8  H   UNL     1      -7.680  -5.888  -4.799  1.00  0.00     0.164 HD
BRANCH   6   9
ATOM      9  C   UNL     1      -9.940  -6.237  -3.841  1.00  0.00     0.219 C 
BRANCH   9  10
ATOM     10  O   UNL     1      -9.571  -7.579  -4.183  1.00  0.00    -0.382 OA
ATOM     11  H   UNL     1      -9.742  -8.083  -3.358  1.00  0.00     0.211 HD
ENDBRANCH   9  10
BRANCH   9  12
ATOM     12  C   UNL     1      -9.350  -5.839  -2.463  1.00  0.00     0.089 C 
BRANCH  12  13
ATOM     13  N   UNL     1      -8.782  -4.476  -2.574  1.00  0.00    -0.325 NA
ATOM     14  H   UNL     1      -9.048  -3.933  -1.750  1.00  0.00     0.119 HD
ATOM     15  H   UNL     1      -9.222  -3.997  -3.363  1.00  0.00     0.119 HD
ENDBRANCH  12  13
BRANCH  12  16
ATOM     16  C   UNL     1     -10.324  -5.912  -1.262  1.00  0.00     0.022 C 
BRANCH  16  17
ATOM     17  C   UNL     1      -9.817  -5.527   0.135  1.00  0.00     0.002 C 
BRANCH  17  18
ATOM     18  C   UNL     1      -9.820  -6.661   1.158  1.00  0.00     0.000 C 
BRANCH  18  19
ATOM     19  C   UNL     1      -8.517  -7.471   1.196  1.00  0.00    -0.000 C 
BRANCH  19  20
ATOM     20  C   UNL     1      -7.271  -6.720   0.719  1.00  0.00    -0.000 C 
BRANCH  20  21
ATOM     21  C   UNL     1      -6.589  -7.390  -0.477  1.00  0.00    -0.003 C 
ATOM     22  C   UNL     1      -5.631  -6.437  -1.175  1.00  0.00     0.004 C 
ENDBRANCH  20  21
ENDBRANCH  19  20
ENDBRANCH  18  19
ENDBRANCH  17  18
ENDBRANCH  16  17
ENDBRANCH  12  16
ENDBRANCH   9  12
ENDBRANCH   6   9
ENDBRANCH   3   5
ENDBRANCH   2   3
BRANCH   2  23
ATOM     23  N   UNL     1      -7.662  -1.967  -6.831  1.00  0.00    -0.332 N 
ATOM     24  C   UNL     1      -7.594  -1.869  -8.282  1.00  0.00     0.147 C 
BRANCH  23  25
ATOM     25  C   UNL     1      -8.310  -0.811  -6.154  1.00  0.00     0.174 C 
BRANCH  25  26
ATOM     26  C   UNL     1      -9.665  -0.422  -6.792  1.00  0.00     0.038 C 
BRANCH  26  27
ATOM     27  C   UNL     1     -10.939  -0.749  -5.982  1.00  0.00    -0.015 C 
ATOM     28  C   UNL     1     -10.627  -1.178  -4.549  1.00  0.00     0.007 C 
ATOM     29  C   UNL     1     -11.972   0.375  -5.994  1.00  0.00     0.007 C 
ENDBRANCH  26  27
ENDBRANCH  25  26
BRANCH  25  30
ATOM     30  C   UNL     1      -7.315   0.367  -6.043  1.00  0.00     0.243 C 
ATOM     31  O   UNL     1      -7.648   1.525  -6.290  1.00  0.00    -0.273 OA
ATOM     32  N   UNL     1      -6.042   0.033  -5.658  1.00  0.00    -0.342 N 
ATOM     33  H   UNL     1      -5.880  -0.925  -5.335  1.00  0.00     0.164 HD
BRANCH  32  34
ATOM     34  C   UNL     1      -4.961   1.014  -5.526  1.00  0.00     0.175 C 
BRANCH  34  35
ATOM     35  C   UNL     1      -4.868   1.914  -6.768  1.00  0.00     0.070 C 
BRANCH  35  36
ATOM     36  C   UNL     1      -3.522   1.831  -7.451  1.00  0.00    -0.045 A 
ATOM     37  C   UNL     1      -3.344   2.396  -8.723  1.00  0.00     0.007 A 
ATOM     38  C   UNL     1      -2.445   1.175  -6.840  1.00  0.00     0.007 A 
ATOM     39  C   UNL     1      -2.109   2.313  -9.367  1.00  0.00     0.046 A 
ATOM     40  C   UNL     1      -1.208   1.090  -7.485  1.00  0.00     0.046 A 
ATOM     41  C   UNL     1      -1.052   1.662  -8.744  1.00  0.00     0.115 A 
BRANCH  41  42
ATOM     42  O   UNL     1       0.137   1.600  -9.408  1.00  0.00    -0.508 OA
ATOM     43  H   UNL     1       0.854   1.714  -8.762  1.00  0.00     0.293 HD
ENDBRANCH  41  42
ENDBRANCH  35  36
ENDBRANCH  34  35
BRANCH  34  44
ATOM     44  C   UNL     1      -5.210   1.831  -4.239  1.00  0.00     0.243 C 
ATOM     45  O   UNL     1      -5.675   1.366  -3.201  1.00  0.00    -0.273 OA
ATOM     46  N   UNL     1      -4.984   3.182  -4.393  1.00  0.00    -0.341 N 
ATOM     47  H   UNL     1      -4.711   3.535  -5.307  1.00  0.00     0.164 HD
BRANCH  46  48
ATOM     48  C   UNL     1      -5.217   4.165  -3.333  1.00  0.00     0.196 C 
BRANCH  48  49
ATOM     49  C   UNL     1      -3.916   4.886  -2.942  1.00  0.00     0.072 C 
BRANCH  49  50
ATOM     50  C   UNL     1      -2.816   4.695  -3.962  1.00  0.00    -0.045 A 
ATOM     51  C   UNL     1      -2.941   5.262  -5.239  1.00  0.00     0.007 A 
ATOM     52  C   UNL     1      -1.676   3.940  -3.659  1.00  0.00     0.007 A 
ATOM     53  C   UNL     1      -1.938   5.081  -6.192  1.00  0.00     0.046 A 
ATOM     54  C   UNL     1      -0.673   3.758  -4.614  1.00  0.00     0.046 A 
ATOM     55  C   UNL     1      -0.813   4.332  -5.873  1.00  0.00     0.115 A 
BRANCH  55  56
ATOM     56  O   UNL     1       0.143   4.177  -6.833  1.00  0.00    -0.508 OA
ATOM     57  H   UNL     1       0.829   4.850  -6.693  1.00  0.00     0.293 HD
ENDBRANCH  55  56
ENDBRANCH  49  50
ENDBRANCH  48  49
BRANCH  48  58
ATOM     58  C   UNL     1      -6.248   5.191  -3.821  1.00  0.00     0.326 C 
ATOM     59  O   UNL     1      -6.673   5.329  -4.957  1.00  0.00    -0.250 OA
BRANCH  58  60
ATOM     60  O   UNL     1      -6.716   5.999  -2.837  1.00  0.00    -0.480 OA
ATOM     61  H   UNL     1      -6.001   6.663  -2.731  1.00  0.00     0.296 HD
ENDBRANCH  58  60
ENDBRANCH  48  58
ENDBRANCH  46  48
ENDBRANCH  34  44
ENDBRANCH  32  34
ENDBRANCH  25  30
ENDBRANCH  23  25
ENDBRANCH   2  23
TORSDOF 28
ENDMDL
MODEL 42
REMARK VINA RESULT:    -6.014      2.534      7.782
REMARK INTER + INTRA:         -20.470
REMARK INTER:                 -15.627
REMARK INTRA:                  -4.843
REMARK UNBOUND:                -5.490
REMARK SMILES CCCCCCC[C@H](N)[C@H](O)C(=O)N[C@H](C)C(=O)N(C)[C@H](CC(C)C)C(=O)N[C@@H](Cc1ccc(O)cc1)C(=O)N[C@@H](Cc1ccc(O)cc1)C(=O)O
REMARK SMILES IDX 18 1 17 2 15 3 16 4 14 5 12 6 13 7 10 9 11 10 8 12 9 13 7 16
REMARK SMILES IDX 6 17 5 18 4 19 3 20 2 21 1 22 19 23 20 24 21 25 22 26 23 27
REMARK SMILES IDX 24 28 25 29 26 30 27 31 28 32 29 34 30 35 31 36 32 37 37 38
REMARK SMILES IDX 33 39 36 40 34 41 35 42 38 44 39 45 40 46 41 48 42 49 43 50
REMARK SMILES IDX 44 51 49 52 45 53 48 54 46 55 47 56 50 58 51 59 52 60
REMARK H PARENT 14 8 11 11 9 14 9 15 28 33 35 43 40 47 47 57 52 61
ROOT
ATOM      1  O   UNL     1      -5.878  -2.272  -6.666  1.00  0.00    -0.272 OA
ATOM      2  C   UNL     1      -6.176  -2.846  -7.724  1.00  0.00     0.245 C 
ENDROOT
BRANCH   2   3
ATOM      3  C   UNL     1      -6.921  -4.202  -7.648  1.00  0.00     0.168 C 
ATOM      4  C   UNL     1      -5.960  -5.328  -7.285  1.00  0.00     0.041 C 
BRANCH   3   5
ATOM      5  N   UNL     1      -8.102  -4.203  -6.799  1.00  0.00    -0.342 N 
ATOM      6  C   UNL     1      -9.361  -3.948  -7.302  1.00  0.00     0.251 C 
ATOM      7  O   UNL     1      -9.575  -3.665  -8.476  1.00  0.00    -0.272 OA
ATOM      8  H   UNL     1      -8.045  -4.391  -5.801  1.00  0.00     0.164 HD
BRANCH   6   9
ATOM      9  C   UNL     1     -10.470  -4.143  -6.256  1.00  0.00     0.219 C 
BRANCH   9  10
ATOM     10  O   UNL     1      -9.968  -4.613  -4.999  1.00  0.00    -0.382 OA
ATOM     11  H   UNL     1      -9.865  -5.580  -5.138  1.00  0.00     0.211 HD
ENDBRANCH   9  10
BRANCH   9  12
ATOM     12  C   UNL     1     -11.351  -2.882  -6.060  1.00  0.00     0.089 C 
BRANCH  12  13
ATOM     13  N   UNL     1     -12.718  -3.318  -5.697  1.00  0.00    -0.325 NA
ATOM     14  H   UNL     1     -12.911  -3.049  -4.730  1.00  0.00     0.119 HD
ATOM     15  H   UNL     1     -12.751  -4.340  -5.701  1.00  0.00     0.119 HD
ENDBRANCH  12  13
BRANCH  12  16
ATOM     16  C   UNL     1     -10.833  -1.846  -5.034  1.00  0.00     0.022 C 
BRANCH  16  17
ATOM     17  C   UNL     1      -9.768  -0.830  -5.470  1.00  0.00     0.002 C 
BRANCH  17  18
ATOM     18  C   UNL     1     -10.047   0.614  -5.059  1.00  0.00     0.000 C 
BRANCH  18  19
ATOM     19  C   UNL     1     -11.406   0.817  -4.377  1.00  0.00    -0.000 C 
BRANCH  19  20
ATOM     20  C   UNL     1     -11.341   1.152  -2.884  1.00  0.00    -0.000 C 
BRANCH  20  21
ATOM     21  C   UNL     1      -9.925   1.482  -2.405  1.00  0.00    -0.003 C 
ATOM     22  C   UNL     1      -9.390   0.406  -1.472  1.00  0.00     0.004 C 
ENDBRANCH  20  21
ENDBRANCH  19  20
ENDBRANCH  18  19
ENDBRANCH  17  18
ENDBRANCH  16  17
ENDBRANCH  12  16
ENDBRANCH   9  12
ENDBRANCH   6   9
ENDBRANCH   3   5
ENDBRANCH   2   3
BRANCH   2  23
ATOM     23  N   UNL     1      -5.951  -2.216  -8.944  1.00  0.00    -0.332 N 
ATOM     24  C   UNL     1      -6.689  -2.497 -10.166  1.00  0.00     0.147 C 
BRANCH  23  25
ATOM     25  C   UNL     1      -4.987  -1.085  -9.039  1.00  0.00     0.174 C 
BRANCH  25  26
ATOM     26  C   UNL     1      -3.540  -1.495  -8.677  1.00  0.00     0.038 C 
BRANCH  26  27
ATOM     27  C   UNL     1      -2.401  -0.799  -9.455  1.00  0.00    -0.015 C 
ATOM     28  C   UNL     1      -1.714   0.292  -8.633  1.00  0.00     0.007 C 
ATOM     29  C   UNL     1      -1.370  -1.772 -10.023  1.00  0.00     0.007 C 
ENDBRANCH  26  27
ENDBRANCH  25  26
BRANCH  25  30
ATOM     30  C   UNL     1      -5.509   0.127  -8.234  1.00  0.00     0.243 C 
ATOM     31  O   UNL     1      -6.399   0.859  -8.665  1.00  0.00    -0.273 OA
ATOM     32  N   UNL     1      -4.911   0.333  -7.017  1.00  0.00    -0.342 N 
ATOM     33  H   UNL     1      -4.283  -0.396  -6.668  1.00  0.00     0.164 HD
BRANCH  32  34
ATOM     34  C   UNL     1      -5.258   1.448  -6.132  1.00  0.00     0.175 C 
BRANCH  34  35
ATOM     35  C   UNL     1      -6.382   1.059  -5.158  1.00  0.00     0.070 C 
BRANCH  35  36
ATOM     36  C   UNL     1      -6.713   2.161  -4.177  1.00  0.00    -0.045 A 
ATOM     37  C   UNL     1      -7.410   3.299  -4.610  1.00  0.00     0.007 A 
ATOM     38  C   UNL     1      -6.313   2.075  -2.837  1.00  0.00     0.007 A 
ATOM     39  C   UNL     1      -7.708   4.327  -3.715  1.00  0.00     0.046 A 
ATOM     40  C   UNL     1      -6.609   3.105  -1.941  1.00  0.00     0.046 A 
ATOM     41  C   UNL     1      -7.307   4.222  -2.389  1.00  0.00     0.115 A 
BRANCH  41  42
ATOM     42  O   UNL     1      -7.615   5.250  -1.548  1.00  0.00    -0.508 OA
ATOM     43  H   UNL     1      -8.256   4.926  -0.893  1.00  0.00     0.293 HD
ENDBRANCH  41  42
ENDBRANCH  35  36
ENDBRANCH  34  35
BRANCH  34  44
ATOM     44  C   UNL     1      -3.977   1.886  -5.388  1.00  0.00     0.243 C 
ATOM     45  O   UNL     1      -3.398   1.209  -4.543  1.00  0.00    -0.273 OA
ATOM     46  N   UNL     1      -3.599   3.183  -5.664  1.00  0.00    -0.341 N 
ATOM     47  H   UNL     1      -4.178   3.745  -6.283  1.00  0.00     0.164 HD
BRANCH  46  48
ATOM     48  C   UNL     1      -2.456   3.842  -5.028  1.00  0.00     0.196 C 
BRANCH  48  49
ATOM     49  C   UNL     1      -1.877   4.950  -5.925  1.00  0.00     0.072 C 
BRANCH  49  50
ATOM     50  C   UNL     1      -1.032   4.402  -7.052  1.00  0.00    -0.045 A 
ATOM     51  C   UNL     1      -0.010   3.481  -6.776  1.00  0.00     0.007 A 
ATOM     52  C   UNL     1      -1.237   4.817  -8.374  1.00  0.00     0.007 A 
ATOM     53  C   UNL     1       0.785   2.979  -7.807  1.00  0.00     0.046 A 
ATOM     54  C   UNL     1      -0.440   4.315  -9.406  1.00  0.00     0.046 A 
ATOM     55  C   UNL     1       0.565   3.399  -9.113  1.00  0.00     0.115 A 
BRANCH  55  56
ATOM     56  O   UNL     1       1.365   2.886 -10.090  1.00  0.00    -0.508 OA
ATOM     57  H   UNL     1       1.946   3.594 -10.412  1.00  0.00     0.293 HD
ENDBRANCH  55  56
ENDBRANCH  49  50
ENDBRANCH  48  49
BRANCH  48  58
ATOM     58  C   UNL     1      -2.909   4.447  -3.691  1.00  0.00     0.326 C 
ATOM     59  O   UNL     1      -3.882   5.156  -3.493  1.00  0.00    -0.250 OA
BRANCH  58  60
ATOM     60  O   UNL     1      -2.109   4.112  -2.648  1.00  0.00    -0.480 OA
ATOM     61  H   UNL     1      -2.644   4.364  -1.864  1.00  0.00     0.296 HD
ENDBRANCH  58  60
ENDBRANCH  48  58
ENDBRANCH  46  48
ENDBRANCH  34  44
ENDBRANCH  32  34
ENDBRANCH  25  30
ENDBRANCH  23  25
ENDBRANCH   2  23
TORSDOF 28
ENDMDL
MODEL 43
REMARK VINA RESULT:    -6.011      3.456      6.967
REMARK INTER + INTRA:         -20.463
REMARK INTER:                 -16.040
REMARK INTRA:                  -4.423
REMARK UNBOUND:                -5.490
REMARK SMILES CCCCCCC[C@H](N)[C@H](O)C(=O)N[C@H](C)C(=O)N(C)[C@H](CC(C)C)C(=O)N[C@@H](Cc1ccc(O)cc1)C(=O)N[C@@H](Cc1ccc(O)cc1)C(=O)O
REMARK SMILES IDX 18 1 17 2 15 3 16 4 14 5 12 6 13 7 10 9 11 10 8 12 9 13 7 16
REMARK SMILES IDX 6 17 5 18 4 19 3 20 2 21 1 22 19 23 20 24 21 25 22 26 23 27
REMARK SMILES IDX 24 28 25 29 26 30 27 31 28 32 29 34 30 35 31 36 32 37 37 38
REMARK SMILES IDX 33 39 36 40 34 41 35 42 38 44 39 45 40 46 41 48 42 49 43 50
REMARK SMILES IDX 44 51 49 52 45 53 48 54 46 55 47 56 50 58 51 59 52 60
REMARK H PARENT 14 8 11 11 9 14 9 15 28 33 35 43 40 47 47 57 52 61
ROOT
ATOM      1  O   UNL     1      -6.377   1.210  -2.598  1.00  0.00    -0.272 OA
ATOM      2  C   UNL     1      -7.067   1.996  -3.263  1.00  0.00     0.245 C 
ENDROOT
BRANCH   2   3
ATOM      3  C   UNL     1      -6.724   3.506  -3.215  1.00  0.00     0.168 C 
ATOM      4  C   UNL     1      -7.722   4.261  -2.342  1.00  0.00     0.041 C 
BRANCH   3   5
ATOM      5  N   UNL     1      -5.349   3.809  -2.851  1.00  0.00    -0.342 N 
ATOM      6  C   UNL     1      -4.510   4.509  -3.693  1.00  0.00     0.251 C 
ATOM      7  O   UNL     1      -4.839   4.888  -4.812  1.00  0.00    -0.272 OA
ATOM      8  H   UNL     1      -4.952   3.515  -1.961  1.00  0.00     0.164 HD
BRANCH   6   9
ATOM      9  C   UNL     1      -3.155   4.836  -3.045  1.00  0.00     0.219 C 
BRANCH   9  10
ATOM     10  O   UNL     1      -3.226   4.894  -1.615  1.00  0.00    -0.382 OA
ATOM     11  H   UNL     1      -2.410   5.380  -1.363  1.00  0.00     0.211 HD
ENDBRANCH   9  10
BRANCH   9  12
ATOM     12  C   UNL     1      -2.017   3.886  -3.502  1.00  0.00     0.089 C 
BRANCH  12  13
ATOM     13  N   UNL     1      -2.619   2.770  -4.267  1.00  0.00    -0.325 NA
ATOM     14  H   UNL     1      -3.632   2.894  -4.301  1.00  0.00     0.119 HD
ATOM     15  H   UNL     1      -2.473   1.899  -3.752  1.00  0.00     0.119 HD
ENDBRANCH  12  13
BRANCH  12  16
ATOM     16  C   UNL     1      -0.877   4.538  -4.320  1.00  0.00     0.022 C 
BRANCH  16  17
ATOM     17  C   UNL     1      -1.226   5.333  -5.586  1.00  0.00     0.002 C 
BRANCH  17  18
ATOM     18  C   UNL     1      -0.491   4.890  -6.849  1.00  0.00     0.000 C 
BRANCH  18  19
ATOM     19  C   UNL     1      -1.415   4.569  -8.030  1.00  0.00    -0.000 C 
BRANCH  19  20
ATOM     20  C   UNL     1      -1.997   3.153  -8.035  1.00  0.00    -0.000 C 
BRANCH  20  21
ATOM     21  C   UNL     1      -1.032   2.106  -7.472  1.00  0.00    -0.003 C 
ATOM     22  C   UNL     1      -1.731   0.776  -7.239  1.00  0.00     0.004 C 
ENDBRANCH  20  21
ENDBRANCH  19  20
ENDBRANCH  18  19
ENDBRANCH  17  18
ENDBRANCH  16  17
ENDBRANCH  12  16
ENDBRANCH   9  12
ENDBRANCH   6   9
ENDBRANCH   3   5
ENDBRANCH   2   3
BRANCH   2  23
ATOM     23  N   UNL     1      -8.045   1.508  -4.123  1.00  0.00    -0.332 N 
ATOM     24  C   UNL     1      -8.959   2.339  -4.892  1.00  0.00     0.147 C 
BRANCH  23  25
ATOM     25  C   UNL     1      -8.131   0.050  -4.412  1.00  0.00     0.174 C 
BRANCH  25  26
ATOM     26  C   UNL     1      -8.321  -0.256  -5.916  1.00  0.00     0.038 C 
BRANCH  26  27
ATOM     27  C   UNL     1      -7.094  -0.048  -6.833  1.00  0.00    -0.015 C 
ATOM     28  C   UNL     1      -5.784  -0.453  -6.158  1.00  0.00     0.007 C 
ATOM     29  C   UNL     1      -7.231  -0.727  -8.193  1.00  0.00     0.007 C 
ENDBRANCH  26  27
ENDBRANCH  25  26
BRANCH  25  30
ATOM     30  C   UNL     1      -9.194  -0.610  -3.504  1.00  0.00     0.243 C 
ATOM     31  O   UNL     1      -8.912  -1.066  -2.397  1.00  0.00    -0.273 OA
ATOM     32  N   UNL     1     -10.465  -0.659  -4.018  1.00  0.00    -0.342 N 
ATOM     33  H   UNL     1     -10.648  -0.137  -4.878  1.00  0.00     0.164 HD
BRANCH  32  34
ATOM     34  C   UNL     1     -11.592  -1.272  -3.311  1.00  0.00     0.175 C 
BRANCH  34  35
ATOM     35  C   UNL     1     -12.913  -0.560  -3.642  1.00  0.00     0.070 C 
BRANCH  35  36
ATOM     36  C   UNL     1     -13.994  -0.827  -2.618  1.00  0.00    -0.045 A 
ATOM     37  C   UNL     1     -15.251  -1.293  -3.031  1.00  0.00     0.007 A 
ATOM     38  C   UNL     1     -13.767  -0.593  -1.256  1.00  0.00     0.007 A 
ATOM     39  C   UNL     1     -16.259  -1.529  -2.095  1.00  0.00     0.046 A 
ATOM     40  C   UNL     1     -14.776  -0.828  -0.319  1.00  0.00     0.046 A 
ATOM     41  C   UNL     1     -16.014  -1.295  -0.748  1.00  0.00     0.115 A 
BRANCH  41  42
ATOM     42  O   UNL     1     -17.026  -1.535   0.134  1.00  0.00    -0.508 OA
ATOM     43  H   UNL     1     -17.537  -2.296  -0.189  1.00  0.00     0.293 HD
ENDBRANCH  41  42
ENDBRANCH  35  36
ENDBRANCH  34  35
BRANCH  34  44
ATOM     44  C   UNL     1     -11.635  -2.771  -3.685  1.00  0.00     0.243 C 
ATOM     45  O   UNL     1     -12.258  -3.231  -4.637  1.00  0.00    -0.273 OA
ATOM     46  N   UNL     1     -11.006  -3.584  -2.766  1.00  0.00    -0.341 N 
ATOM     47  H   UNL     1     -10.604  -3.166  -1.930  1.00  0.00     0.164 HD
BRANCH  46  48
ATOM     48  C   UNL     1     -10.974  -5.044  -2.871  1.00  0.00     0.196 C 
BRANCH  48  49
ATOM     49  C   UNL     1      -9.531  -5.576  -2.844  1.00  0.00     0.072 C 
BRANCH  49  50
ATOM     50  C   UNL     1      -8.707  -5.081  -4.010  1.00  0.00    -0.045 A 
ATOM     51  C   UNL     1      -8.951  -5.576  -5.299  1.00  0.00     0.007 A 
ATOM     52  C   UNL     1      -7.681  -4.145  -3.823  1.00  0.00     0.007 A 
ATOM     53  C   UNL     1      -8.189  -5.137  -6.381  1.00  0.00     0.046 A 
ATOM     54  C   UNL     1      -6.917  -3.706  -4.906  1.00  0.00     0.046 A 
ATOM     55  C   UNL     1      -7.178  -4.205  -6.177  1.00  0.00     0.115 A 
BRANCH  55  56
ATOM     56  O   UNL     1      -6.454  -3.803  -7.260  1.00  0.00    -0.508 OA
ATOM     57  H   UNL     1      -6.485  -2.834  -7.306  1.00  0.00     0.293 HD
ENDBRANCH  55  56
ENDBRANCH  49  50
ENDBRANCH  48  49
BRANCH  48  58
ATOM     58  C   UNL     1     -11.766  -5.646  -1.702  1.00  0.00     0.326 C 
ATOM     59  O   UNL     1     -11.741  -5.296  -0.533  1.00  0.00    -0.250 OA
BRANCH  58  60
ATOM     60  O   UNL     1     -12.578  -6.670  -2.069  1.00  0.00    -0.480 OA
ATOM     61  H   UNL     1     -12.736  -7.147  -1.225  1.00  0.00     0.296 HD
ENDBRANCH  58  60
ENDBRANCH  48  58
ENDBRANCH  46  48
ENDBRANCH  34  44
ENDBRANCH  32  34
ENDBRANCH  25  30
ENDBRANCH  23  25
ENDBRANCH   2  23
TORSDOF 28
ENDMDL
MODEL 44
REMARK VINA RESULT:    -6.000      2.652      8.273
REMARK INTER + INTRA:         -20.435
REMARK INTER:                 -16.467
REMARK INTRA:                  -3.969
REMARK UNBOUND:                -5.490
REMARK SMILES CCCCCCC[C@H](N)[C@H](O)C(=O)N[C@H](C)C(=O)N(C)[C@H](CC(C)C)C(=O)N[C@@H](Cc1ccc(O)cc1)C(=O)N[C@@H](Cc1ccc(O)cc1)C(=O)O
REMARK SMILES IDX 18 1 17 2 15 3 16 4 14 5 12 6 13 7 10 9 11 10 8 12 9 13 7 16
REMARK SMILES IDX 6 17 5 18 4 19 3 20 2 21 1 22 19 23 20 24 21 25 22 26 23 27
REMARK SMILES IDX 24 28 25 29 26 30 27 31 28 32 29 34 30 35 31 36 32 37 37 38
REMARK SMILES IDX 33 39 36 40 34 41 35 42 38 44 39 45 40 46 41 48 42 49 43 50
REMARK SMILES IDX 44 51 49 52 45 53 48 54 46 55 47 56 50 58 51 59 52 60
REMARK H PARENT 14 8 11 11 9 14 9 15 28 33 35 43 40 47 47 57 52 61
ROOT
ATOM      1  O   UNL     1      -6.543  -3.066  -9.137  1.00  0.00    -0.272 OA
ATOM      2  C   UNL     1      -6.623  -1.845  -8.936  1.00  0.00     0.245 C 
ENDROOT
BRANCH   2   3
ATOM      3  C   UNL     1      -7.200  -1.352  -7.586  1.00  0.00     0.168 C 
ATOM      4  C   UNL     1      -8.423  -0.470  -7.810  1.00  0.00     0.041 C 
BRANCH   3   5
ATOM      5  N   UNL     1      -7.460  -2.402  -6.613  1.00  0.00    -0.342 N 
ATOM      6  C   UNL     1      -7.319  -2.190  -5.258  1.00  0.00     0.251 C 
ATOM      7  O   UNL     1      -6.930  -1.131  -4.776  1.00  0.00    -0.272 OA
ATOM      8  H   UNL     1      -7.755  -3.334  -6.896  1.00  0.00     0.164 HD
BRANCH   6   9
ATOM      9  C   UNL     1      -7.783  -3.390  -4.417  1.00  0.00     0.219 C 
BRANCH   9  10
ATOM     10  O   UNL     1      -7.205  -3.403  -3.106  1.00  0.00    -0.382 OA
ATOM     11  H   UNL     1      -7.747  -2.753  -2.608  1.00  0.00     0.211 HD
ENDBRANCH   9  10
BRANCH   9  12
ATOM     12  C   UNL     1      -9.326  -3.519  -4.339  1.00  0.00     0.089 C 
BRANCH  12  13
ATOM     13  N   UNL     1      -9.927  -2.271  -4.864  1.00  0.00    -0.325 NA
ATOM     14  H   UNL     1      -9.749  -1.511  -4.206  1.00  0.00     0.119 HD
ATOM     15  H   UNL     1     -10.944  -2.376  -4.883  1.00  0.00     0.119 HD
ENDBRANCH  12  13
BRANCH  12  16
ATOM     16  C   UNL     1      -9.941  -4.746  -5.054  1.00  0.00     0.022 C 
BRANCH  16  17
ATOM     17  C   UNL     1      -9.261  -6.115  -4.907  1.00  0.00     0.002 C 
BRANCH  17  18
ATOM     18  C   UNL     1      -9.561  -6.847  -3.601  1.00  0.00     0.000 C 
BRANCH  18  19
ATOM     19  C   UNL     1     -10.972  -6.594  -3.054  1.00  0.00    -0.000 C 
BRANCH  19  20
ATOM     20  C   UNL     1     -11.040  -6.256  -1.562  1.00  0.00    -0.000 C 
BRANCH  20  21
ATOM     21  C   UNL     1      -9.761  -5.599  -1.037  1.00  0.00    -0.003 C 
ATOM     22  C   UNL     1     -10.052  -4.677   0.137  1.00  0.00     0.004 C 
ENDBRANCH  20  21
ENDBRANCH  19  20
ENDBRANCH  18  19
ENDBRANCH  17  18
ENDBRANCH  16  17
ENDBRANCH  12  16
ENDBRANCH   9  12
ENDBRANCH   6   9
ENDBRANCH   3   5
ENDBRANCH   2   3
BRANCH   2  23
ATOM     23  N   UNL     1      -6.089  -0.951  -9.859  1.00  0.00    -0.332 N 
ATOM     24  C   UNL     1      -6.739  -0.560 -11.101  1.00  0.00     0.147 C 
BRANCH  23  25
ATOM     25  C   UNL     1      -4.828  -0.221  -9.554  1.00  0.00     0.174 C 
BRANCH  25  26
ATOM     26  C   UNL     1      -3.756  -1.119  -8.894  1.00  0.00     0.038 C 
BRANCH  26  27
ATOM     27  C   UNL     1      -2.282  -0.683  -9.053  1.00  0.00    -0.015 C 
ATOM     28  C   UNL     1      -1.332  -1.872  -9.191  1.00  0.00     0.007 C 
ATOM     29  C   UNL     1      -2.063   0.314 -10.188  1.00  0.00     0.007 C 
ENDBRANCH  26  27
ENDBRANCH  25  26
BRANCH  25  30
ATOM     30  C   UNL     1      -5.139   1.066  -8.755  1.00  0.00     0.243 C 
ATOM     31  O   UNL     1      -5.855   1.957  -9.210  1.00  0.00    -0.273 OA
ATOM     32  N   UNL     1      -4.560   1.148  -7.515  1.00  0.00    -0.342 N 
ATOM     33  H   UNL     1      -4.097   0.311  -7.151  1.00  0.00     0.164 HD
BRANCH  32  34
ATOM     34  C   UNL     1      -4.722   2.305  -6.630  1.00  0.00     0.175 C 
BRANCH  34  35
ATOM     35  C   UNL     1      -5.909   2.115  -5.673  1.00  0.00     0.070 C 
BRANCH  35  36
ATOM     36  C   UNL     1      -5.987   3.194  -4.617  1.00  0.00    -0.045 A 
ATOM     37  C   UNL     1      -5.858   2.858  -3.260  1.00  0.00     0.007 A 
ATOM     38  C   UNL     1      -6.210   4.531  -4.969  1.00  0.00     0.007 A 
ATOM     39  C   UNL     1      -5.942   3.845  -2.277  1.00  0.00     0.046 A 
ATOM     40  C   UNL     1      -6.296   5.520  -3.986  1.00  0.00     0.046 A 
ATOM     41  C   UNL     1      -6.159   5.167  -2.647  1.00  0.00     0.115 A 
BRANCH  41  42
ATOM     42  O   UNL     1      -6.238   6.099  -1.656  1.00  0.00    -0.508 OA
ATOM     43  H   UNL     1      -5.507   5.947  -1.035  1.00  0.00     0.293 HD
ENDBRANCH  41  42
ENDBRANCH  35  36
ENDBRANCH  34  35
BRANCH  34  44
ATOM     44  C   UNL     1      -3.394   2.514  -5.868  1.00  0.00     0.243 C 
ATOM     45  O   UNL     1      -2.963   1.756  -5.003  1.00  0.00    -0.273 OA
ATOM     46  N   UNL     1      -2.781   3.716  -6.153  1.00  0.00    -0.341 N 
ATOM     47  H   UNL     1      -3.237   4.364  -6.790  1.00  0.00     0.164 HD
BRANCH  46  48
ATOM     48  C   UNL     1      -1.547   4.165  -5.503  1.00  0.00     0.196 C 
BRANCH  48  49
ATOM     49  C   UNL     1      -0.750   5.116  -6.412  1.00  0.00     0.072 C 
BRANCH  49  50
ATOM     50  C   UNL     1      -0.394   4.488  -7.740  1.00  0.00    -0.045 A 
ATOM     51  C   UNL     1      -0.990   4.960  -8.919  1.00  0.00     0.007 A 
ATOM     52  C   UNL     1       0.512   3.422  -7.814  1.00  0.00     0.007 A 
ATOM     53  C   UNL     1      -0.679   4.380 -10.149  1.00  0.00     0.046 A 
ATOM     54  C   UNL     1       0.822   2.840  -9.045  1.00  0.00     0.046 A 
ATOM     55  C   UNL     1       0.224   3.325 -10.203  1.00  0.00     0.115 A 
BRANCH  55  56
ATOM     56  O   UNL     1       0.500   2.785 -11.424  1.00  0.00    -0.508 OA
ATOM     57  H   UNL     1       0.183   3.396 -12.108  1.00  0.00     0.293 HD
ENDBRANCH  55  56
ENDBRANCH  49  50
ENDBRANCH  48  49
BRANCH  48  58
ATOM     58  C   UNL     1      -1.905   4.884  -4.195  1.00  0.00     0.326 C 
ATOM     59  O   UNL     1      -2.027   6.086  -4.021  1.00  0.00    -0.250 OA
BRANCH  58  60
ATOM     60  O   UNL     1      -2.112   4.040  -3.153  1.00  0.00    -0.480 OA
ATOM     61  H   UNL     1      -2.969   3.614  -3.373  1.00  0.00     0.296 HD
ENDBRANCH  58  60
ENDBRANCH  48  58
ENDBRANCH  46  48
ENDBRANCH  34  44
ENDBRANCH  32  34
ENDBRANCH  25  30
ENDBRANCH  23  25
ENDBRANCH   2  23
TORSDOF 28
ENDMDL
MODEL 45
REMARK VINA RESULT:    -5.980      2.884      6.640
REMARK INTER + INTRA:         -20.386
REMARK INTER:                 -15.187
REMARK INTRA:                  -5.199
REMARK UNBOUND:                -5.490
REMARK SMILES CCCCCCC[C@H](N)[C@H](O)C(=O)N[C@H](C)C(=O)N(C)[C@H](CC(C)C)C(=O)N[C@@H](Cc1ccc(O)cc1)C(=O)N[C@@H](Cc1ccc(O)cc1)C(=O)O
REMARK SMILES IDX 18 1 17 2 15 3 16 4 14 5 12 6 13 7 10 9 11 10 8 12 9 13 7 16
REMARK SMILES IDX 6 17 5 18 4 19 3 20 2 21 1 22 19 23 20 24 21 25 22 26 23 27
REMARK SMILES IDX 24 28 25 29 26 30 27 31 28 32 29 34 30 35 31 36 32 37 37 38
REMARK SMILES IDX 33 39 36 40 34 41 35 42 38 44 39 45 40 46 41 48 42 49 43 50
REMARK SMILES IDX 44 51 49 52 45 53 48 54 46 55 47 56 50 58 51 59 52 60
REMARK H PARENT 14 8 11 11 9 14 9 15 28 33 35 43 40 47 47 57 52 61
ROOT
ATOM      1  O   UNL     1      -7.623   0.772  -3.305  1.00  0.00    -0.272 OA
ATOM      2  C   UNL     1      -7.897   1.673  -2.498  1.00  0.00     0.245 C 
ENDROOT
BRANCH   2   3
ATOM      3  C   UNL     1      -6.735   2.436  -1.816  1.00  0.00     0.168 C 
ATOM      4  C   UNL     1      -6.219   1.668  -0.604  1.00  0.00     0.041 C 
BRANCH   3   5
ATOM      5  N   UNL     1      -5.655   2.829  -2.709  1.00  0.00    -0.342 N 
ATOM      6  C   UNL     1      -5.533   4.119  -3.180  1.00  0.00     0.251 C 
ATOM      7  O   UNL     1      -6.334   5.012  -2.923  1.00  0.00    -0.272 OA
ATOM      8  H   UNL     1      -4.949   2.167  -3.020  1.00  0.00     0.164 HD
BRANCH   6   9
ATOM      9  C   UNL     1      -4.244   4.338  -3.987  1.00  0.00     0.219 C 
BRANCH   9  10
ATOM     10  O   UNL     1      -4.493   4.879  -5.291  1.00  0.00    -0.382 OA
ATOM     11  H   UNL     1      -4.802   5.793  -5.106  1.00  0.00     0.211 HD
ENDBRANCH   9  10
BRANCH   9  12
ATOM     12  C   UNL     1      -3.188   5.186  -3.232  1.00  0.00     0.089 C 
BRANCH  12  13
ATOM     13  N   UNL     1      -3.304   4.895  -1.784  1.00  0.00    -0.325 NA
ATOM     14  H   UNL     1      -4.158   4.360  -1.616  1.00  0.00     0.119 HD
ATOM     15  H   UNL     1      -3.436   5.774  -1.279  1.00  0.00     0.119 HD
ENDBRANCH  12  13
BRANCH  12  16
ATOM     16  C   UNL     1      -1.721   5.012  -3.693  1.00  0.00     0.022 C 
BRANCH  16  17
ATOM     17  C   UNL     1      -1.248   3.633  -4.173  1.00  0.00     0.002 C 
BRANCH  17  18
ATOM     18  C   UNL     1      -0.529   3.631  -5.520  1.00  0.00     0.000 C 
BRANCH  18  19
ATOM     19  C   UNL     1      -0.775   4.891  -6.361  1.00  0.00    -0.000 C 
BRANCH  19  20
ATOM     20  C   UNL     1      -1.520   4.657  -7.679  1.00  0.00    -0.000 C 
BRANCH  20  21
ATOM     21  C   UNL     1      -0.582   4.514  -8.881  1.00  0.00    -0.003 C 
ATOM     22  C   UNL     1      -0.976   5.458 -10.006  1.00  0.00     0.004 C 
ENDBRANCH  20  21
ENDBRANCH  19  20
ENDBRANCH  18  19
ENDBRANCH  17  18
ENDBRANCH  16  17
ENDBRANCH  12  16
ENDBRANCH   9  12
ENDBRANCH   6   9
ENDBRANCH   3   5
ENDBRANCH   2   3
BRANCH   2  23
ATOM     23  N   UNL     1      -9.220   2.061  -2.313  1.00  0.00    -0.332 N 
ATOM     24  C   UNL     1      -9.769   3.345  -2.721  1.00  0.00     0.147 C 
BRANCH  23  25
ATOM     25  C   UNL     1     -10.218   1.095  -1.777  1.00  0.00     0.174 C 
BRANCH  25  26
ATOM     26  C   UNL     1      -9.570  -0.058  -0.975  1.00  0.00     0.038 C 
BRANCH  26  27
ATOM     27  C   UNL     1     -10.240  -0.443   0.363  1.00  0.00    -0.015 C 
ATOM     28  C   UNL     1     -10.327  -1.956   0.559  1.00  0.00     0.007 C 
ATOM     29  C   UNL     1      -9.595   0.220   1.578  1.00  0.00     0.007 C 
ENDBRANCH  26  27
ENDBRANCH  25  26
BRANCH  25  30
ATOM     30  C   UNL     1     -11.154   0.614  -2.910  1.00  0.00     0.243 C 
ATOM     31  O   UNL     1     -12.369   0.805  -2.874  1.00  0.00    -0.273 OA
ATOM     32  N   UNL     1     -10.542  -0.041  -3.947  1.00  0.00    -0.342 N 
ATOM     33  H   UNL     1      -9.520  -0.036  -3.973  1.00  0.00     0.164 HD
BRANCH  32  34
ATOM     34  C   UNL     1     -11.274  -0.589  -5.092  1.00  0.00     0.175 C 
BRANCH  34  35
ATOM     35  C   UNL     1     -10.997   0.217  -6.371  1.00  0.00     0.070 C 
BRANCH  35  36
ATOM     36  C   UNL     1      -9.606   0.809  -6.399  1.00  0.00    -0.045 A 
ATOM     37  C   UNL     1      -9.417   2.170  -6.113  1.00  0.00     0.007 A 
ATOM     38  C   UNL     1      -8.496   0.021  -6.729  1.00  0.00     0.007 A 
ATOM     39  C   UNL     1      -8.139   2.728  -6.150  1.00  0.00     0.046 A 
ATOM     40  C   UNL     1      -7.216   0.580  -6.768  1.00  0.00     0.046 A 
ATOM     41  C   UNL     1      -7.050   1.929  -6.476  1.00  0.00     0.115 A 
BRANCH  41  42
ATOM     42  O   UNL     1      -5.818   2.515  -6.504  1.00  0.00    -0.508 OA
ATOM     43  H   UNL     1      -5.593   2.794  -5.601  1.00  0.00     0.293 HD
ENDBRANCH  41  42
ENDBRANCH  35  36
ENDBRANCH  34  35
BRANCH  34  44
ATOM     44  C   UNL     1     -10.876  -2.074  -5.248  1.00  0.00     0.243 C 
ATOM     45  O   UNL     1     -10.915  -2.695  -6.307  1.00  0.00    -0.273 OA
ATOM     46  N   UNL     1     -10.590  -2.695  -4.051  1.00  0.00    -0.341 N 
ATOM     47  H   UNL     1     -10.685  -2.167  -3.186  1.00  0.00     0.164 HD
BRANCH  46  48
ATOM     48  C   UNL     1     -10.254  -4.116  -3.939  1.00  0.00     0.196 C 
BRANCH  48  49
ATOM     49  C   UNL     1      -8.751  -4.317  -3.682  1.00  0.00     0.072 C 
BRANCH  49  50
ATOM     50  C   UNL     1      -7.914  -4.100  -4.922  1.00  0.00    -0.045 A 
ATOM     51  C   UNL     1      -8.072  -4.947  -6.029  1.00  0.00     0.007 A 
ATOM     52  C   UNL     1      -6.961  -3.075  -4.978  1.00  0.00     0.007 A 
ATOM     53  C   UNL     1      -7.296  -4.765  -7.174  1.00  0.00     0.046 A 
ATOM     54  C   UNL     1      -6.183  -2.894  -6.124  1.00  0.00     0.046 A 
ATOM     55  C   UNL     1      -6.358  -3.740  -7.213  1.00  0.00     0.115 A 
BRANCH  55  56
ATOM     56  O   UNL     1      -5.619  -3.598  -8.350  1.00  0.00    -0.508 OA
ATOM     57  H   UNL     1      -6.148  -3.910  -9.101  1.00  0.00     0.293 HD
ENDBRANCH  55  56
ENDBRANCH  49  50
ENDBRANCH  48  49
BRANCH  48  58
ATOM     58  C   UNL     1     -11.060  -4.731  -2.788  1.00  0.00     0.326 C 
ATOM     59  O   UNL     1     -12.248  -5.012  -2.785  1.00  0.00    -0.250 OA
BRANCH  58  60
ATOM     60  O   UNL     1     -10.318  -4.981  -1.680  1.00  0.00    -0.480 OA
ATOM     61  H   UNL     1     -10.818  -4.529  -0.966  1.00  0.00     0.296 HD
ENDBRANCH  58  60
ENDBRANCH  48  58
ENDBRANCH  46  48
ENDBRANCH  34  44
ENDBRANCH  32  34
ENDBRANCH  25  30
ENDBRANCH  23  25
ENDBRANCH   2  23
TORSDOF 28
ENDMDL
MODEL 46
REMARK VINA RESULT:    -5.977      2.234      7.068
REMARK INTER + INTRA:         -20.378
REMARK INTER:                 -16.484
REMARK INTRA:                  -3.893
REMARK UNBOUND:                -5.490
REMARK SMILES CCCCCCC[C@H](N)[C@H](O)C(=O)N[C@H](C)C(=O)N(C)[C@H](CC(C)C)C(=O)N[C@@H](Cc1ccc(O)cc1)C(=O)N[C@@H](Cc1ccc(O)cc1)C(=O)O
REMARK SMILES IDX 18 1 17 2 15 3 16 4 14 5 12 6 13 7 10 9 11 10 8 12 9 13 7 16
REMARK SMILES IDX 6 17 5 18 4 19 3 20 2 21 1 22 19 23 20 24 21 25 22 26 23 27
REMARK SMILES IDX 24 28 25 29 26 30 27 31 28 32 29 34 30 35 31 36 32 37 37 38
REMARK SMILES IDX 33 39 36 40 34 41 35 42 38 44 39 45 40 46 41 48 42 49 43 50
REMARK SMILES IDX 44 51 49 52 45 53 48 54 46 55 47 56 50 58 51 59 52 60
REMARK H PARENT 14 8 11 11 9 14 9 15 28 33 35 43 40 47 47 57 52 61
ROOT
ATOM      1  O   UNL     1      -5.328  -0.956  -6.668  1.00  0.00    -0.272 OA
ATOM      2  C   UNL     1      -5.605  -2.019  -7.244  1.00  0.00     0.245 C 
ENDROOT
BRANCH   2   3
ATOM      3  C   UNL     1      -5.205  -2.182  -8.732  1.00  0.00     0.168 C 
ATOM      4  C   UNL     1      -6.397  -1.919  -9.645  1.00  0.00     0.041 C 
BRANCH   3   5
ATOM      5  N   UNL     1      -4.033  -1.420  -9.136  1.00  0.00    -0.342 N 
ATOM      6  C   UNL     1      -2.780  -1.686  -8.627  1.00  0.00     0.251 C 
ATOM      7  O   UNL     1      -2.564  -2.543  -7.776  1.00  0.00    -0.272 OA
ATOM      8  H   UNL     1      -4.094  -0.660  -9.811  1.00  0.00     0.164 HD
BRANCH   6   9
ATOM      9  C   UNL     1      -1.676  -0.856  -9.301  1.00  0.00     0.219 C 
BRANCH   9  10
ATOM     10  O   UNL     1      -1.658  -1.013 -10.725  1.00  0.00    -0.382 OA
ATOM     11  H   UNL     1      -1.442  -1.963 -10.850  1.00  0.00     0.211 HD
ENDBRANCH   9  10
BRANCH   9  12
ATOM     12  C   UNL     1      -1.720   0.645  -8.913  1.00  0.00     0.089 C 
BRANCH  12  13
ATOM     13  N   UNL     1      -0.947   0.828  -7.664  1.00  0.00    -0.325 NA
ATOM     14  H   UNL     1      -0.588  -0.077  -7.355  1.00  0.00     0.119 HD
ATOM     15  H   UNL     1      -1.582   1.130  -6.922  1.00  0.00     0.119 HD
ENDBRANCH  12  13
BRANCH  12  16
ATOM     16  C   UNL     1      -1.229   1.639  -9.993  1.00  0.00     0.022 C 
BRANCH  16  17
ATOM     17  C   UNL     1       0.276   1.762 -10.266  1.00  0.00     0.002 C 
BRANCH  17  18
ATOM     18  C   UNL     1       0.847   3.170 -10.112  1.00  0.00     0.000 C 
BRANCH  18  19
ATOM     19  C   UNL     1       1.545   3.418  -8.768  1.00  0.00    -0.000 C 
BRANCH  19  20
ATOM     20  C   UNL     1       0.638   3.944  -7.652  1.00  0.00    -0.000 C 
BRANCH  20  21
ATOM     21  C   UNL     1      -0.355   5.003  -8.136  1.00  0.00    -0.003 C 
ATOM     22  C   UNL     1      -1.792   4.542  -7.950  1.00  0.00     0.004 C 
ENDBRANCH  20  21
ENDBRANCH  19  20
ENDBRANCH  18  19
ENDBRANCH  17  18
ENDBRANCH  16  17
ENDBRANCH  12  16
ENDBRANCH   9  12
ENDBRANCH   6   9
ENDBRANCH   3   5
ENDBRANCH   2   3
BRANCH   2  23
ATOM     23  N   UNL     1      -6.150  -3.078  -6.525  1.00  0.00    -0.332 N 
ATOM     24  C   UNL     1      -5.414  -4.267  -6.121  1.00  0.00     0.147 C 
BRANCH  23  25
ATOM     25  C   UNL     1      -7.540  -2.992  -6.000  1.00  0.00     0.174 C 
BRANCH  25  26
ATOM     26  C   UNL     1      -8.509  -3.974  -6.700  1.00  0.00     0.038 C 
BRANCH  26  27
ATOM     27  C   UNL     1      -9.786  -4.368  -5.925  1.00  0.00    -0.015 C 
ATOM     28  C   UNL     1     -11.020  -4.432  -6.826  1.00  0.00     0.007 C 
ATOM     29  C   UNL     1      -9.637  -5.661  -5.127  1.00  0.00     0.007 C 
ENDBRANCH  26  27
ENDBRANCH  25  26
BRANCH  25  30
ATOM     30  C   UNL     1      -8.024  -1.524  -6.013  1.00  0.00     0.243 C 
ATOM     31  O   UNL     1      -8.553  -1.023  -7.005  1.00  0.00    -0.273 OA
ATOM     32  N   UNL     1      -7.820  -0.822  -4.853  1.00  0.00    -0.342 N 
ATOM     33  H   UNL     1      -7.507  -1.345  -4.032  1.00  0.00     0.164 HD
BRANCH  32  34
ATOM     34  C   UNL     1      -8.191   0.587  -4.694  1.00  0.00     0.175 C 
BRANCH  34  35
ATOM     35  C   UNL     1      -9.529   0.732  -3.952  1.00  0.00     0.070 C 
BRANCH  35  36
ATOM     36  C   UNL     1     -10.108  -0.598  -3.525  1.00  0.00    -0.045 A 
ATOM     37  C   UNL     1     -11.246  -1.107  -4.170  1.00  0.00     0.007 A 
ATOM     38  C   UNL     1      -9.538  -1.326  -2.473  1.00  0.00     0.007 A 
ATOM     39  C   UNL     1     -11.796  -2.326  -3.774  1.00  0.00     0.046 A 
ATOM     40  C   UNL     1     -10.089  -2.546  -2.075  1.00  0.00     0.046 A 
ATOM     41  C   UNL     1     -11.214  -3.036  -2.731  1.00  0.00     0.115 A 
BRANCH  41  42
ATOM     42  O   UNL     1     -11.784  -4.222  -2.373  1.00  0.00    -0.508 OA
ATOM     43  H   UNL     1     -11.718  -4.831  -3.127  1.00  0.00     0.293 HD
ENDBRANCH  41  42
ENDBRANCH  35  36
ENDBRANCH  34  35
BRANCH  34  44
ATOM     44  C   UNL     1      -7.039   1.303  -3.953  1.00  0.00     0.243 C 
ATOM     45  O   UNL     1      -6.357   0.790  -3.070  1.00  0.00    -0.273 OA
ATOM     46  N   UNL     1      -6.922   2.637  -4.281  1.00  0.00    -0.341 N 
ATOM     47  H   UNL     1      -7.587   3.046  -4.933  1.00  0.00     0.164 HD
BRANCH  46  48
ATOM     48  C   UNL     1      -5.948   3.537  -3.659  1.00  0.00     0.196 C 
BRANCH  48  49
ATOM     49  C   UNL     1      -5.316   4.482  -4.695  1.00  0.00     0.072 C 
BRANCH  49  50
ATOM     50  C   UNL     1      -3.810   4.541  -4.586  1.00  0.00    -0.045 A 
ATOM     51  C   UNL     1      -3.075   3.360  -4.408  1.00  0.00     0.007 A 
ATOM     52  C   UNL     1      -3.131   5.765  -4.638  1.00  0.00     0.007 A 
ATOM     53  C   UNL     1      -1.685   3.404  -4.292  1.00  0.00     0.046 A 
ATOM     54  C   UNL     1      -1.740   5.809  -4.521  1.00  0.00     0.046 A 
ATOM     55  C   UNL     1      -1.028   4.627  -4.350  1.00  0.00     0.115 A 
BRANCH  55  56
ATOM     56  O   UNL     1       0.330   4.626  -4.231  1.00  0.00    -0.508 OA
ATOM     57  H   UNL     1       0.715   4.598  -5.121  1.00  0.00     0.293 HD
ENDBRANCH  55  56
ENDBRANCH  49  50
ENDBRANCH  48  49
BRANCH  48  58
ATOM     58  C   UNL     1      -6.654   4.363  -2.573  1.00  0.00     0.326 C 
ATOM     59  O   UNL     1      -7.474   5.251  -2.737  1.00  0.00    -0.250 OA
BRANCH  58  60
ATOM     60  O   UNL     1      -6.298   4.014  -1.311  1.00  0.00    -0.480 OA
ATOM     61  H   UNL     1      -7.010   4.405  -0.760  1.00  0.00     0.296 HD
ENDBRANCH  58  60
ENDBRANCH  48  58
ENDBRANCH  46  48
ENDBRANCH  34  44
ENDBRANCH  32  34
ENDBRANCH  25  30
ENDBRANCH  23  25
ENDBRANCH   2  23
TORSDOF 28
ENDMDL
MODEL 47
REMARK VINA RESULT:    -5.929      3.577      8.747
REMARK INTER + INTRA:         -20.258
REMARK INTER:                 -15.768
REMARK INTRA:                  -4.489
REMARK UNBOUND:                -5.490
REMARK SMILES CCCCCCC[C@H](N)[C@H](O)C(=O)N[C@H](C)C(=O)N(C)[C@H](CC(C)C)C(=O)N[C@@H](Cc1ccc(O)cc1)C(=O)N[C@@H](Cc1ccc(O)cc1)C(=O)O
REMARK SMILES IDX 18 1 17 2 15 3 16 4 14 5 12 6 13 7 10 9 11 10 8 12 9 13 7 16
REMARK SMILES IDX 6 17 5 18 4 19 3 20 2 21 1 22 19 23 20 24 21 25 22 26 23 27
REMARK SMILES IDX 24 28 25 29 26 30 27 31 28 32 29 34 30 35 31 36 32 37 37 38
REMARK SMILES IDX 33 39 36 40 34 41 35 42 38 44 39 45 40 46 41 48 42 49 43 50
REMARK SMILES IDX 44 51 49 52 45 53 48 54 46 55 47 56 50 58 51 59 52 60
REMARK H PARENT 14 8 11 11 9 14 9 15 28 33 35 43 40 47 47 57 52 61
ROOT
ATOM      1  O   UNL     1      -5.953   1.944  -2.326  1.00  0.00    -0.272 OA
ATOM      2  C   UNL     1      -6.795   2.445  -3.085  1.00  0.00     0.245 C 
ENDROOT
BRANCH   2   3
ATOM      3  C   UNL     1      -6.826   3.986  -3.242  1.00  0.00     0.168 C 
ATOM      4  C   UNL     1      -7.331   4.651  -1.966  1.00  0.00     0.041 C 
BRANCH   3   5
ATOM      5  N   UNL     1      -5.581   4.578  -3.706  1.00  0.00    -0.342 N 
ATOM      6  C   UNL     1      -4.586   4.958  -2.830  1.00  0.00     0.251 C 
ATOM      7  O   UNL     1      -4.686   4.867  -1.611  1.00  0.00    -0.272 OA
ATOM      8  H   UNL     1      -5.397   4.736  -4.694  1.00  0.00     0.164 HD
BRANCH   6   9
ATOM      9  C   UNL     1      -3.309   5.425  -3.548  1.00  0.00     0.219 C 
BRANCH   9  10
ATOM     10  O   UNL     1      -2.424   6.151  -2.686  1.00  0.00    -0.382 OA
ATOM     11  H   UNL     1      -1.606   5.607  -2.685  1.00  0.00     0.211 HD
ENDBRANCH   9  10
BRANCH   9  12
ATOM     12  C   UNL     1      -2.557   4.272  -4.264  1.00  0.00     0.089 C 
BRANCH  12  13
ATOM     13  N   UNL     1      -3.133   2.986  -3.810  1.00  0.00    -0.325 NA
ATOM     14  H   UNL     1      -3.678   3.143  -2.960  1.00  0.00     0.119 HD
ATOM     15  H   UNL     1      -2.371   2.364  -3.528  1.00  0.00     0.119 HD
ENDBRANCH  12  13
BRANCH  12  16
ATOM     16  C   UNL     1      -2.542   4.331  -5.811  1.00  0.00     0.022 C 
BRANCH  16  17
ATOM     17  C   UNL     1      -2.902   3.071  -6.610  1.00  0.00     0.002 C 
BRANCH  17  18
ATOM     18  C   UNL     1      -1.737   2.427  -7.358  1.00  0.00     0.000 C 
BRANCH  18  19
ATOM     19  C   UNL     1      -0.361   2.982  -6.968  1.00  0.00    -0.000 C 
BRANCH  19  20
ATOM     20  C   UNL     1       0.360   3.764  -8.070  1.00  0.00    -0.000 C 
BRANCH  20  21
ATOM     21  C   UNL     1      -0.225   5.161  -8.295  1.00  0.00    -0.003 C 
ATOM     22  C   UNL     1      -0.964   5.245  -9.622  1.00  0.00     0.004 C 
ENDBRANCH  20  21
ENDBRANCH  19  20
ENDBRANCH  18  19
ENDBRANCH  17  18
ENDBRANCH  16  17
ENDBRANCH  12  16
ENDBRANCH   9  12
ENDBRANCH   6   9
ENDBRANCH   3   5
ENDBRANCH   2   3
BRANCH   2  23
ATOM     23  N   UNL     1      -7.604   1.626  -3.865  1.00  0.00    -0.332 N 
ATOM     24  C   UNL     1      -8.734   0.860  -3.360  1.00  0.00     0.147 C 
BRANCH  23  25
ATOM     25  C   UNL     1      -7.429   1.585  -5.343  1.00  0.00     0.174 C 
BRANCH  25  26
ATOM     26  C   UNL     1      -6.031   1.081  -5.769  1.00  0.00     0.038 C 
BRANCH  26  27
ATOM     27  C   UNL     1      -5.985  -0.108  -6.755  1.00  0.00    -0.015 C 
ATOM     28  C   UNL     1      -6.444  -1.417  -6.112  1.00  0.00     0.007 C 
ATOM     29  C   UNL     1      -6.747   0.149  -8.053  1.00  0.00     0.007 C 
ENDBRANCH  26  27
ENDBRANCH  25  26
BRANCH  25  30
ATOM     30  C   UNL     1      -7.815   2.947  -5.962  1.00  0.00     0.243 C 
ATOM     31  O   UNL     1      -6.978   3.689  -6.475  1.00  0.00    -0.273 OA
ATOM     32  N   UNL     1      -9.145   3.274  -5.897  1.00  0.00    -0.342 N 
ATOM     33  H   UNL     1      -9.796   2.548  -5.586  1.00  0.00     0.164 HD
BRANCH  32  34
ATOM     34  C   UNL     1      -9.687   4.536  -6.408  1.00  0.00     0.175 C 
BRANCH  34  35
ATOM     35  C   UNL     1     -11.022   4.316  -7.137  1.00  0.00     0.070 C 
BRANCH  35  36
ATOM     36  C   UNL     1     -11.282   5.354  -8.205  1.00  0.00    -0.045 A 
ATOM     37  C   UNL     1     -10.413   6.446  -8.350  1.00  0.00     0.007 A 
ATOM     38  C   UNL     1     -12.398   5.254  -9.047  1.00  0.00     0.007 A 
ATOM     39  C   UNL     1     -10.653   7.415  -9.324  1.00  0.00     0.046 A 
ATOM     40  C   UNL     1     -12.639   6.226 -10.022  1.00  0.00     0.046 A 
ATOM     41  C   UNL     1     -11.763   7.297 -10.152  1.00  0.00     0.115 A 
BRANCH  41  42
ATOM     42  O   UNL     1     -11.962   8.268 -11.089  1.00  0.00    -0.508 OA
ATOM     43  H   UNL     1     -12.473   7.884 -11.821  1.00  0.00     0.293 HD
ENDBRANCH  41  42
ENDBRANCH  35  36
ENDBRANCH  34  35
BRANCH  34  44
ATOM     44  C   UNL     1      -9.832   5.511  -5.218  1.00  0.00     0.243 C 
ATOM     45  O   UNL     1      -9.015   6.381  -4.930  1.00  0.00    -0.273 OA
ATOM     46  N   UNL     1     -10.916   5.235  -4.412  1.00  0.00    -0.341 N 
ATOM     47  H   UNL     1     -11.499   4.430  -4.626  1.00  0.00     0.164 HD
BRANCH  46  48
ATOM     48  C   UNL     1     -11.220   5.981  -3.188  1.00  0.00     0.196 C 
BRANCH  48  49
ATOM     49  C   UNL     1     -12.660   6.522  -3.205  1.00  0.00     0.072 C 
BRANCH  49  50
ATOM     50  C   UNL     1     -13.048   7.099  -4.547  1.00  0.00    -0.045 A 
ATOM     51  C   UNL     1     -12.297   8.145  -5.102  1.00  0.00     0.007 A 
ATOM     52  C   UNL     1     -14.166   6.619  -5.242  1.00  0.00     0.007 A 
ATOM     53  C   UNL     1     -12.654   8.695  -6.333  1.00  0.00     0.046 A 
ATOM     54  C   UNL     1     -14.524   7.170  -6.474  1.00  0.00     0.046 A 
ATOM     55  C   UNL     1     -13.764   8.203  -7.010  1.00  0.00     0.115 A 
BRANCH  55  56
ATOM     56  O   UNL     1     -14.080   8.769  -8.210  1.00  0.00    -0.508 OA
ATOM     57  H   UNL     1     -13.568   8.323  -8.903  1.00  0.00     0.293 HD
ENDBRANCH  55  56
ENDBRANCH  49  50
ENDBRANCH  48  49
BRANCH  48  58
ATOM     58  C   UNL     1     -11.033   5.053  -1.979  1.00  0.00     0.326 C 
ATOM     59  O   UNL     1     -10.804   3.855  -1.996  1.00  0.00    -0.250 OA
BRANCH  58  60
ATOM     60  O   UNL     1     -11.129   5.693  -0.786  1.00  0.00    -0.480 OA
ATOM     61  H   UNL     1     -10.247   6.112  -0.683  1.00  0.00     0.296 HD
ENDBRANCH  58  60
ENDBRANCH  48  58
ENDBRANCH  46  48
ENDBRANCH  34  44
ENDBRANCH  32  34
ENDBRANCH  25  30
ENDBRANCH  23  25
ENDBRANCH   2  23
TORSDOF 28
ENDMDL
MODEL 48
REMARK VINA RESULT:    -5.926      2.610      8.044
REMARK INTER + INTRA:         -20.251
REMARK INTER:                 -16.863
REMARK INTRA:                  -3.388
REMARK UNBOUND:                -5.490
REMARK SMILES CCCCCCC[C@H](N)[C@H](O)C(=O)N[C@H](C)C(=O)N(C)[C@H](CC(C)C)C(=O)N[C@@H](Cc1ccc(O)cc1)C(=O)N[C@@H](Cc1ccc(O)cc1)C(=O)O
REMARK SMILES IDX 18 1 17 2 15 3 16 4 14 5 12 6 13 7 10 9 11 10 8 12 9 13 7 16
REMARK SMILES IDX 6 17 5 18 4 19 3 20 2 21 1 22 19 23 20 24 21 25 22 26 23 27
REMARK SMILES IDX 24 28 25 29 26 30 27 31 28 32 29 34 30 35 31 36 32 37 37 38
REMARK SMILES IDX 33 39 36 40 34 41 35 42 38 44 39 45 40 46 41 48 42 49 43 50
REMARK SMILES IDX 44 51 49 52 45 53 48 54 46 55 47 56 50 58 51 59 52 60
REMARK H PARENT 14 8 11 11 9 14 9 15 28 33 35 43 40 47 47 57 52 61
ROOT
ATOM      1  O   UNL     1      -9.135   2.337  -4.445  1.00  0.00    -0.272 OA
ATOM      2  C   UNL     1      -8.163   1.567  -4.423  1.00  0.00     0.245 C 
ENDROOT
BRANCH   2   3
ATOM      3  C   UNL     1      -8.419   0.056  -4.198  1.00  0.00     0.168 C 
ATOM      4  C   UNL     1      -9.907  -0.219  -4.012  1.00  0.00     0.041 C 
BRANCH   3   5
ATOM      5  N   UNL     1      -7.827  -0.819  -5.198  1.00  0.00    -0.342 N 
ATOM      6  C   UNL     1      -7.335  -2.066  -4.874  1.00  0.00     0.251 C 
ATOM      7  O   UNL     1      -7.320  -2.511  -3.732  1.00  0.00    -0.272 OA
ATOM      8  H   UNL     1      -7.752  -0.544  -6.175  1.00  0.00     0.164 HD
BRANCH   6   9
ATOM      9  C   UNL     1      -6.890  -2.868  -6.108  1.00  0.00     0.219 C 
BRANCH   9  10
ATOM     10  O   UNL     1      -6.090  -4.007  -5.767  1.00  0.00    -0.382 OA
ATOM     11  H   UNL     1      -5.197  -3.626  -5.617  1.00  0.00     0.211 HD
ENDBRANCH   9  10
BRANCH   9  12
ATOM     12  C   UNL     1      -8.070  -3.278  -7.026  1.00  0.00     0.089 C 
BRANCH  12  13
ATOM     13  N   UNL     1      -7.569  -4.248  -8.026  1.00  0.00    -0.325 NA
ATOM     14  H   UNL     1      -6.553  -4.323  -7.942  1.00  0.00     0.119 HD
ATOM     15  H   UNL     1      -7.731  -3.872  -8.963  1.00  0.00     0.119 HD
ENDBRANCH  12  13
BRANCH  12  16
ATOM     16  C   UNL     1      -9.319  -3.849  -6.312  1.00  0.00     0.022 C 
BRANCH  16  17
ATOM     17  C   UNL     1      -9.329  -5.325  -5.891  1.00  0.00     0.002 C 
BRANCH  17  18
ATOM     18  C   UNL     1      -9.193  -5.568  -4.389  1.00  0.00     0.000 C 
BRANCH  18  19
ATOM     19  C   UNL     1      -9.631  -6.968  -3.941  1.00  0.00    -0.000 C 
BRANCH  19  20
ATOM     20  C   UNL     1      -9.802  -7.143  -2.429  1.00  0.00    -0.000 C 
BRANCH  20  21
ATOM     21  C   UNL     1      -8.470  -7.224  -1.680  1.00  0.00    -0.003 C 
ATOM     22  C   UNL     1      -8.660  -7.013  -0.186  1.00  0.00     0.004 C 
ENDBRANCH  20  21
ENDBRANCH  19  20
ENDBRANCH  18  19
ENDBRANCH  17  18
ENDBRANCH  16  17
ENDBRANCH  12  16
ENDBRANCH   9  12
ENDBRANCH   6   9
ENDBRANCH   3   5
ENDBRANCH   2   3
BRANCH   2  23
ATOM     23  N   UNL     1      -6.890   2.045  -4.717  1.00  0.00    -0.332 N 
ATOM     24  C   UNL     1      -5.817   2.189  -3.746  1.00  0.00     0.147 C 
BRANCH  23  25
ATOM     25  C   UNL     1      -6.503   2.330  -6.126  1.00  0.00     0.174 C 
BRANCH  25  26
ATOM     26  C   UNL     1      -7.697   2.258  -7.106  1.00  0.00     0.038 C 
BRANCH  26  27
ATOM     27  C   UNL     1      -7.584   1.256  -8.276  1.00  0.00    -0.015 C 
ATOM     28  C   UNL     1      -8.808   0.346  -8.387  1.00  0.00     0.007 C 
ATOM     29  C   UNL     1      -7.286   1.920  -9.618  1.00  0.00     0.007 C 
ENDBRANCH  26  27
ENDBRANCH  25  26
BRANCH  25  30
ATOM     30  C   UNL     1      -5.307   1.441  -6.539  1.00  0.00     0.243 C 
ATOM     31  O   UNL     1      -5.167   0.298  -6.106  1.00  0.00    -0.273 OA
ATOM     32  N   UNL     1      -4.415   2.012  -7.410  1.00  0.00    -0.342 N 
ATOM     33  H   UNL     1      -4.674   2.907  -7.833  1.00  0.00     0.164 HD
BRANCH  32  34
ATOM     34  C   UNL     1      -3.210   1.328  -7.887  1.00  0.00     0.175 C 
BRANCH  34  35
ATOM     35  C   UNL     1      -3.561   0.194  -8.862  1.00  0.00     0.070 C 
BRANCH  35  36
ATOM     36  C   UNL     1      -2.526  -0.909  -8.872  1.00  0.00    -0.045 A 
ATOM     37  C   UNL     1      -2.146  -1.525  -7.671  1.00  0.00     0.007 A 
ATOM     38  C   UNL     1      -1.919  -1.314 -10.068  1.00  0.00     0.007 A 
ATOM     39  C   UNL     1      -1.182  -2.534  -7.668  1.00  0.00     0.046 A 
ATOM     40  C   UNL     1      -0.953  -2.323 -10.067  1.00  0.00     0.046 A 
ATOM     41  C   UNL     1      -0.594  -2.925  -8.865  1.00  0.00     0.115 A 
BRANCH  41  42
ATOM     42  O   UNL     1       0.346  -3.912  -8.819  1.00  0.00    -0.508 OA
ATOM     43  H   UNL     1       0.580  -4.152  -9.731  1.00  0.00     0.293 HD
ENDBRANCH  41  42
ENDBRANCH  35  36
ENDBRANCH  34  35
BRANCH  34  44
ATOM     44  C   UNL     1      -2.287   2.383  -8.537  1.00  0.00     0.243 C 
ATOM     45  O   UNL     1      -2.333   2.711  -9.720  1.00  0.00    -0.273 OA
ATOM     46  N   UNL     1      -1.300   2.844  -7.692  1.00  0.00    -0.341 N 
ATOM     47  H   UNL     1      -1.231   2.455  -6.755  1.00  0.00     0.164 HD
BRANCH  46  48
ATOM     48  C   UNL     1      -0.266   3.796  -8.104  1.00  0.00     0.196 C 
BRANCH  48  49
ATOM     49  C   UNL     1      -0.271   5.048  -7.211  1.00  0.00     0.072 C 
BRANCH  49  50
ATOM     50  C   UNL     1      -1.107   4.871  -5.964  1.00  0.00    -0.045 A 
ATOM     51  C   UNL     1      -2.447   5.286  -5.956  1.00  0.00     0.007 A 
ATOM     52  C   UNL     1      -0.559   4.314  -4.801  1.00  0.00     0.007 A 
ATOM     53  C   UNL     1      -3.225   5.139  -4.808  1.00  0.00     0.046 A 
ATOM     54  C   UNL     1      -1.338   4.168  -3.651  1.00  0.00     0.046 A 
ATOM     55  C   UNL     1      -2.665   4.581  -3.665  1.00  0.00     0.115 A 
BRANCH  55  56
ATOM     56  O   UNL     1      -3.459   4.457  -2.563  1.00  0.00    -0.508 OA
ATOM     57  H   UNL     1      -2.890   4.436  -1.777  1.00  0.00     0.293 HD
ENDBRANCH  55  56
ENDBRANCH  49  50
ENDBRANCH  48  49
BRANCH  48  58
ATOM     58  C   UNL     1       1.105   3.111  -8.023  1.00  0.00     0.326 C 
ATOM     59  O   UNL     1       2.031   3.216  -8.810  1.00  0.00    -0.250 OA
BRANCH  58  60
ATOM     60  O   UNL     1       1.253   2.324  -6.927  1.00  0.00    -0.480 OA
ATOM     61  H   UNL     1       0.818   2.842  -6.216  1.00  0.00     0.296 HD
ENDBRANCH  58  60
ENDBRANCH  48  58
ENDBRANCH  46  48
ENDBRANCH  34  44
ENDBRANCH  32  34
ENDBRANCH  25  30
ENDBRANCH  23  25
ENDBRANCH   2  23
TORSDOF 28
ENDMDL
MODEL 49
REMARK VINA RESULT:    -5.899      2.872      7.702
REMARK INTER + INTRA:         -20.184
REMARK INTER:                 -15.221
REMARK INTRA:                  -4.963
REMARK UNBOUND:                -5.490
REMARK SMILES CCCCCCC[C@H](N)[C@H](O)C(=O)N[C@H](C)C(=O)N(C)[C@H](CC(C)C)C(=O)N[C@@H](Cc1ccc(O)cc1)C(=O)N[C@@H](Cc1ccc(O)cc1)C(=O)O
REMARK SMILES IDX 18 1 17 2 15 3 16 4 14 5 12 6 13 7 10 9 11 10 8 12 9 13 7 16
REMARK SMILES IDX 6 17 5 18 4 19 3 20 2 21 1 22 19 23 20 24 21 25 22 26 23 27
REMARK SMILES IDX 24 28 25 29 26 30 27 31 28 32 29 34 30 35 31 36 32 37 37 38
REMARK SMILES IDX 33 39 36 40 34 41 35 42 38 44 39 45 40 46 41 48 42 49 43 50
REMARK SMILES IDX 44 51 49 52 45 53 48 54 46 55 47 56 50 58 51 59 52 60
REMARK H PARENT 14 8 11 11 9 14 9 15 28 33 35 43 40 47 47 57 52 61
ROOT
ATOM      1  O   UNL     1      -6.076   1.895  -3.472  1.00  0.00    -0.272 OA
ATOM      2  C   UNL     1      -6.756   2.825  -3.929  1.00  0.00     0.245 C 
ENDROOT
BRANCH   2   3
ATOM      3  C   UNL     1      -6.459   4.267  -3.446  1.00  0.00     0.168 C 
ATOM      4  C   UNL     1      -7.347   4.635  -2.262  1.00  0.00     0.041 C 
BRANCH   3   5
ATOM      5  N   UNL     1      -5.057   4.545  -3.180  1.00  0.00    -0.342 N 
ATOM      6  C   UNL     1      -4.178   4.884  -4.186  1.00  0.00     0.251 C 
ATOM      7  O   UNL     1      -4.493   4.936  -5.371  1.00  0.00    -0.272 OA
ATOM      8  H   UNL     1      -4.670   4.500  -2.240  1.00  0.00     0.164 HD
BRANCH   6   9
ATOM      9  C   UNL     1      -2.788   5.273  -3.656  1.00  0.00     0.219 C 
BRANCH   9  10
ATOM     10  O   UNL     1      -2.827   5.763  -2.311  1.00  0.00    -0.382 OA
ATOM     11  H   UNL     1      -3.525   5.218  -1.886  1.00  0.00     0.211 HD
ENDBRANCH   9  10
BRANCH   9  12
ATOM     12  C   UNL     1      -1.743   4.136  -3.798  1.00  0.00     0.089 C 
BRANCH  12  13
ATOM     13  N   UNL     1      -2.466   2.853  -3.960  1.00  0.00    -0.325 NA
ATOM     14  H   UNL     1      -2.157   2.200  -3.238  1.00  0.00     0.119 HD
ATOM     15  H   UNL     1      -2.186   2.425  -4.845  1.00  0.00     0.119 HD
ENDBRANCH  12  13
BRANCH  12  16
ATOM     16  C   UNL     1      -0.704   4.307  -4.931  1.00  0.00     0.022 C 
BRANCH  16  17
ATOM     17  C   UNL     1      -0.108   3.057  -5.594  1.00  0.00     0.002 C 
BRANCH  17  18
ATOM     18  C   UNL     1      -0.277   2.988  -7.110  1.00  0.00     0.000 C 
BRANCH  18  19
ATOM     19  C   UNL     1      -1.587   3.603  -7.621  1.00  0.00    -0.000 C 
BRANCH  19  20
ATOM     20  C   UNL     1      -2.818   2.699  -7.506  1.00  0.00    -0.000 C 
BRANCH  20  21
ATOM     21  C   UNL     1      -2.477   1.209  -7.586  1.00  0.00    -0.003 C 
ATOM     22  C   UNL     1      -3.728   0.349  -7.510  1.00  0.00     0.004 C 
ENDBRANCH  20  21
ENDBRANCH  19  20
ENDBRANCH  18  19
ENDBRANCH  17  18
ENDBRANCH  16  17
ENDBRANCH  12  16
ENDBRANCH   9  12
ENDBRANCH   6   9
ENDBRANCH   3   5
ENDBRANCH   2   3
BRANCH   2  23
ATOM     23  N   UNL     1      -7.677   2.581  -4.942  1.00  0.00    -0.332 N 
ATOM     24  C   UNL     1      -8.045   3.540  -5.973  1.00  0.00     0.147 C 
BRANCH  23  25
ATOM     25  C   UNL     1      -8.268   1.225  -5.109  1.00  0.00     0.174 C 
BRANCH  25  26
ATOM     26  C   UNL     1      -8.255   0.739  -6.578  1.00  0.00     0.038 C 
BRANCH  26  27
ATOM     27  C   UNL     1      -7.740  -0.694  -6.836  1.00  0.00    -0.015 C 
ATOM     28  C   UNL     1      -7.223  -0.881  -8.262  1.00  0.00     0.007 C 
ATOM     29  C   UNL     1      -6.697  -1.157  -5.822  1.00  0.00     0.007 C 
ENDBRANCH  26  27
ENDBRANCH  25  26
BRANCH  25  30
ATOM     30  C   UNL     1      -9.664   1.168  -4.448  1.00  0.00     0.243 C 
ATOM     31  O   UNL     1      -9.804   0.994  -3.238  1.00  0.00    -0.273 OA
ATOM     32  N   UNL     1     -10.730   1.317  -5.298  1.00  0.00    -0.342 N 
ATOM     33  H   UNL     1     -10.532   1.597  -6.262  1.00  0.00     0.164 HD
BRANCH  32  34
ATOM     34  C   UNL     1     -12.125   1.263  -4.852  1.00  0.00     0.175 C 
BRANCH  34  35
ATOM     35  C   UNL     1     -12.951   2.405  -5.462  1.00  0.00     0.070 C 
BRANCH  35  36
ATOM     36  C   UNL     1     -12.584   3.759  -4.897  1.00  0.00    -0.045 A 
ATOM     37  C   UNL     1     -12.374   3.910  -3.518  1.00  0.00     0.007 A 
ATOM     38  C   UNL     1     -12.470   4.879  -5.730  1.00  0.00     0.007 A 
ATOM     39  C   UNL     1     -12.048   5.158  -2.985  1.00  0.00     0.046 A 
ATOM     40  C   UNL     1     -12.145   6.129  -5.198  1.00  0.00     0.046 A 
ATOM     41  C   UNL     1     -11.935   6.257  -3.829  1.00  0.00     0.115 A 
BRANCH  41  42
ATOM     42  O   UNL     1     -11.618   7.459  -3.268  1.00  0.00    -0.508 OA
ATOM     43  H   UNL     1     -12.106   7.543  -2.432  1.00  0.00     0.293 HD
ENDBRANCH  41  42
ENDBRANCH  35  36
ENDBRANCH  34  35
BRANCH  34  44
ATOM     44  C   UNL     1     -12.694  -0.125  -5.226  1.00  0.00     0.243 C 
ATOM     45  O   UNL     1     -13.530  -0.318  -6.104  1.00  0.00    -0.273 OA
ATOM     46  N   UNL     1     -12.271  -1.135  -4.388  1.00  0.00    -0.341 N 
ATOM     47  H   UNL     1     -11.669  -0.905  -3.602  1.00  0.00     0.164 HD
BRANCH  46  48
ATOM     48  C   UNL     1     -12.730  -2.521  -4.503  1.00  0.00     0.196 C 
BRANCH  48  49
ATOM     49  C   UNL     1     -11.635  -3.511  -4.070  1.00  0.00     0.072 C 
BRANCH  49  50
ATOM     50  C   UNL     1     -10.610  -3.755  -5.154  1.00  0.00    -0.045 A 
ATOM     51  C   UNL     1      -9.332  -4.224  -4.815  1.00  0.00     0.007 A 
ATOM     52  C   UNL     1     -10.908  -3.500  -6.498  1.00  0.00     0.007 A 
ATOM     53  C   UNL     1      -8.374  -4.441  -5.805  1.00  0.00     0.046 A 
ATOM     54  C   UNL     1      -9.948  -3.716  -7.490  1.00  0.00     0.046 A 
ATOM     55  C   UNL     1      -8.688  -4.186  -7.134  1.00  0.00     0.115 A 
BRANCH  55  56
ATOM     56  O   UNL     1      -7.723  -4.409  -8.071  1.00  0.00    -0.508 OA
ATOM     57  H   UNL     1      -7.958  -5.209  -8.568  1.00  0.00     0.293 HD
ENDBRANCH  55  56
ENDBRANCH  49  50
ENDBRANCH  48  49
BRANCH  48  58
ATOM     58  C   UNL     1     -13.972  -2.711  -3.622  1.00  0.00     0.326 C 
ATOM     59  O   UNL     1     -14.302  -2.043  -2.656  1.00  0.00    -0.250 OA
BRANCH  58  60
ATOM     60  O   UNL     1     -14.763  -3.741  -4.016  1.00  0.00    -0.480 OA
ATOM     61  H   UNL     1     -15.526  -3.689  -3.401  1.00  0.00     0.296 HD
ENDBRANCH  58  60
ENDBRANCH  48  58
ENDBRANCH  46  48
ENDBRANCH  34  44
ENDBRANCH  32  34
ENDBRANCH  25  30
ENDBRANCH  23  25
ENDBRANCH   2  23
TORSDOF 28
ENDMDL
MODEL 50
REMARK VINA RESULT:    -5.890      4.015      9.161
REMARK INTER + INTRA:         -20.160
REMARK INTER:                 -16.686
REMARK INTRA:                  -3.474
REMARK UNBOUND:                -5.490
REMARK SMILES CCCCCCC[C@H](N)[C@H](O)C(=O)N[C@H](C)C(=O)N(C)[C@H](CC(C)C)C(=O)N[C@@H](Cc1ccc(O)cc1)C(=O)N[C@@H](Cc1ccc(O)cc1)C(=O)O
REMARK SMILES IDX 18 1 17 2 15 3 16 4 14 5 12 6 13 7 10 9 11 10 8 12 9 13 7 16
REMARK SMILES IDX 6 17 5 18 4 19 3 20 2 21 1 22 19 23 20 24 21 25 22 26 23 27
REMARK SMILES IDX 24 28 25 29 26 30 27 31 28 32 29 34 30 35 31 36 32 37 37 38
REMARK SMILES IDX 33 39 36 40 34 41 35 42 38 44 39 45 40 46 41 48 42 49 43 50
REMARK SMILES IDX 44 51 49 52 45 53 48 54 46 55 47 56 50 58 51 59 52 60
REMARK H PARENT 14 8 11 11 9 14 9 15 28 33 35 43 40 47 47 57 52 61
ROOT
ATOM      1  O   UNL     1      -8.240  -2.076  -3.629  1.00  0.00    -0.272 OA
ATOM      2  C   UNL     1      -8.639  -2.601  -4.679  1.00  0.00     0.245 C 
ENDROOT
BRANCH   2   3
ATOM      3  C   UNL     1      -9.160  -4.058  -4.628  1.00  0.00     0.168 C 
ATOM      4  C   UNL     1      -8.338  -4.960  -5.542  1.00  0.00     0.041 C 
BRANCH   3   5
ATOM      5  N   UNL     1      -9.289  -4.615  -3.291  1.00  0.00    -0.342 N 
ATOM      6  C   UNL     1     -10.222  -5.585  -2.992  1.00  0.00     0.251 C 
ATOM      7  O   UNL     1     -11.032  -6.018  -3.806  1.00  0.00    -0.272 OA
ATOM      8  H   UNL     1      -8.695  -4.309  -2.523  1.00  0.00     0.164 HD
BRANCH   6   9
ATOM      9  C   UNL     1     -10.081  -6.125  -1.560  1.00  0.00     0.219 C 
BRANCH   9  10
ATOM     10  O   UNL     1      -8.964  -5.560  -0.864  1.00  0.00    -0.382 OA
ATOM     11  H   UNL     1      -9.069  -4.593  -1.004  1.00  0.00     0.211 HD
ENDBRANCH   9  10
BRANCH   9  12
ATOM     12  C   UNL     1     -11.380  -5.981  -0.725  1.00  0.00     0.089 C 
BRANCH  12  13
ATOM     13  N   UNL     1     -12.432  -6.816  -1.349  1.00  0.00    -0.325 NA
ATOM     14  H   UNL     1     -13.317  -6.663  -0.861  1.00  0.00     0.119 HD
ATOM     15  H   UNL     1     -12.208  -7.802  -1.193  1.00  0.00     0.119 HD
ENDBRANCH  12  13
BRANCH  12  16
ATOM     16  C   UNL     1     -11.259  -6.318   0.781  1.00  0.00     0.022 C 
BRANCH  16  17
ATOM     17  C   UNL     1     -11.905  -5.380   1.810  1.00  0.00     0.002 C 
BRANCH  17  18
ATOM     18  C   UNL     1     -11.104  -4.119   2.125  1.00  0.00     0.000 C 
BRANCH  18  19
ATOM     19  C   UNL     1      -9.603  -4.366   2.327  1.00  0.00    -0.000 C 
BRANCH  19  20
ATOM     20  C   UNL     1      -9.081  -4.081   3.738  1.00  0.00    -0.000 C 
BRANCH  20  21
ATOM     21  C   UNL     1      -8.590  -5.338   4.461  1.00  0.00    -0.003 C 
ATOM     22  C   UNL     1      -9.744  -6.266   4.806  1.00  0.00     0.004 C 
ENDBRANCH  20  21
ENDBRANCH  19  20
ENDBRANCH  18  19
ENDBRANCH  17  18
ENDBRANCH  16  17
ENDBRANCH  12  16
ENDBRANCH   9  12
ENDBRANCH   6   9
ENDBRANCH   3   5
ENDBRANCH   2   3
BRANCH   2  23
ATOM     23  N   UNL     1      -8.726  -1.846  -5.844  1.00  0.00    -0.332 N 
ATOM     24  C   UNL     1      -9.973  -1.430  -6.467  1.00  0.00     0.147 C 
BRANCH  23  25
ATOM     25  C   UNL     1      -7.496  -1.292  -6.474  1.00  0.00     0.174 C 
BRANCH  25  26
ATOM     26  C   UNL     1      -6.216  -2.065  -6.077  1.00  0.00     0.038 C 
BRANCH  26  27
ATOM     27  C   UNL     1      -5.519  -2.883  -7.187  1.00  0.00    -0.015 C 
ATOM     28  C   UNL     1      -4.868  -4.158  -6.652  1.00  0.00     0.007 C 
ATOM     29  C   UNL     1      -6.431  -3.202  -8.369  1.00  0.00     0.007 C 
ENDBRANCH  26  27
ENDBRANCH  25  26
BRANCH  25  30
ATOM     30  C   UNL     1      -7.407   0.230  -6.220  1.00  0.00     0.243 C 
ATOM     31  O   UNL     1      -7.706   1.052  -7.085  1.00  0.00    -0.273 OA
ATOM     32  N   UNL     1      -6.967   0.599  -4.975  1.00  0.00    -0.342 N 
ATOM     33  H   UNL     1      -6.874  -0.135  -4.268  1.00  0.00     0.164 HD
BRANCH  32  34
ATOM     34  C   UNL     1      -6.795   1.996  -4.567  1.00  0.00     0.175 C 
BRANCH  34  35
ATOM     35  C   UNL     1      -7.575   2.302  -3.279  1.00  0.00     0.070 C 
BRANCH  35  36
ATOM     36  C   UNL     1      -8.715   3.270  -3.502  1.00  0.00    -0.045 A 
ATOM     37  C   UNL     1      -9.300   3.929  -2.409  1.00  0.00     0.007 A 
ATOM     38  C   UNL     1      -9.217   3.506  -4.788  1.00  0.00     0.007 A 
ATOM     39  C   UNL     1     -10.361   4.814  -2.603  1.00  0.00     0.046 A 
ATOM     40  C   UNL     1     -10.280   4.391  -4.983  1.00  0.00     0.046 A 
ATOM     41  C   UNL     1     -10.842   5.038  -3.888  1.00  0.00     0.115 A 
BRANCH  41  42
ATOM     42  O   UNL     1     -11.882   5.907  -4.034  1.00  0.00    -0.508 OA
ATOM     43  H   UNL     1     -12.409   5.626  -4.800  1.00  0.00     0.293 HD
ENDBRANCH  41  42
ENDBRANCH  35  36
ENDBRANCH  34  35
BRANCH  34  44
ATOM     44  C   UNL     1      -5.282   2.264  -4.403  1.00  0.00     0.243 C 
ATOM     45  O   UNL     1      -4.438   1.390  -4.227  1.00  0.00    -0.273 OA
ATOM     46  N   UNL     1      -4.965   3.604  -4.340  1.00  0.00    -0.341 N 
ATOM     47  H   UNL     1      -5.715   4.291  -4.373  1.00  0.00     0.164 HD
BRANCH  46  48
ATOM     48  C   UNL     1      -3.606   4.102  -4.120  1.00  0.00     0.196 C 
BRANCH  48  49
ATOM     49  C   UNL     1      -3.118   4.945  -5.310  1.00  0.00     0.072 C 
BRANCH  49  50
ATOM     50  C   UNL     1      -1.923   4.334  -6.005  1.00  0.00    -0.045 A 
ATOM     51  C   UNL     1      -1.530   4.808  -7.265  1.00  0.00     0.007 A 
ATOM     52  C   UNL     1      -1.209   3.281  -5.420  1.00  0.00     0.007 A 
ATOM     53  C   UNL     1      -0.436   4.243  -7.922  1.00  0.00     0.046 A 
ATOM     54  C   UNL     1      -0.115   2.714  -6.078  1.00  0.00     0.046 A 
ATOM     55  C   UNL     1       0.262   3.202  -7.325  1.00  0.00     0.115 A 
BRANCH  55  56
ATOM     56  O   UNL     1       1.323   2.676  -8.001  1.00  0.00    -0.508 OA
ATOM     57  H   UNL     1       1.515   3.247  -8.761  1.00  0.00     0.293 HD
ENDBRANCH  55  56
ENDBRANCH  49  50
ENDBRANCH  48  49
BRANCH  48  58
ATOM     58  C   UNL     1      -3.586   4.954  -2.843  1.00  0.00     0.326 C 
ATOM     59  O   UNL     1      -4.412   4.958  -1.945  1.00  0.00    -0.250 OA
BRANCH  58  60
ATOM     60  O   UNL     1      -2.501   5.763  -2.749  1.00  0.00    -0.480 OA
ATOM     61  H   UNL     1      -1.774   5.142  -2.527  1.00  0.00     0.296 HD
ENDBRANCH  58  60
ENDBRANCH  48  58
ENDBRANCH  46  48
ENDBRANCH  34  44
ENDBRANCH  32  34
ENDBRANCH  25  30
ENDBRANCH  23  25
ENDBRANCH   2  23
TORSDOF 28
ENDMDL
