MODEL 1
REMARK VINA RESULT:    -7.134      0.000      0.000
REMARK INTER + INTRA:         -29.802
REMARK INTER:                 -21.313
REMARK INTRA:                  -8.489
REMARK UNBOUND:                -8.489
REMARK SMILES C=C1C(=O)N[C@H](C)C(=O)N[C@@H](CC(C)C)C(=O)N[C@@H](C(=O)O)[C@H](C)C(=O)N[C@@H](CCCN=C(N)N)C(=O)N[C@@H](/C=C/C(C)=C/[C@H](C)[C@H](Cc2ccccc2)OC)[C@H](C)C(=O)N[C@@H](C(=O)O)CCC(=O)N1C
REMARK SMILES IDX 39 1 38 2 37 3 36 4 28 6 27 7 25 8 26 9 23 11 24 12 19 13
REMARK SMILES IDX 18 14 16 15 17 16 11 18 10 19 8 20 9 21 12 24 13 25 14 26
REMARK SMILES IDX 15 27 20 28 21 29 22 30 29 32 30 33 31 34 32 35 33 36 34 37
REMARK SMILES IDX 35 38 57 43 58 44 59 45 60 46 61 47 62 49 66 50 67 51 68 52
REMARK SMILES IDX 69 53 70 54 71 55 2 56 1 57 3 58 4 59 5 60 6 62 7 63 63 65
REMARK SMILES IDX 64 66 65 67 40 69 41 70 42 71 44 72 43 73 45 74 46 75 47 76
REMARK SMILES IDX 55 77 56 78 48 79 49 80 50 81 54 82 51 83 53 84 52 85
REMARK H PARENT 38 5 27 10 18 17 10 22 22 31 34 39 34 40 35 41 35 42 61 48
REMARK H PARENT 5 61 65 68
REMARK Flexibility Score:  369.900
ROOT
ATOM      1  C   UNL     1      -3.225   1.417   2.770  1.00  0.00     0.117 C 
ENDROOT
BRANCH   1   2
ATOM      2  N   UNL     1      -3.263   1.649   1.325  1.00  0.00    -0.347 N 
ATOM      3  O   UNL     1      -1.554   3.177   1.209  1.00  0.00    -0.273 OA
ATOM      4  C   UNL     1      -2.361   2.445   0.646  1.00  0.00     0.243 C 
ATOM      5  H   UNL     1      -3.952   1.169   0.766  1.00  0.00     0.164 HD
BRANCH   4   6
ATOM      6  C   UNL     1      -2.570   2.453  -0.890  1.00  0.00     0.171 C 
BRANCH   6   7
ATOM      7  N   UNL     1      -3.712   3.309  -1.249  1.00  0.00    -0.344 N 
ATOM      8  C   UNL     1      -4.700   2.846  -2.092  1.00  0.00     0.226 C 
ATOM      9  O   UNL     1      -4.668   1.730  -2.595  1.00  0.00    -0.275 OA
ATOM     10  H   UNL     1      -3.738   4.261  -0.906  1.00  0.00     0.164 HD
BRANCH   8  11
ATOM     11  C   UNL     1      -5.836   3.827  -2.321  1.00  0.00     0.109 C 
ATOM     12  C   UNL     1      -5.334   5.261  -2.156  1.00  0.00     0.021 C 
BRANCH  11  13
ATOM     13  C   UNL     1      -6.517   3.529  -3.672  1.00  0.00     0.204 C 
BRANCH  13  14
ATOM     14  N   UNL     1      -7.744   2.744  -3.510  1.00  0.00    -0.340 N 
ATOM     15  C   UNL     1      -7.938   1.524  -4.122  1.00  0.00     0.243 C 
ATOM     16  O   UNL     1      -7.069   0.980  -4.800  1.00  0.00    -0.273 OA
ATOM     17  H   UNL     1      -8.556   3.203  -3.090  1.00  0.00     0.164 HD
BRANCH  15  18
ATOM     18  C   UNL     1      -9.381   0.982  -3.976  1.00  0.00     0.171 C 
BRANCH  18  19
ATOM     19  N   UNL     1      -9.774   0.478  -5.291  1.00  0.00    -0.343 N 
ATOM     20  C   UNL     1     -10.503   1.247  -6.178  1.00  0.00     0.242 CG0
ATOM     21  O   UNL     1     -10.968   2.337  -5.854  1.00  0.00    -0.273 OA
ATOM     22  H   UNL     1      -9.512  -0.463  -5.562  1.00  0.00     0.164 HD
ATOM     23  G   UNL     1     -10.754   0.576  -7.544  1.00  0.00     0.000 G0
ENDBRANCH  18  19
BRANCH  18  24
ATOM     24  C   UNL     1      -9.441  -0.120  -2.911  1.00  0.00     0.038 C 
BRANCH  24  25
ATOM     25  C   UNL     1     -10.768  -0.186  -2.126  1.00  0.00    -0.015 C 
ATOM     26  C   UNL     1     -11.921  -0.730  -2.970  1.00  0.00     0.007 C 
ATOM     27  C   UNL     1     -11.126   1.207  -1.602  1.00  0.00     0.007 C 
ENDBRANCH  24  25
ENDBRANCH  18  24
ENDBRANCH  15  18
ENDBRANCH  13  14
BRANCH  13  28
ATOM     28  C   UNL     1      -6.887   4.794  -4.453  1.00  0.00     0.327 C 
ATOM     29  O   UNL     1      -7.836   5.529  -4.230  1.00  0.00    -0.250 OA
BRANCH  28  30
ATOM     30  O   UNL     1      -6.111   4.991  -5.538  1.00  0.00    -0.480 OA
ATOM     31  H   UNL     1      -6.001   4.097  -5.922  1.00  0.00     0.296 HD
ENDBRANCH  28  30
ENDBRANCH  13  28
ENDBRANCH  11  13
ENDBRANCH   8  11
ENDBRANCH   6   7
BRANCH   6  32
ATOM     32  C   UNL     1      -1.286   2.940  -1.570  1.00  0.00     0.037 C 
BRANCH  32  33
ATOM     33  C   UNL     1      -1.406   4.388  -2.065  1.00  0.00     0.026 C 
BRANCH  33  34
ATOM     34  C   UNL     1      -1.443   4.484  -3.591  1.00  0.00     0.146 C 
BRANCH  34  35
ATOM     35  N   UNL     1      -2.272   3.404  -4.109  1.00  0.00    -0.254 NA
ATOM     36  C   UNL     1      -2.962   3.614  -5.168  1.00  0.00     0.185 C 
ATOM     37  N   UNL     1      -3.725   2.625  -5.658  1.00  0.00    -0.370 N 
ATOM     38  N   UNL     1      -3.049   4.731  -5.912  1.00  0.00    -0.370 N 
ATOM     39  H   UNL     1      -3.705   1.745  -5.157  1.00  0.00     0.159 HD
ATOM     40  H   UNL     1      -4.154   2.651  -6.567  1.00  0.00     0.159 HD
ATOM     41  H   UNL     1      -3.735   4.817  -6.645  1.00  0.00     0.159 HD
ATOM     42  H   UNL     1      -2.540   5.561  -5.653  1.00  0.00     0.159 HD
ENDBRANCH  34  35
ENDBRANCH  33  34
ENDBRANCH  32  33
ENDBRANCH   6  32
ENDBRANCH   4   6
ENDBRANCH   1   2
BRANCH   1  43
ATOM     43  C   UNL     1      -3.062  -0.110   3.022  1.00  0.00     0.102 C 
ATOM     44  C   UNL     1      -3.434  -0.537   4.452  1.00  0.00     0.020 C 
BRANCH  43  45
ATOM     45  C   UNL     1      -1.684  -0.599   2.567  1.00  0.00     0.225 C 
ATOM     46  O   UNL     1      -1.432  -1.778   2.337  1.00  0.00    -0.275 OA
ATOM     47  N   UNL     1      -0.701   0.363   2.518  1.00  0.00    -0.342 N 
ATOM     48  H   UNL     1      -0.954   1.340   2.560  1.00  0.00     0.164 HD
BRANCH  47  49
ATOM     49  C   UNL     1       0.658   0.048   2.066  1.00  0.00     0.192 C 
BRANCH  49  50
ATOM     50  C   UNL     1       1.577  -0.123   3.278  1.00  0.00     0.047 C 
BRANCH  50  51
ATOM     51  C   UNL     1       0.822   0.027   4.606  1.00  0.00     0.103 C 
BRANCH  51  52
ATOM     52  C   UNL     1       0.995   1.419   5.210  1.00  0.00     0.226 C 
ATOM     53  O   UNL     1       1.915   2.142   4.823  1.00  0.00    -0.275 OA
BRANCH  52  54
ATOM     54  N   UNL     1       0.020   1.824   6.140  1.00  0.00    -0.311 N 
ATOM     55  C   UNL     1      -1.357   2.110   5.716  1.00  0.00     0.153 C 
BRANCH  54  56
ATOM     56  C   UNL     1       0.323   1.964   7.505  1.00  0.00     0.102 C 
ATOM     57  C   UNL     1       1.200   1.202   8.179  1.00  0.00     0.043 C 
BRANCH  56  58
ATOM     58  C   UNL     1      -0.311   3.058   8.331  1.00  0.00     0.268 C 
ATOM     59  O   UNL     1      -1.260   2.867   9.080  1.00  0.00    -0.268 OA
ATOM     60  N   UNL     1       0.328   4.269   8.205  1.00  0.00    -0.339 N 
ATOM     61  H   UNL     1       1.101   4.347   7.555  1.00  0.00     0.164 HD
BRANCH  60  62
ATOM     62  C   UNL     1      -0.083   5.449   8.965  1.00  0.00     0.168 CG0
ATOM     63  C   UNL     1      -1.142   6.243   8.211  1.00  0.00     0.041 C 
ATOM     64  G   UNL     1       1.149   6.327   9.263  1.00  0.00     0.000 G0
ENDBRANCH  60  62
ENDBRANCH  56  58
ENDBRANCH  54  56
ENDBRANCH  52  54
ENDBRANCH  51  52
ENDBRANCH  50  51
ENDBRANCH  49  50
BRANCH  49  65
ATOM     65  C   UNL     1       1.220   1.148   1.152  1.00  0.00     0.326 C 
ATOM     66  O   UNL     1       1.548   1.002  -0.017  1.00  0.00    -0.250 OA
BRANCH  65  67
ATOM     67  O   UNL     1       1.399   2.344   1.754  1.00  0.00    -0.480 OA
ATOM     68  H   UNL     1       2.211   2.697   1.330  1.00  0.00     0.296 HD
ENDBRANCH  65  67
ENDBRANCH  49  65
ENDBRANCH  47  49
ENDBRANCH  43  45
ENDBRANCH   1  43
BRANCH   1  69
ATOM     69  C   UNL     1      -4.435   2.130   3.346  1.00  0.00    -0.001 C 
ATOM     70  C   UNL     1      -5.043   3.227   2.861  1.00  0.00     0.001 C 
BRANCH  70  71
ATOM     71  C   UNL     1      -6.224   3.895   3.414  1.00  0.00    -0.055 C 
ATOM     72  C   UNL     1      -7.366   3.181   3.499  1.00  0.00    -0.018 C 
ATOM     73  C   UNL     1      -6.078   5.327   3.857  1.00  0.00     0.044 C 
BRANCH  72  74
ATOM     74  C   UNL     1      -8.730   3.605   4.026  1.00  0.00     0.038 C 
ATOM     75  C   UNL     1      -8.789   3.202   5.504  1.00  0.00     0.015 C 
BRANCH  74  76
ATOM     76  C   UNL     1      -9.833   2.968   3.130  1.00  0.00     0.128 C 
BRANCH  76  77
ATOM     77  O   UNL     1     -11.097   3.604   3.382  1.00  0.00    -0.381 OA
ATOM     78  C   UNL     1     -12.140   2.694   3.707  1.00  0.00     0.195 C 
ENDBRANCH  76  77
BRANCH  76  79
ATOM     79  C   UNL     1      -9.473   2.923   1.624  1.00  0.00     0.068 C 
BRANCH  79  80
ATOM     80  C   UNL     1      -8.722   1.718   1.112  1.00  0.00    -0.045 A 
ATOM     81  C   UNL     1      -8.925   0.449   1.672  1.00  0.00     0.004 A 
ATOM     82  C   UNL     1      -7.782   1.856   0.079  1.00  0.00     0.004 A 
ATOM     83  C   UNL     1      -8.216  -0.658   1.202  1.00  0.00     0.000 A 
ATOM     84  C   UNL     1      -7.073   0.748  -0.389  1.00  0.00     0.000 A 
ATOM     85  C   UNL     1      -7.291  -0.509   0.171  1.00  0.00     0.000 A 
ENDBRANCH  79  80
ENDBRANCH  76  79
ENDBRANCH  74  76
ENDBRANCH  72  74
ENDBRANCH  70  71
ENDBRANCH   1  69
TORSDOF 17
ENDMDL
MODEL 2
REMARK VINA RESULT:    -7.062      2.818      4.771
REMARK INTER + INTRA:         -29.587
REMARK INTER:                 -22.673
REMARK INTRA:                  -6.914
REMARK UNBOUND:                -8.489
REMARK SMILES C=C1C(=O)N[C@H](C)C(=O)N[C@@H](CC(C)C)C(=O)N[C@@H](C(=O)O)[C@H](C)C(=O)N[C@@H](CCCN=C(N)N)C(=O)N[C@@H](/C=C/C(C)=C/[C@H](C)[C@H](Cc2ccccc2)OC)[C@H](C)C(=O)N[C@@H](C(=O)O)CCC(=O)N1C
REMARK SMILES IDX 39 1 38 2 37 3 36 4 28 6 27 7 25 8 26 9 23 11 24 12 19 13
REMARK SMILES IDX 18 14 16 15 17 16 11 18 10 19 8 20 9 21 12 24 13 25 14 26
REMARK SMILES IDX 15 27 20 28 21 29 22 30 29 32 30 33 31 34 32 35 33 36 34 37
REMARK SMILES IDX 35 38 57 43 58 44 59 45 60 46 61 47 62 49 66 50 67 51 68 52
REMARK SMILES IDX 69 53 70 54 71 55 2 56 1 57 3 58 4 59 5 60 6 62 7 63 63 65
REMARK SMILES IDX 64 66 65 67 40 69 41 70 42 71 44 72 43 73 45 74 46 75 47 76
REMARK SMILES IDX 55 77 56 78 48 79 49 80 50 81 54 82 51 83 53 84 52 85
REMARK H PARENT 38 5 27 10 18 17 10 22 22 31 34 39 34 40 35 41 35 42 61 48
REMARK H PARENT 5 61 65 68
REMARK Flexibility Score:  369.900
ROOT
ATOM      1  C   UNL     1      -1.923   4.310  -0.747  1.00  0.00     0.117 C 
ENDROOT
BRANCH   1   2
ATOM      2  N   UNL     1      -2.654   3.509  -1.729  1.00  0.00    -0.347 N 
ATOM      3  O   UNL     1      -4.015   5.171  -2.538  1.00  0.00    -0.273 OA
ATOM      4  C   UNL     1      -3.581   4.027  -2.613  1.00  0.00     0.243 C 
ATOM      5  H   UNL     1      -2.448   2.525  -1.817  1.00  0.00     0.164 HD
BRANCH   4   6
ATOM      6  C   UNL     1      -4.146   2.981  -3.607  1.00  0.00     0.171 C 
BRANCH   6   7
ATOM      7  N   UNL     1      -5.398   3.466  -4.208  1.00  0.00    -0.344 N 
ATOM      8  C   UNL     1      -6.565   2.744  -4.080  1.00  0.00     0.226 C 
ATOM      9  O   UNL     1      -6.617   1.671  -3.492  1.00  0.00    -0.275 OA
ATOM     10  H   UNL     1      -5.381   4.315  -4.760  1.00  0.00     0.164 HD
BRANCH   8  11
ATOM     11  C   UNL     1      -7.781   3.404  -4.708  1.00  0.00     0.109 C 
ATOM     12  C   UNL     1      -7.404   4.774  -5.271  1.00  0.00     0.021 C 
BRANCH  11  13
ATOM     13  C   UNL     1      -8.430   2.442  -5.723  1.00  0.00     0.204 C 
BRANCH  13  14
ATOM     14  N   UNL     1      -7.459   1.503  -6.292  1.00  0.00    -0.340 N 
ATOM     15  C   UNL     1      -7.019   1.580  -7.596  1.00  0.00     0.243 C 
ATOM     16  O   UNL     1      -7.366   2.481  -8.358  1.00  0.00    -0.273 OA
ATOM     17  H   UNL     1      -7.250   0.650  -5.766  1.00  0.00     0.164 HD
BRANCH  15  18
ATOM     18  C   UNL     1      -6.162   0.366  -8.032  1.00  0.00     0.171 C 
BRANCH  18  19
ATOM     19  N   UNL     1      -6.648  -0.037  -9.351  1.00  0.00    -0.343 N 
ATOM     20  C   UNL     1      -7.711  -0.907  -9.501  1.00  0.00     0.242 CG0
ATOM     21  O   UNL     1      -8.210  -1.485  -8.538  1.00  0.00    -0.273 OA
ATOM     22  H   UNL     1      -6.192   0.324 -10.181  1.00  0.00     0.164 HD
ATOM     23  G   UNL     1      -8.130  -1.153 -10.965  1.00  0.00     0.000 G0
ENDBRANCH  18  19
BRANCH  18  24
ATOM     24  C   UNL     1      -4.675   0.740  -8.072  1.00  0.00     0.038 C 
BRANCH  24  25
ATOM     25  C   UNL     1      -4.109   0.982  -9.487  1.00  0.00    -0.015 C 
ATOM     26  C   UNL     1      -2.799   0.231  -9.729  1.00  0.00     0.007 C 
ATOM     27  C   UNL     1      -3.891   2.481  -9.705  1.00  0.00     0.007 C 
ENDBRANCH  24  25
ENDBRANCH  18  24
ENDBRANCH  15  18
ENDBRANCH  13  14
BRANCH  13  28
ATOM     28  C   UNL     1      -9.568   1.610  -5.123  1.00  0.00     0.327 C 
ATOM     29  O   UNL     1      -9.703   0.399  -5.212  1.00  0.00    -0.250 OA
BRANCH  28  30
ATOM     30  O   UNL     1     -10.529   2.364  -4.551  1.00  0.00    -0.480 OA
ATOM     31  H   UNL     1     -11.190   2.493  -5.262  1.00  0.00     0.296 HD
ENDBRANCH  28  30
ENDBRANCH  13  28
ENDBRANCH  11  13
ENDBRANCH   8  11
ENDBRANCH   6   7
BRANCH   6  32
ATOM     32  C   UNL     1      -3.096   2.694  -4.687  1.00  0.00     0.037 C 
BRANCH  32  33
ATOM     33  C   UNL     1      -3.259   3.606  -5.910  1.00  0.00     0.026 C 
BRANCH  33  34
ATOM     34  C   UNL     1      -2.021   4.465  -6.169  1.00  0.00     0.146 C 
BRANCH  34  35
ATOM     35  N   UNL     1      -1.499   4.152  -7.492  1.00  0.00    -0.254 NA
ATOM     36  C   UNL     1      -1.454   5.083  -8.371  1.00  0.00     0.185 C 
ATOM     37  N   UNL     1      -0.971   4.806  -9.592  1.00  0.00    -0.370 N 
ATOM     38  N   UNL     1      -1.835   6.368  -8.261  1.00  0.00    -0.370 N 
ATOM     39  H   UNL     1      -0.653   3.859  -9.750  1.00  0.00     0.159 HD
ATOM     40  H   UNL     1      -0.742   5.511 -10.272  1.00  0.00     0.159 HD
ATOM     41  H   UNL     1      -1.880   6.969  -9.067  1.00  0.00     0.159 HD
ATOM     42  H   UNL     1      -2.233   6.713  -7.401  1.00  0.00     0.159 HD
ENDBRANCH  34  35
ENDBRANCH  33  34
ENDBRANCH  32  33
ENDBRANCH   6  32
ENDBRANCH   4   6
ENDBRANCH   1   2
BRANCH   1  43
ATOM     43  C   UNL     1      -0.441   3.837  -0.726  1.00  0.00     0.102 C 
ATOM     44  C   UNL     1       0.435   4.524  -1.788  1.00  0.00     0.020 C 
BRANCH  43  45
ATOM     45  C   UNL     1      -0.350   2.308  -0.741  1.00  0.00     0.225 C 
ATOM     46  O   UNL     1      -1.337   1.578  -0.739  1.00  0.00    -0.275 OA
ATOM     47  N   UNL     1       0.921   1.789  -0.662  1.00  0.00    -0.342 N 
ATOM     48  H   UNL     1       1.718   2.391  -0.817  1.00  0.00     0.164 HD
BRANCH  47  49
ATOM     49  C   UNL     1       1.163   0.344  -0.702  1.00  0.00     0.192 C 
BRANCH  49  50
ATOM     50  C   UNL     1       2.351  -0.005   0.199  1.00  0.00     0.047 C 
BRANCH  50  51
ATOM     51  C   UNL     1       1.944  -0.895   1.380  1.00  0.00     0.103 C 
BRANCH  51  52
ATOM     52  C   UNL     1       1.629  -0.079   2.632  1.00  0.00     0.226 C 
ATOM     53  O   UNL     1       2.477   0.691   3.088  1.00  0.00    -0.275 OA
BRANCH  52  54
ATOM     54  N   UNL     1       0.329  -0.208   3.154  1.00  0.00    -0.311 N 
ATOM     55  C   UNL     1      -0.846   0.178   2.361  1.00  0.00     0.153 C 
BRANCH  54  56
ATOM     56  C   UNL     1       0.104  -0.715   4.445  1.00  0.00     0.102 C 
ATOM     57  C   UNL     1       0.040  -2.019   4.758  1.00  0.00     0.043 C 
BRANCH  56  58
ATOM     58  C   UNL     1      -0.041   0.214   5.627  1.00  0.00     0.268 C 
ATOM     59  O   UNL     1      -1.123   0.512   6.116  1.00  0.00    -0.268 OA
ATOM     60  N   UNL     1       1.165   0.635   6.135  1.00  0.00    -0.339 N 
ATOM     61  H   UNL     1       2.017   0.352   5.666  1.00  0.00     0.164 HD
BRANCH  60  62
ATOM     62  C   UNL     1       1.256   1.490   7.318  1.00  0.00     0.168 CG0
ATOM     63  C   UNL     1       1.540   2.935   6.929  1.00  0.00     0.041 C 
ATOM     64  G   UNL     1       2.353   0.952   8.261  1.00  0.00     0.000 G0
ENDBRANCH  60  62
ENDBRANCH  56  58
ENDBRANCH  54  56
ENDBRANCH  52  54
ENDBRANCH  51  52
ENDBRANCH  50  51
ENDBRANCH  49  50
BRANCH  49  65
ATOM     65  C   UNL     1       1.447  -0.144  -2.131  1.00  0.00     0.326 C 
ATOM     66  O   UNL     1       1.164  -1.247  -2.575  1.00  0.00    -0.250 OA
BRANCH  65  67
ATOM     67  O   UNL     1       2.117   0.738  -2.905  1.00  0.00    -0.480 OA
ATOM     68  H   UNL     1       2.868   0.213  -3.257  1.00  0.00     0.296 HD
ENDBRANCH  65  67
ENDBRANCH  49  65
ENDBRANCH  47  49
ENDBRANCH  43  45
ENDBRANCH   1  43
BRANCH   1  69
ATOM     69  C   UNL     1      -2.730   4.246   0.537  1.00  0.00    -0.001 C 
ATOM     70  C   UNL     1      -2.497   3.473   1.612  1.00  0.00     0.001 C 
BRANCH  70  71
ATOM     71  C   UNL     1      -3.271   3.436   2.854  1.00  0.00    -0.055 C 
ATOM     72  C   UNL     1      -3.710   4.609   3.355  1.00  0.00    -0.018 C 
ATOM     73  C   UNL     1      -3.531   2.090   3.480  1.00  0.00     0.044 C 
BRANCH  72  74
ATOM     74  C   UNL     1      -4.529   4.875   4.610  1.00  0.00     0.038 C 
ATOM     75  C   UNL     1      -3.581   4.731   5.808  1.00  0.00     0.015 C 
BRANCH  74  76
ATOM     76  C   UNL     1      -5.751   3.910   4.625  1.00  0.00     0.128 C 
BRANCH  76  77
ATOM     77  O   UNL     1      -6.171   3.670   5.979  1.00  0.00    -0.381 OA
ATOM     78  C   UNL     1      -6.333   2.293   6.291  1.00  0.00     0.195 C 
ENDBRANCH  76  77
BRANCH  76  79
ATOM     79  C   UNL     1      -6.916   4.355   3.706  1.00  0.00     0.068 C 
BRANCH  79  80
ATOM     80  C   UNL     1      -6.768   4.133   2.220  1.00  0.00    -0.045 A 
ATOM     81  C   UNL     1      -6.664   5.214   1.335  1.00  0.00     0.004 A 
ATOM     82  C   UNL     1      -6.762   2.831   1.697  1.00  0.00     0.004 A 
ATOM     83  C   UNL     1      -6.543   5.000  -0.040  1.00  0.00     0.000 A 
ATOM     84  C   UNL     1      -6.641   2.618   0.322  1.00  0.00     0.000 A 
ATOM     85  C   UNL     1      -6.530   3.702  -0.545  1.00  0.00     0.000 A 
ENDBRANCH  79  80
ENDBRANCH  76  79
ENDBRANCH  74  76
ENDBRANCH  72  74
ENDBRANCH  70  71
ENDBRANCH   1  69
TORSDOF 17
ENDMDL
MODEL 3
REMARK VINA RESULT:    -6.859      2.446     11.318
REMARK INTER + INTRA:         -28.982
REMARK INTER:                 -21.493
REMARK INTRA:                  -7.489
REMARK UNBOUND:                -8.489
REMARK SMILES C=C1C(=O)N[C@H](C)C(=O)N[C@@H](CC(C)C)C(=O)N[C@@H](C(=O)O)[C@H](C)C(=O)N[C@@H](CCCN=C(N)N)C(=O)N[C@@H](/C=C/C(C)=C/[C@H](C)[C@H](Cc2ccccc2)OC)[C@H](C)C(=O)N[C@@H](C(=O)O)CCC(=O)N1C
REMARK SMILES IDX 39 1 38 2 37 3 36 4 28 6 27 7 25 8 26 9 23 11 24 12 19 13
REMARK SMILES IDX 18 14 16 15 17 16 11 18 10 19 8 20 9 21 12 24 13 25 14 26
REMARK SMILES IDX 15 27 20 28 21 29 22 30 29 32 30 33 31 34 32 35 33 36 34 37
REMARK SMILES IDX 35 38 57 43 58 44 59 45 60 46 61 47 62 49 66 50 67 51 68 52
REMARK SMILES IDX 69 53 70 54 71 55 2 56 1 57 3 58 4 59 5 60 6 62 7 63 63 65
REMARK SMILES IDX 64 66 65 67 40 69 41 70 42 71 44 72 43 73 45 74 46 75 47 76
REMARK SMILES IDX 55 77 56 78 48 79 49 80 50 81 54 82 51 83 53 84 52 85
REMARK H PARENT 38 5 27 10 18 17 10 22 22 31 34 39 34 40 35 41 35 42 61 48
REMARK H PARENT 5 61 65 68
REMARK Flexibility Score:  369.900
ROOT
ATOM      1  C   UNL     1      -4.832   2.546  -0.703  1.00  0.00     0.117 C 
ENDROOT
BRANCH   1   2
ATOM      2  N   UNL     1      -4.088   2.287   0.530  1.00  0.00    -0.347 N 
ATOM      3  O   UNL     1      -2.078   1.731  -0.428  1.00  0.00    -0.273 OA
ATOM      4  C   UNL     1      -2.740   1.989   0.572  1.00  0.00     0.243 C 
ATOM      5  H   UNL     1      -4.558   2.376   1.418  1.00  0.00     0.164 HD
BRANCH   4   6
ATOM      6  C   UNL     1      -2.177   1.846   2.009  1.00  0.00     0.171 C 
BRANCH   6   7
ATOM      7  N   UNL     1      -0.714   1.699   1.975  1.00  0.00    -0.344 N 
ATOM      8  C   UNL     1      -0.133   0.449   1.965  1.00  0.00     0.226 C 
ATOM      9  O   UNL     1      -0.790  -0.584   2.004  1.00  0.00    -0.275 OA
ATOM     10  H   UNL     1      -0.136   2.530   2.010  1.00  0.00     0.164 HD
BRANCH   8  11
ATOM     11  C   UNL     1       1.383   0.464   1.874  1.00  0.00     0.109 C 
ATOM     12  C   UNL     1       1.879   1.883   1.594  1.00  0.00     0.021 C 
BRANCH  11  13
ATOM     13  C   UNL     1       1.987  -0.198   3.129  1.00  0.00     0.204 C 
BRANCH  13  14
ATOM     14  N   UNL     1       1.046  -0.209   4.254  1.00  0.00    -0.340 N 
ATOM     15  C   UNL     1       0.931   0.837   5.144  1.00  0.00     0.243 C 
ATOM     16  O   UNL     1       1.568   1.881   5.021  1.00  0.00    -0.273 OA
ATOM     17  H   UNL     1       0.602  -1.098   4.499  1.00  0.00     0.164 HD
BRANCH  15  18
ATOM     18  C   UNL     1       0.030   0.516   6.362  1.00  0.00     0.171 C 
BRANCH  18  19
ATOM     19  N   UNL     1       0.280   1.561   7.353  1.00  0.00    -0.343 N 
ATOM     20  C   UNL     1       0.047   1.358   8.700  1.00  0.00     0.242 CG0
ATOM     21  O   UNL     1      -0.506   0.340   9.111  1.00  0.00    -0.273 OA
ATOM     22  H   UNL     1       0.629   2.463   7.049  1.00  0.00     0.164 HD
ATOM     23  G   UNL     1       0.444   2.545   9.601  1.00  0.00     0.000 G0
ENDBRANCH  18  19
BRANCH  18  24
ATOM     24  C   UNL     1      -1.446   0.476   5.948  1.00  0.00     0.038 C 
BRANCH  24  25
ATOM     25  C   UNL     1      -1.977  -0.929   5.590  1.00  0.00    -0.015 C 
ATOM     26  C   UNL     1      -3.014  -0.894   4.468  1.00  0.00     0.007 C 
ATOM     27  C   UNL     1      -2.585  -1.581   6.835  1.00  0.00     0.007 C 
ENDBRANCH  24  25
ENDBRANCH  18  24
ENDBRANCH  15  18
ENDBRANCH  13  14
BRANCH  13  28
ATOM     28  C   UNL     1       2.430  -1.645   2.894  1.00  0.00     0.327 C 
ATOM     29  O   UNL     1       3.202  -2.033   2.030  1.00  0.00    -0.250 OA
BRANCH  28  30
ATOM     30  O   UNL     1       1.786  -2.530   3.681  1.00  0.00    -0.480 OA
ATOM     31  H   UNL     1       2.360  -2.613   4.471  1.00  0.00     0.296 HD
ENDBRANCH  28  30
ENDBRANCH  13  28
ENDBRANCH  11  13
ENDBRANCH   8  11
ENDBRANCH   6   7
BRANCH   6  32
ATOM     32  C   UNL     1      -2.586   3.072   2.833  1.00  0.00     0.037 C 
BRANCH  32  33
ATOM     33  C   UNL     1      -3.260   2.682   4.156  1.00  0.00     0.026 C 
BRANCH  33  34
ATOM     34  C   UNL     1      -4.758   2.422   3.995  1.00  0.00     0.146 C 
BRANCH  34  35
ATOM     35  N   UNL     1      -5.481   3.656   4.275  1.00  0.00    -0.254 NA
ATOM     36  C   UNL     1      -6.031   3.798   5.423  1.00  0.00     0.185 C 
ATOM     37  N   UNL     1      -6.696   4.933   5.693  1.00  0.00    -0.370 N 
ATOM     38  N   UNL     1      -6.051   2.945   6.462  1.00  0.00    -0.370 N 
ATOM     39  H   UNL     1      -6.717   5.632   4.961  1.00  0.00     0.159 HD
ATOM     40  H   UNL     1      -7.001   5.192   6.615  1.00  0.00     0.159 HD
ATOM     41  H   UNL     1      -6.637   3.114   7.263  1.00  0.00     0.159 HD
ATOM     42  H   UNL     1      -5.604   2.044   6.394  1.00  0.00     0.159 HD
ENDBRANCH  34  35
ENDBRANCH  33  34
ENDBRANCH  32  33
ENDBRANCH   6  32
ENDBRANCH   4   6
ENDBRANCH   1   2
BRANCH   1  43
ATOM     43  C   UNL     1      -4.729   4.062  -1.036  1.00  0.00     0.102 C 
ATOM     44  C   UNL     1      -5.662   4.940  -0.185  1.00  0.00     0.020 C 
BRANCH  43  45
ATOM     45  C   UNL     1      -4.851   4.305  -2.543  1.00  0.00     0.225 C 
ATOM     46  O   UNL     1      -5.617   5.132  -3.030  1.00  0.00    -0.275 OA
ATOM     47  N   UNL     1      -4.110   3.463  -3.340  1.00  0.00    -0.342 N 
ATOM     48  H   UNL     1      -3.380   2.899  -2.929  1.00  0.00     0.164 HD
BRANCH  47  49
ATOM     49  C   UNL     1      -4.100   3.601  -4.800  1.00  0.00     0.192 C 
BRANCH  49  50
ATOM     50  C   UNL     1      -4.449   2.258  -5.446  1.00  0.00     0.047 C 
BRANCH  50  51
ATOM     51  C   UNL     1      -5.927   1.889  -5.259  1.00  0.00     0.103 C 
BRANCH  51  52
ATOM     52  C   UNL     1      -6.827   2.591  -6.273  1.00  0.00     0.226 C 
ATOM     53  O   UNL     1      -6.391   2.855  -7.395  1.00  0.00    -0.275 OA
BRANCH  52  54
ATOM     54  N   UNL     1      -8.155   2.830  -5.874  1.00  0.00    -0.311 N 
ATOM     55  C   UNL     1      -9.026   1.727  -5.447  1.00  0.00     0.153 C 
BRANCH  54  56
ATOM     56  C   UNL     1      -8.694   4.128  -5.861  1.00  0.00     0.102 C 
ATOM     57  C   UNL     1      -8.237   5.142  -5.109  1.00  0.00     0.043 C 
BRANCH  56  58
ATOM     58  C   UNL     1      -9.846   4.497  -6.766  1.00  0.00     0.268 C 
ATOM     59  O   UNL     1      -9.712   4.730  -7.960  1.00  0.00    -0.268 OA
ATOM     60  N   UNL     1     -11.063   4.478  -6.127  1.00  0.00    -0.339 N 
ATOM     61  H   UNL     1     -11.087   4.286  -5.132  1.00  0.00     0.164 HD
BRANCH  60  62
ATOM     62  C   UNL     1     -12.317   4.744  -6.830  1.00  0.00     0.168 CG0
ATOM     63  C   UNL     1     -13.434   3.847  -6.313  1.00  0.00     0.041 C 
ATOM     64  G   UNL     1     -12.112   4.542  -8.346  1.00  0.00     0.000 G0
ENDBRANCH  60  62
ENDBRANCH  56  58
ENDBRANCH  54  56
ENDBRANCH  52  54
ENDBRANCH  51  52
ENDBRANCH  50  51
ENDBRANCH  49  50
BRANCH  49  65
ATOM     65  C   UNL     1      -2.732   4.074  -5.316  1.00  0.00     0.326 C 
ATOM     66  O   UNL     1      -1.674   3.983  -4.710  1.00  0.00    -0.250 OA
BRANCH  65  67
ATOM     67  O   UNL     1      -2.764   4.684  -6.521  1.00  0.00    -0.480 OA
ATOM     68  H   UNL     1      -1.860   5.055  -6.617  1.00  0.00     0.296 HD
ENDBRANCH  65  67
ENDBRANCH  49  65
ENDBRANCH  47  49
ENDBRANCH  43  45
ENDBRANCH   1  43
BRANCH   1  69
ATOM     69  C   UNL     1      -6.206   1.930  -0.507  1.00  0.00    -0.001 C 
ATOM     70  C   UNL     1      -6.788   0.975  -1.254  1.00  0.00     0.001 C 
BRANCH  70  71
ATOM     71  C   UNL     1      -8.105   0.373  -1.041  1.00  0.00    -0.055 C 
ATOM     72  C   UNL     1      -8.954   0.334  -2.090  1.00  0.00    -0.018 C 
ATOM     73  C   UNL     1      -8.418  -0.167   0.330  1.00  0.00     0.044 C 
BRANCH  72  74
ATOM     74  C   UNL     1     -10.367  -0.226  -2.166  1.00  0.00     0.038 C 
ATOM     75  C   UNL     1     -10.380  -1.272  -3.287  1.00  0.00     0.015 C 
BRANCH  74  76
ATOM     76  C   UNL     1     -11.364   0.954  -2.361  1.00  0.00     0.128 C 
BRANCH  76  77
ATOM     77  O   UNL     1     -12.453   0.542  -3.204  1.00  0.00    -0.381 OA
ATOM     78  C   UNL     1     -13.694   0.433  -2.520  1.00  0.00     0.195 C 
ENDBRANCH  76  77
BRANCH  76  79
ATOM     79  C   UNL     1     -11.842   1.601  -1.037  1.00  0.00     0.068 C 
BRANCH  79  80
ATOM     80  C   UNL     1     -10.895   2.537  -0.325  1.00  0.00    -0.045 A 
ATOM     81  C   UNL     1     -10.169   3.505  -1.033  1.00  0.00     0.004 A 
ATOM     82  C   UNL     1     -10.706   2.433   1.061  1.00  0.00     0.004 A 
ATOM     83  C   UNL     1      -9.285   4.358  -0.369  1.00  0.00     0.000 A 
ATOM     84  C   UNL     1      -9.821   3.287   1.723  1.00  0.00     0.000 A 
ATOM     85  C   UNL     1      -9.112   4.250   1.009  1.00  0.00     0.000 A 
ENDBRANCH  79  80
ENDBRANCH  76  79
ENDBRANCH  74  76
ENDBRANCH  72  74
ENDBRANCH  70  71
ENDBRANCH   1  69
TORSDOF 17
ENDMDL
MODEL 4
REMARK VINA RESULT:    -6.684      2.466     11.756
REMARK INTER + INTRA:         -28.460
REMARK INTER:                 -21.079
REMARK INTRA:                  -7.381
REMARK UNBOUND:                -8.489
REMARK SMILES C=C1C(=O)N[C@H](C)C(=O)N[C@@H](CC(C)C)C(=O)N[C@@H](C(=O)O)[C@H](C)C(=O)N[C@@H](CCCN=C(N)N)C(=O)N[C@@H](/C=C/C(C)=C/[C@H](C)[C@H](Cc2ccccc2)OC)[C@H](C)C(=O)N[C@@H](C(=O)O)CCC(=O)N1C
REMARK SMILES IDX 39 1 38 2 37 3 36 4 28 6 27 7 25 8 26 9 23 11 24 12 19 13
REMARK SMILES IDX 18 14 16 15 17 16 11 18 10 19 8 20 9 21 12 24 13 25 14 26
REMARK SMILES IDX 15 27 20 28 21 29 22 30 29 32 30 33 31 34 32 35 33 36 34 37
REMARK SMILES IDX 35 38 57 43 58 44 59 45 60 46 61 47 62 49 66 50 67 51 68 52
REMARK SMILES IDX 69 53 70 54 71 55 2 56 1 57 3 58 4 59 5 60 6 62 7 63 63 65
REMARK SMILES IDX 64 66 65 67 40 69 41 70 42 71 44 72 43 73 45 74 46 75 47 76
REMARK SMILES IDX 55 77 56 78 48 79 49 80 50 81 54 82 51 83 53 84 52 85
REMARK H PARENT 38 5 27 10 18 17 10 22 22 31 34 39 34 40 35 41 35 42 61 48
REMARK H PARENT 5 61 65 68
REMARK Flexibility Score:  369.900
ROOT
ATOM      1  C   UNL     1      -3.755   2.403  -0.277  1.00  0.00     0.117 C 
ENDROOT
BRANCH   1   2
ATOM      2  N   UNL     1      -3.196   1.835   0.950  1.00  0.00    -0.347 N 
ATOM      3  O   UNL     1      -4.815   0.253   1.330  1.00  0.00    -0.273 OA
ATOM      4  C   UNL     1      -3.724   0.741   1.607  1.00  0.00     0.243 C 
ATOM      5  H   UNL     1      -2.344   2.221   1.329  1.00  0.00     0.164 HD
BRANCH   4   6
ATOM      6  C   UNL     1      -2.892   0.289   2.834  1.00  0.00     0.171 C 
BRANCH   6   7
ATOM      7  N   UNL     1      -1.455   0.486   2.581  1.00  0.00    -0.344 N 
ATOM      8  C   UNL     1      -0.630  -0.590   2.337  1.00  0.00     0.226 C 
ATOM      9  O   UNL     1      -1.036  -1.747   2.338  1.00  0.00    -0.275 OA
ATOM     10  H   UNL     1      -1.071   1.421   2.638  1.00  0.00     0.164 HD
BRANCH   8  11
ATOM     11  C   UNL     1       0.812  -0.218   2.041  1.00  0.00     0.109 C 
ATOM     12  C   UNL     1       0.886   1.205   1.489  1.00  0.00     0.021 C 
BRANCH  11  13
ATOM     13  C   UNL     1       1.683  -0.477   3.287  1.00  0.00     0.204 C 
BRANCH  13  14
ATOM     14  N   UNL     1       1.022  -0.043   4.522  1.00  0.00    -0.340 N 
ATOM     15  C   UNL     1       1.239   1.193   5.092  1.00  0.00     0.243 C 
ATOM     16  O   UNL     1       1.959   2.043   4.572  1.00  0.00    -0.273 OA
ATOM     17  H   UNL     1       0.536  -0.749   5.080  1.00  0.00     0.164 HD
BRANCH  15  18
ATOM     18  C   UNL     1       0.599   1.348   6.494  1.00  0.00     0.171 C 
BRANCH  18  19
ATOM     19  N   UNL     1       1.683   1.222   7.466  1.00  0.00    -0.343 N 
ATOM     20  C   UNL     1       1.540   0.486   8.626  1.00  0.00     0.242 CG0
ATOM     21  O   UNL     1       0.455   0.015   8.959  1.00  0.00    -0.273 OA
ATOM     22  H   UNL     1       2.565   1.691   7.291  1.00  0.00     0.164 HD
ATOM     23  G   UNL     1       2.816   0.403   9.489  1.00  0.00     0.000 G0
ENDBRANCH  18  19
BRANCH  18  24
ATOM     24  C   UNL     1      -0.112   2.701   6.617  1.00  0.00     0.038 C 
BRANCH  24  25
ATOM     25  C   UNL     1      -0.092   3.313   8.034  1.00  0.00    -0.015 C 
ATOM     26  C   UNL     1      -1.455   3.239   8.723  1.00  0.00     0.007 C 
ATOM     27  C   UNL     1       0.369   4.771   7.959  1.00  0.00     0.007 C 
ENDBRANCH  24  25
ENDBRANCH  18  24
ENDBRANCH  15  18
ENDBRANCH  13  14
BRANCH  13  28
ATOM     28  C   UNL     1       2.057  -1.951   3.467  1.00  0.00     0.327 C 
ATOM     29  O   UNL     1       2.993  -2.529   2.935  1.00  0.00    -0.250 OA
BRANCH  28  30
ATOM     30  O   UNL     1       1.164  -2.636   4.209  1.00  0.00    -0.480 OA
ATOM     31  H   UNL     1       1.552  -2.640   5.109  1.00  0.00     0.296 HD
ENDBRANCH  28  30
ENDBRANCH  13  28
ENDBRANCH  11  13
ENDBRANCH   8  11
ENDBRANCH   6   7
BRANCH   6  32
ATOM     32  C   UNL     1      -3.344   1.077   4.068  1.00  0.00     0.037 C 
BRANCH  32  33
ATOM     33  C   UNL     1      -2.745   0.516   5.365  1.00  0.00     0.026 C 
BRANCH  33  34
ATOM     34  C   UNL     1      -2.864  -1.006   5.454  1.00  0.00     0.146 C 
BRANCH  34  35
ATOM     35  N   UNL     1      -1.533  -1.572   5.627  1.00  0.00    -0.254 NA
ATOM     36  C   UNL     1      -1.157  -1.909   6.805  1.00  0.00     0.185 C 
ATOM     37  N   UNL     1       0.066  -2.436   6.975  1.00  0.00    -0.370 N 
ATOM     38  N   UNL     1      -1.829  -1.814   7.966  1.00  0.00    -0.370 N 
ATOM     39  H   UNL     1       0.631  -2.549   6.143  1.00  0.00     0.159 HD
ATOM     40  H   UNL     1       0.366  -2.881   7.825  1.00  0.00     0.159 HD
ATOM     41  H   UNL     1      -1.373  -1.984   8.847  1.00  0.00     0.159 HD
ATOM     42  H   UNL     1      -2.757  -1.421   7.990  1.00  0.00     0.159 HD
ENDBRANCH  34  35
ENDBRANCH  33  34
ENDBRANCH  32  33
ENDBRANCH   6  32
ENDBRANCH   4   6
ENDBRANCH   1   2
BRANCH   1  43
ATOM     43  C   UNL     1      -2.603   3.066  -1.086  1.00  0.00     0.102 C 
ATOM     44  C   UNL     1      -2.369   4.541  -0.720  1.00  0.00     0.020 C 
BRANCH  43  45
ATOM     45  C   UNL     1      -2.772   2.817  -2.588  1.00  0.00     0.225 C 
ATOM     46  O   UNL     1      -1.936   3.153  -3.422  1.00  0.00    -0.275 OA
ATOM     47  N   UNL     1      -3.977   2.271  -2.966  1.00  0.00    -0.342 N 
ATOM     48  H   UNL     1      -4.583   1.865  -2.268  1.00  0.00     0.164 HD
BRANCH  47  49
ATOM     49  C   UNL     1      -4.265   1.945  -4.367  1.00  0.00     0.192 C 
BRANCH  49  50
ATOM     50  C   UNL     1      -4.954   3.135  -5.040  1.00  0.00     0.047 C 
BRANCH  50  51
ATOM     51  C   UNL     1      -6.284   3.496  -4.365  1.00  0.00     0.103 C 
BRANCH  51  52
ATOM     52  C   UNL     1      -7.170   4.354  -5.265  1.00  0.00     0.226 C 
ATOM     53  O   UNL     1      -6.828   5.506  -5.538  1.00  0.00    -0.275 OA
BRANCH  52  54
ATOM     54  N   UNL     1      -8.312   3.729  -5.799  1.00  0.00    -0.311 N 
ATOM     55  C   UNL     1      -8.243   2.369  -6.348  1.00  0.00     0.153 C 
BRANCH  54  56
ATOM     56  C   UNL     1      -9.558   4.378  -5.822  1.00  0.00     0.102 C 
ATOM     57  C   UNL     1     -10.065   5.105  -4.812  1.00  0.00     0.043 C 
BRANCH  56  58
ATOM     58  C   UNL     1     -10.431   4.337  -7.054  1.00  0.00     0.268 C 
ATOM     59  O   UNL     1     -10.058   4.731  -8.152  1.00  0.00    -0.268 OA
ATOM     60  N   UNL     1     -11.655   3.755  -6.831  1.00  0.00    -0.339 N 
ATOM     61  H   UNL     1     -11.892   3.464  -5.889  1.00  0.00     0.164 HD
BRANCH  60  62
ATOM     62  C   UNL     1     -12.631   3.557  -7.901  1.00  0.00     0.168 CG0
ATOM     63  C   UNL     1     -13.658   4.683  -7.920  1.00  0.00     0.041 C 
ATOM     64  G   UNL     1     -13.323   2.190  -7.724  1.00  0.00     0.000 G0
ENDBRANCH  60  62
ENDBRANCH  56  58
ENDBRANCH  54  56
ENDBRANCH  52  54
ENDBRANCH  51  52
ENDBRANCH  50  51
ENDBRANCH  49  50
BRANCH  49  65
ATOM     65  C   UNL     1      -5.161   0.703  -4.487  1.00  0.00     0.326 C 
ATOM     66  O   UNL     1      -5.585   0.231  -5.532  1.00  0.00    -0.250 OA
BRANCH  65  67
ATOM     67  O   UNL     1      -5.529   0.156  -3.307  1.00  0.00    -0.480 OA
ATOM     68  H   UNL     1      -6.166  -0.544  -3.565  1.00  0.00     0.296 HD
ENDBRANCH  65  67
ENDBRANCH  49  65
ENDBRANCH  47  49
ENDBRANCH  43  45
ENDBRANCH   1  43
BRANCH   1  69
ATOM     69  C   UNL     1      -4.937   3.255   0.150  1.00  0.00    -0.001 C 
ATOM     70  C   UNL     1      -6.226   3.096  -0.198  1.00  0.00     0.001 C 
BRANCH  70  71
ATOM     71  C   UNL     1      -7.361   3.912   0.238  1.00  0.00    -0.055 C 
ATOM     72  C   UNL     1      -8.600   3.407   0.066  1.00  0.00    -0.018 C 
ATOM     73  C   UNL     1      -7.065   5.254   0.855  1.00  0.00     0.044 C 
BRANCH  72  74
ATOM     74  C   UNL     1      -9.948   4.019   0.421  1.00  0.00     0.038 C 
ATOM     75  C   UNL     1     -10.269   3.602   1.861  1.00  0.00     0.015 C 
BRANCH  74  76
ATOM     76  C   UNL     1     -10.997   3.568  -0.638  1.00  0.00     0.128 C 
BRANCH  76  77
ATOM     77  O   UNL     1     -11.956   4.617  -0.856  1.00  0.00    -0.381 OA
ATOM     78  C   UNL     1     -13.234   4.348  -0.295  1.00  0.00     0.195 C 
ENDBRANCH  76  77
BRANCH  76  79
ATOM     79  C   UNL     1     -10.375   3.041  -1.956  1.00  0.00     0.068 C 
BRANCH  79  80
ATOM     80  C   UNL     1     -10.684   1.621  -2.366  1.00  0.00    -0.045 A 
ATOM     81  C   UNL     1      -9.715   0.822  -2.986  1.00  0.00     0.004 A 
ATOM     82  C   UNL     1     -11.964   1.087  -2.154  1.00  0.00     0.004 A 
ATOM     83  C   UNL     1     -10.012  -0.486  -3.374  1.00  0.00     0.000 A 
ATOM     84  C   UNL     1     -12.261  -0.221  -2.544  1.00  0.00     0.000 A 
ATOM     85  C   UNL     1     -11.285  -1.007  -3.152  1.00  0.00     0.000 A 
ENDBRANCH  79  80
ENDBRANCH  76  79
ENDBRANCH  74  76
ENDBRANCH  72  74
ENDBRANCH  70  71
ENDBRANCH   1  69
TORSDOF 17
ENDMDL
MODEL 5
REMARK VINA RESULT:    -6.614      2.799      5.853
REMARK INTER + INTRA:         -28.249
REMARK INTER:                 -21.174
REMARK INTRA:                  -7.075
REMARK UNBOUND:                -8.489
REMARK SMILES C=C1C(=O)N[C@H](C)C(=O)N[C@@H](CC(C)C)C(=O)N[C@@H](C(=O)O)[C@H](C)C(=O)N[C@@H](CCCN=C(N)N)C(=O)N[C@@H](/C=C/C(C)=C/[C@H](C)[C@H](Cc2ccccc2)OC)[C@H](C)C(=O)N[C@@H](C(=O)O)CCC(=O)N1C
REMARK SMILES IDX 39 1 38 2 37 3 36 4 28 6 27 7 25 8 26 9 23 11 24 12 19 13
REMARK SMILES IDX 18 14 16 15 17 16 11 18 10 19 8 20 9 21 12 24 13 25 14 26
REMARK SMILES IDX 15 27 20 28 21 29 22 30 29 32 30 33 31 34 32 35 33 36 34 37
REMARK SMILES IDX 35 38 57 43 58 44 59 45 60 46 61 47 62 49 66 50 67 51 68 52
REMARK SMILES IDX 69 53 70 54 71 55 2 56 1 57 3 58 4 59 5 60 6 62 7 63 63 65
REMARK SMILES IDX 64 66 65 67 40 69 41 70 42 71 44 72 43 73 45 74 46 75 47 76
REMARK SMILES IDX 55 77 56 78 48 79 49 80 50 81 54 82 51 83 53 84 52 85
REMARK H PARENT 38 5 27 10 18 17 10 22 22 31 34 39 34 40 35 41 35 42 61 48
REMARK H PARENT 5 61 65 68
REMARK Flexibility Score:  369.900
ROOT
ATOM      1  C   UNL     1      -4.259   4.311  -2.609  1.00  0.00     0.117 C 
ENDROOT
BRANCH   1   2
ATOM      2  N   UNL     1      -5.546   4.254  -3.302  1.00  0.00    -0.347 N 
ATOM      3  O   UNL     1      -4.750   4.356  -5.453  1.00  0.00    -0.273 OA
ATOM      4  C   UNL     1      -5.683   4.188  -4.675  1.00  0.00     0.243 C 
ATOM      5  H   UNL     1      -6.397   4.209  -2.762  1.00  0.00     0.164 HD
BRANCH   4   6
ATOM      6  C   UNL     1      -7.152   4.049  -5.149  1.00  0.00     0.171 C 
BRANCH   6   7
ATOM      7  N   UNL     1      -7.865   3.055  -4.330  1.00  0.00    -0.344 N 
ATOM      8  C   UNL     1      -7.634   1.707  -4.502  1.00  0.00     0.226 C 
ATOM      9  O   UNL     1      -6.858   1.272  -5.345  1.00  0.00    -0.275 OA
ATOM     10  H   UNL     1      -8.563   3.372  -3.670  1.00  0.00     0.164 HD
BRANCH   8  11
ATOM     11  C   UNL     1      -8.404   0.813  -3.546  1.00  0.00     0.109 C 
ATOM     12  C   UNL     1      -8.287   1.348  -2.118  1.00  0.00     0.021 C 
BRANCH  11  13
ATOM     13  C   UNL     1      -9.848   0.628  -4.053  1.00  0.00     0.204 C 
BRANCH  13  14
ATOM     14  N   UNL     1      -9.891   0.261  -5.472  1.00  0.00    -0.340 N 
ATOM     15  C   UNL     1     -10.271   1.142  -6.461  1.00  0.00     0.243 C 
ATOM     16  O   UNL     1     -10.543   2.319  -6.229  1.00  0.00    -0.273 OA
ATOM     17  H   UNL     1      -9.826  -0.731  -5.713  1.00  0.00     0.164 HD
BRANCH  15  18
ATOM     18  C   UNL     1     -10.442   0.477  -7.849  1.00  0.00     0.171 C 
BRANCH  18  19
ATOM     19  N   UNL     1     -11.075   1.471  -8.714  1.00  0.00    -0.343 N 
ATOM     20  C   UNL     1     -12.403   1.378  -9.081  1.00  0.00     0.242 CG0
ATOM     21  O   UNL     1     -13.078   0.388  -8.808  1.00  0.00    -0.273 OA
ATOM     22  H   UNL     1     -10.526   2.249  -9.062  1.00  0.00     0.164 HD
ATOM     23  G   UNL     1     -12.914   2.559  -9.931  1.00  0.00     0.000 G0
ENDBRANCH  18  19
BRANCH  18  24
ATOM     24  C   UNL     1      -9.085   0.030  -8.406  1.00  0.00     0.038 C 
BRANCH  24  25
ATOM     25  C   UNL     1      -8.656   0.742  -9.706  1.00  0.00    -0.015 C 
ATOM     26  C   UNL     1      -8.255  -0.242 -10.806  1.00  0.00     0.007 C 
ATOM     27  C   UNL     1      -7.491   1.691  -9.414  1.00  0.00     0.007 C 
ENDBRANCH  24  25
ENDBRANCH  18  24
ENDBRANCH  15  18
ENDBRANCH  13  14
BRANCH  13  28
ATOM     28  C   UNL     1     -10.625  -0.444  -3.283  1.00  0.00     0.327 C 
ATOM     29  O   UNL     1     -10.398  -1.645  -3.288  1.00  0.00    -0.250 OA
BRANCH  28  30
ATOM     30  O   UNL     1     -11.711   0.043  -2.648  1.00  0.00    -0.480 OA
ATOM     31  H   UNL     1     -11.385   0.270  -1.753  1.00  0.00     0.296 HD
ENDBRANCH  28  30
ENDBRANCH  13  28
ENDBRANCH  11  13
ENDBRANCH   8  11
ENDBRANCH   6   7
BRANCH   6  32
ATOM     32  C   UNL     1      -7.839   5.416  -5.069  1.00  0.00     0.037 C 
BRANCH  32  33
ATOM     33  C   UNL     1      -8.670   5.574  -3.788  1.00  0.00     0.026 C 
BRANCH  33  34
ATOM     34  C   UNL     1     -10.174   5.481  -4.050  1.00  0.00     0.146 C 
BRANCH  34  35
ATOM     35  N   UNL     1     -10.658   4.199  -3.557  1.00  0.00    -0.254 NA
ATOM     36  C   UNL     1     -11.110   4.132  -2.361  1.00  0.00     0.185 C 
ATOM     37  N   UNL     1     -11.563   2.956  -1.898  1.00  0.00    -0.370 N 
ATOM     38  N   UNL     1     -11.210   5.106  -1.440  1.00  0.00    -0.370 N 
ATOM     39  H   UNL     1     -11.531   2.173  -2.539  1.00  0.00     0.159 HD
ATOM     40  H   UNL     1     -12.087   2.859  -1.046  1.00  0.00     0.159 HD
ATOM     41  H   UNL     1     -11.454   4.898  -0.485  1.00  0.00     0.159 HD
ATOM     42  H   UNL     1     -10.892   6.040  -1.645  1.00  0.00     0.159 HD
ENDBRANCH  34  35
ENDBRANCH  33  34
ENDBRANCH  32  33
ENDBRANCH   6  32
ENDBRANCH   4   6
ENDBRANCH   1   2
BRANCH   1  43
ATOM     43  C   UNL     1      -3.469   3.008  -2.924  1.00  0.00     0.102 C 
ATOM     44  C   UNL     1      -4.133   1.739  -2.363  1.00  0.00     0.020 C 
BRANCH  43  45
ATOM     45  C   UNL     1      -1.992   3.154  -2.545  1.00  0.00     0.225 C 
ATOM     46  O   UNL     1      -1.156   3.659  -3.289  1.00  0.00    -0.275 OA
ATOM     47  N   UNL     1      -1.631   2.595  -1.341  1.00  0.00    -0.342 N 
ATOM     48  H   UNL     1      -2.346   2.323  -0.681  1.00  0.00     0.164 HD
BRANCH  47  49
ATOM     49  C   UNL     1      -0.259   2.689  -0.833  1.00  0.00     0.192 C 
BRANCH  49  50
ATOM     50  C   UNL     1      -0.102   1.789   0.395  1.00  0.00     0.047 C 
BRANCH  50  51
ATOM     51  C   UNL     1       1.165   0.925   0.325  1.00  0.00     0.103 C 
BRANCH  51  52
ATOM     52  C   UNL     1       2.095   1.174   1.510  1.00  0.00     0.226 C 
ATOM     53  O   UNL     1       1.910   2.153   2.236  1.00  0.00    -0.275 OA
BRANCH  52  54
ATOM     54  N   UNL     1       3.084   0.201   1.746  1.00  0.00    -0.311 N 
ATOM     55  C   UNL     1       4.443   0.359   1.212  1.00  0.00     0.153 C 
BRANCH  54  56
ATOM     56  C   UNL     1       2.812  -0.950   2.503  1.00  0.00     0.102 C 
ATOM     57  C   UNL     1       3.621  -2.019   2.595  1.00  0.00     0.043 C 
BRANCH  56  58
ATOM     58  C   UNL     1       1.558  -1.051   3.338  1.00  0.00     0.268 C 
ATOM     59  O   UNL     1       0.703  -1.908   3.162  1.00  0.00    -0.268 OA
ATOM     60  N   UNL     1       1.508  -0.125   4.353  1.00  0.00    -0.339 N 
ATOM     61  H   UNL     1       2.252   0.559   4.425  1.00  0.00     0.164 HD
BRANCH  60  62
ATOM     62  C   UNL     1       0.411  -0.085   5.319  1.00  0.00     0.168 CG0
ATOM     63  C   UNL     1      -0.127   1.331   5.478  1.00  0.00     0.041 C 
ATOM     64  G   UNL     1       0.895  -0.641   6.674  1.00  0.00     0.000 G0
ENDBRANCH  60  62
ENDBRANCH  56  58
ENDBRANCH  54  56
ENDBRANCH  52  54
ENDBRANCH  51  52
ENDBRANCH  50  51
ENDBRANCH  49  50
BRANCH  49  65
ATOM     65  C   UNL     1       0.107   4.133  -0.456  1.00  0.00     0.326 C 
ATOM     66  O   UNL     1      -0.384   4.774   0.462  1.00  0.00    -0.250 OA
BRANCH  65  67
ATOM     67  O   UNL     1       1.013   4.717  -1.272  1.00  0.00    -0.480 OA
ATOM     68  H   UNL     1       1.315   3.981  -1.847  1.00  0.00     0.296 HD
ENDBRANCH  65  67
ENDBRANCH  49  65
ENDBRANCH  47  49
ENDBRANCH  43  45
ENDBRANCH   1  43
BRANCH   1  69
ATOM     69  C   UNL     1      -4.570   4.649  -1.163  1.00  0.00    -0.001 C 
ATOM     70  C   UNL     1      -5.717   4.420  -0.499  1.00  0.00     0.001 C 
BRANCH  70  71
ATOM     71  C   UNL     1      -5.998   4.731   0.904  1.00  0.00    -0.055 C 
ATOM     72  C   UNL     1      -5.121   4.295   1.832  1.00  0.00    -0.018 C 
ATOM     73  C   UNL     1      -7.243   5.522   1.212  1.00  0.00     0.044 C 
BRANCH  72  74
ATOM     74  C   UNL     1      -5.151   4.469   3.343  1.00  0.00     0.038 C 
ATOM     75  C   UNL     1      -3.710   4.730   3.798  1.00  0.00     0.015 C 
BRANCH  74  76
ATOM     76  C   UNL     1      -5.820   3.215   3.979  1.00  0.00     0.128 C 
BRANCH  76  77
ATOM     77  O   UNL     1      -7.136   3.546   4.453  1.00  0.00    -0.381 OA
ATOM     78  C   UNL     1      -7.160   4.658   5.338  1.00  0.00     0.195 C 
ENDBRANCH  76  77
BRANCH  76  79
ATOM     79  C   UNL     1      -5.810   1.964   3.063  1.00  0.00     0.068 C 
BRANCH  79  80
ATOM     80  C   UNL     1      -4.699   0.959   3.251  1.00  0.00    -0.045 A 
ATOM     81  C   UNL     1      -4.438   0.399   4.509  1.00  0.00     0.004 A 
ATOM     82  C   UNL     1      -3.888   0.591   2.167  1.00  0.00     0.004 A 
ATOM     83  C   UNL     1      -3.399  -0.520   4.677  1.00  0.00     0.000 A 
ATOM     84  C   UNL     1      -2.849  -0.328   2.337  1.00  0.00     0.000 A 
ATOM     85  C   UNL     1      -2.606  -0.883   3.591  1.00  0.00     0.000 A 
ENDBRANCH  79  80
ENDBRANCH  76  79
ENDBRANCH  74  76
ENDBRANCH  72  74
ENDBRANCH  70  71
ENDBRANCH   1  69
TORSDOF 17
ENDMDL
MODEL 6
REMARK VINA RESULT:    -6.598      2.644      5.826
REMARK INTER + INTRA:         -28.202
REMARK INTER:                 -20.065
REMARK INTRA:                  -8.138
REMARK UNBOUND:                -8.489
REMARK SMILES C=C1C(=O)N[C@H](C)C(=O)N[C@@H](CC(C)C)C(=O)N[C@@H](C(=O)O)[C@H](C)C(=O)N[C@@H](CCCN=C(N)N)C(=O)N[C@@H](/C=C/C(C)=C/[C@H](C)[C@H](Cc2ccccc2)OC)[C@H](C)C(=O)N[C@@H](C(=O)O)CCC(=O)N1C
REMARK SMILES IDX 39 1 38 2 37 3 36 4 28 6 27 7 25 8 26 9 23 11 24 12 19 13
REMARK SMILES IDX 18 14 16 15 17 16 11 18 10 19 8 20 9 21 12 24 13 25 14 26
REMARK SMILES IDX 15 27 20 28 21 29 22 30 29 32 30 33 31 34 32 35 33 36 34 37
REMARK SMILES IDX 35 38 57 43 58 44 59 45 60 46 61 47 62 49 66 50 67 51 68 52
REMARK SMILES IDX 69 53 70 54 71 55 2 56 1 57 3 58 4 59 5 60 6 62 7 63 63 65
REMARK SMILES IDX 64 66 65 67 40 69 41 70 42 71 44 72 43 73 45 74 46 75 47 76
REMARK SMILES IDX 55 77 56 78 48 79 49 80 50 81 54 82 51 83 53 84 52 85
REMARK H PARENT 38 5 27 10 18 17 10 22 22 31 34 39 34 40 35 41 35 42 61 48
REMARK H PARENT 5 61 65 68
REMARK Flexibility Score:  369.900
ROOT
ATOM      1  C   UNL     1      -4.903   4.335  -3.079  1.00  0.00     0.117 C 
ENDROOT
BRANCH   1   2
ATOM      2  N   UNL     1      -6.116   3.692  -3.586  1.00  0.00    -0.347 N 
ATOM      3  O   UNL     1      -6.310   4.884  -5.538  1.00  0.00    -0.273 OA
ATOM      4  C   UNL     1      -6.672   3.956  -4.823  1.00  0.00     0.243 C 
ATOM      5  H   UNL     1      -6.561   2.973  -3.036  1.00  0.00     0.164 HD
BRANCH   4   6
ATOM      6  C   UNL     1      -7.905   3.077  -5.152  1.00  0.00     0.171 C 
BRANCH   6   7
ATOM      7  N   UNL     1      -8.820   3.021  -4.001  1.00  0.00    -0.344 N 
ATOM      8  C   UNL     1      -8.994   1.849  -3.297  1.00  0.00     0.226 C 
ATOM      9  O   UNL     1      -8.426   0.806  -3.601  1.00  0.00    -0.275 OA
ATOM     10  H   UNL     1      -9.358   3.845  -3.761  1.00  0.00     0.164 HD
BRANCH   8  11
ATOM     11  C   UNL     1      -9.927   1.968  -2.105  1.00  0.00     0.109 C 
ATOM     12  C   UNL     1      -9.175   2.545  -0.905  1.00  0.00     0.021 C 
BRANCH  11  13
ATOM     13  C   UNL     1     -11.195   2.744  -2.510  1.00  0.00     0.204 C 
BRANCH  13  14
ATOM     14  N   UNL     1     -12.414   1.954  -2.308  1.00  0.00    -0.340 N 
ATOM     15  C   UNL     1     -13.517   2.057  -3.128  1.00  0.00     0.243 C 
ATOM     16  O   UNL     1     -13.534   2.776  -4.125  1.00  0.00    -0.273 OA
ATOM     17  H   UNL     1     -12.522   1.456  -1.421  1.00  0.00     0.164 HD
BRANCH  15  18
ATOM     18  C   UNL     1     -14.753   1.286  -2.602  1.00  0.00     0.171 C 
BRANCH  18  19
ATOM     19  N   UNL     1     -15.519   0.872  -3.776  1.00  0.00    -0.343 N 
ATOM     20  C   UNL     1     -16.785   1.362  -4.029  1.00  0.00     0.242 CG0
ATOM     21  O   UNL     1     -17.379   2.065  -3.214  1.00  0.00    -0.273 OA
ATOM     22  H   UNL     1     -15.116   0.202  -4.421  1.00  0.00     0.164 HD
ATOM     23  G   UNL     1     -17.404   0.872  -5.355  1.00  0.00     0.000 G0
ENDBRANCH  18  19
BRANCH  18  24
ATOM     24  C   UNL     1     -14.320   0.081  -1.759  1.00  0.00     0.038 C 
BRANCH  24  25
ATOM     25  C   UNL     1     -14.331  -1.268  -2.510  1.00  0.00    -0.015 C 
ATOM     26  C   UNL     1     -14.954  -2.393  -1.684  1.00  0.00     0.007 C 
ATOM     27  C   UNL     1     -12.901  -1.649  -2.903  1.00  0.00     0.007 C 
ENDBRANCH  24  25
ENDBRANCH  18  24
ENDBRANCH  15  18
ENDBRANCH  13  14
BRANCH  13  28
ATOM     28  C   UNL     1     -11.372   4.056  -1.740  1.00  0.00     0.327 C 
ATOM     29  O   UNL     1     -12.000   4.206  -0.702  1.00  0.00    -0.250 OA
BRANCH  28  30
ATOM     30  O   UNL     1     -10.850   5.121  -2.382  1.00  0.00    -0.480 OA
ATOM     31  H   UNL     1      -9.903   4.897  -2.490  1.00  0.00     0.296 HD
ENDBRANCH  28  30
ENDBRANCH  13  28
ENDBRANCH  11  13
ENDBRANCH   8  11
ENDBRANCH   6   7
BRANCH   6  32
ATOM     32  C   UNL     1      -8.613   3.645  -6.387  1.00  0.00     0.037 C 
BRANCH  32  33
ATOM     33  C   UNL     1      -8.567   2.677  -7.578  1.00  0.00     0.026 C 
BRANCH  33  34
ATOM     34  C   UNL     1      -8.963   1.252  -7.189  1.00  0.00     0.146 C 
BRANCH  34  35
ATOM     35  N   UNL     1     -10.210   0.911  -7.860  1.00  0.00    -0.254 NA
ATOM     36  C   UNL     1     -11.301   0.965  -7.192  1.00  0.00     0.185 C 
ATOM     37  N   UNL     1     -12.457   0.658  -7.801  1.00  0.00    -0.370 N 
ATOM     38  N   UNL     1     -11.487   1.301  -5.903  1.00  0.00    -0.370 N 
ATOM     39  H   UNL     1     -12.401   0.404  -8.779  1.00  0.00     0.159 HD
ATOM     40  H   UNL     1     -13.362   0.841  -7.403  1.00  0.00     0.159 HD
ATOM     41  H   UNL     1     -12.379   1.170  -5.454  1.00  0.00     0.159 HD
ATOM     42  H   UNL     1     -10.703   1.540  -5.317  1.00  0.00     0.159 HD
ENDBRANCH  34  35
ENDBRANCH  33  34
ENDBRANCH  32  33
ENDBRANCH   6  32
ENDBRANCH   4   6
ENDBRANCH   1   2
BRANCH   1  43
ATOM     43  C   UNL     1      -3.668   3.628  -3.709  1.00  0.00     0.102 C 
ATOM     44  C   UNL     1      -3.682   2.100  -3.533  1.00  0.00     0.020 C 
BRANCH  43  45
ATOM     45  C   UNL     1      -2.364   4.294  -3.258  1.00  0.00     0.225 C 
ATOM     46  O   UNL     1      -1.855   5.241  -3.849  1.00  0.00    -0.275 OA
ATOM     47  N   UNL     1      -1.736   3.700  -2.187  1.00  0.00    -0.342 N 
ATOM     48  H   UNL     1      -2.236   3.027  -1.624  1.00  0.00     0.164 HD
BRANCH  47  49
ATOM     49  C   UNL     1      -0.499   4.249  -1.624  1.00  0.00     0.192 C 
BRANCH  49  50
ATOM     50  C   UNL     1       0.565   3.151  -1.552  1.00  0.00     0.047 C 
BRANCH  50  51
ATOM     51  C   UNL     1       0.035   1.868  -0.897  1.00  0.00     0.103 C 
BRANCH  51  52
ATOM     52  C   UNL     1       0.748   1.557   0.417  1.00  0.00     0.226 C 
ATOM     53  O   UNL     1       1.977   1.633   0.477  1.00  0.00    -0.275 OA
BRANCH  52  54
ATOM     54  N   UNL     1      -0.073   1.270   1.523  1.00  0.00    -0.311 N 
ATOM     55  C   UNL     1      -1.466   1.733   1.572  1.00  0.00     0.153 C 
BRANCH  54  56
ATOM     56  C   UNL     1       0.405   0.528   2.616  1.00  0.00     0.102 C 
ATOM     57  C   UNL     1       0.403  -0.813   2.694  1.00  0.00     0.043 C 
BRANCH  56  58
ATOM     58  C   UNL     1       1.020   1.216   3.811  1.00  0.00     0.268 C 
ATOM     59  O   UNL     1       2.148   1.691   3.803  1.00  0.00    -0.268 OA
ATOM     60  N   UNL     1       0.162   1.313   4.881  1.00  0.00    -0.339 N 
ATOM     61  H   UNL     1      -0.753   0.884   4.811  1.00  0.00     0.164 HD
BRANCH  60  62
ATOM     62  C   UNL     1       0.534   1.998   6.118  1.00  0.00     0.168 CG0
ATOM     63  C   UNL     1      -0.661   2.121   7.055  1.00  0.00     0.041 C 
ATOM     64  G   UNL     1       1.112   3.389   5.785  1.00  0.00     0.000 G0
ENDBRANCH  60  62
ENDBRANCH  56  58
ENDBRANCH  54  56
ENDBRANCH  52  54
ENDBRANCH  51  52
ENDBRANCH  50  51
ENDBRANCH  49  50
BRANCH  49  65
ATOM     65  C   UNL     1      -0.725   4.832  -0.220  1.00  0.00     0.326 C 
ATOM     66  O   UNL     1      -1.812   5.098   0.273  1.00  0.00    -0.250 OA
BRANCH  65  67
ATOM     67  O   UNL     1       0.407   5.106   0.466  1.00  0.00    -0.480 OA
ATOM     68  H   UNL     1       0.340   6.068   0.648  1.00  0.00     0.296 HD
ENDBRANCH  65  67
ENDBRANCH  49  65
ENDBRANCH  47  49
ENDBRANCH  43  45
ENDBRANCH   1  43
BRANCH   1  69
ATOM     69  C   UNL     1      -5.039   4.366  -1.568  1.00  0.00    -0.001 C 
ATOM     70  C   UNL     1      -6.057   4.873  -0.850  1.00  0.00     0.001 C 
BRANCH  70  71
ATOM     71  C   UNL     1      -6.187   4.878   0.609  1.00  0.00    -0.055 C 
ATOM     72  C   UNL     1      -5.179   4.345   1.331  1.00  0.00    -0.018 C 
ATOM     73  C   UNL     1      -7.432   5.484   1.201  1.00  0.00     0.044 C 
BRANCH  72  74
ATOM     74  C   UNL     1      -5.039   4.216   2.841  1.00  0.00     0.038 C 
ATOM     75  C   UNL     1      -3.709   4.873   3.230  1.00  0.00     0.015 C 
BRANCH  74  76
ATOM     76  C   UNL     1      -5.162   2.713   3.229  1.00  0.00     0.128 C 
BRANCH  76  77
ATOM     77  O   UNL     1      -4.703   2.514   4.576  1.00  0.00    -0.381 OA
ATOM     78  C   UNL     1      -3.522   1.729   4.667  1.00  0.00     0.195 C 
ENDBRANCH  76  77
BRANCH  76  79
ATOM     79  C   UNL     1      -6.569   2.112   2.980  1.00  0.00     0.068 C 
BRANCH  79  80
ATOM     80  C   UNL     1      -6.747   1.198   1.792  1.00  0.00    -0.045 A 
ATOM     81  C   UNL     1      -7.799   0.273   1.745  1.00  0.00     0.004 A 
ATOM     82  C   UNL     1      -5.839   1.242   0.723  1.00  0.00     0.004 A 
ATOM     83  C   UNL     1      -7.949  -0.579   0.648  1.00  0.00     0.000 A 
ATOM     84  C   UNL     1      -5.990   0.389  -0.372  1.00  0.00     0.000 A 
ATOM     85  C   UNL     1      -7.045  -0.520  -0.410  1.00  0.00     0.000 A 
ENDBRANCH  79  80
ENDBRANCH  76  79
ENDBRANCH  74  76
ENDBRANCH  72  74
ENDBRANCH  70  71
ENDBRANCH   1  69
TORSDOF 17
ENDMDL
MODEL 7
REMARK VINA RESULT:    -6.495      5.319     10.654
REMARK INTER + INTRA:         -27.895
REMARK INTER:                 -19.807
REMARK INTRA:                  -8.088
REMARK UNBOUND:                -8.489
REMARK SMILES C=C1C(=O)N[C@H](C)C(=O)N[C@@H](CC(C)C)C(=O)N[C@@H](C(=O)O)[C@H](C)C(=O)N[C@@H](CCCN=C(N)N)C(=O)N[C@@H](/C=C/C(C)=C/[C@H](C)[C@H](Cc2ccccc2)OC)[C@H](C)C(=O)N[C@@H](C(=O)O)CCC(=O)N1C
REMARK SMILES IDX 39 1 38 2 37 3 36 4 28 6 27 7 25 8 26 9 23 11 24 12 19 13
REMARK SMILES IDX 18 14 16 15 17 16 11 18 10 19 8 20 9 21 12 24 13 25 14 26
REMARK SMILES IDX 15 27 20 28 21 29 22 30 29 32 30 33 31 34 32 35 33 36 34 37
REMARK SMILES IDX 35 38 57 43 58 44 59 45 60 46 61 47 62 49 66 50 67 51 68 52
REMARK SMILES IDX 69 53 70 54 71 55 2 56 1 57 3 58 4 59 5 60 6 62 7 63 63 65
REMARK SMILES IDX 64 66 65 67 40 69 41 70 42 71 44 72 43 73 45 74 46 75 47 76
REMARK SMILES IDX 55 77 56 78 48 79 49 80 50 81 54 82 51 83 53 84 52 85
REMARK H PARENT 38 5 27 10 18 17 10 22 22 31 34 39 34 40 35 41 35 42 61 48
REMARK H PARENT 5 61 65 68
REMARK Flexibility Score:  369.900
ROOT
ATOM      1  C   UNL     1      -6.636   3.204   4.270  1.00  0.00     0.117 C 
ENDROOT
BRANCH   1   2
ATOM      2  N   UNL     1      -5.507   2.884   5.145  1.00  0.00    -0.347 N 
ATOM      3  O   UNL     1      -4.659   5.008   5.350  1.00  0.00    -0.273 OA
ATOM      4  C   UNL     1      -4.660   3.830   5.691  1.00  0.00     0.243 C 
ATOM      5  H   UNL     1      -5.350   1.927   5.420  1.00  0.00     0.164 HD
BRANCH   4   6
ATOM      6  C   UNL     1      -3.600   3.236   6.652  1.00  0.00     0.171 C 
BRANCH   6   7
ATOM      7  N   UNL     1      -3.153   1.917   6.174  1.00  0.00    -0.344 N 
ATOM      8  C   UNL     1      -2.622   1.771   4.911  1.00  0.00     0.226 C 
ATOM      9  O   UNL     1      -2.516   2.707   4.127  1.00  0.00    -0.275 OA
ATOM     10  H   UNL     1      -3.287   1.109   6.768  1.00  0.00     0.164 HD
BRANCH   8  11
ATOM     11  C   UNL     1      -2.157   0.362   4.587  1.00  0.00     0.109 C 
ATOM     12  C   UNL     1      -3.046  -0.248   3.503  1.00  0.00     0.021 C 
BRANCH  11  13
ATOM     13  C   UNL     1      -0.651   0.371   4.261  1.00  0.00     0.204 C 
BRANCH  13  14
ATOM     14  N   UNL     1      -0.330   1.287   3.161  1.00  0.00    -0.340 N 
ATOM     15  C   UNL     1       0.004   0.851   1.898  1.00  0.00     0.243 C 
ATOM     16  O   UNL     1      -0.003  -0.339   1.586  1.00  0.00    -0.273 OA
ATOM     17  H   UNL     1      -0.159   2.270   3.389  1.00  0.00     0.164 HD
BRANCH  15  18
ATOM     18  C   UNL     1       0.503   1.981   0.965  1.00  0.00     0.171 C 
BRANCH  18  19
ATOM     19  N   UNL     1       1.922   1.728   0.722  1.00  0.00    -0.343 N 
ATOM     20  C   UNL     1       2.849   1.731   1.746  1.00  0.00     0.242 CG0
ATOM     21  O   UNL     1       2.547   2.078   2.885  1.00  0.00    -0.273 OA
ATOM     22  H   UNL     1       2.240   1.550  -0.224  1.00  0.00     0.164 HD
ATOM     23  G   UNL     1       4.282   1.366   1.309  1.00  0.00     0.000 G0
ENDBRANCH  18  19
BRANCH  18  24
ATOM     24  C   UNL     1      -0.297   1.997  -0.343  1.00  0.00     0.038 C 
BRANCH  24  25
ATOM     25  C   UNL     1      -0.813   3.389  -0.767  1.00  0.00    -0.015 C 
ATOM     26  C   UNL     1       0.256   4.216  -1.481  1.00  0.00     0.007 C 
ATOM     27  C   UNL     1      -1.314   4.148   0.464  1.00  0.00     0.007 C 
ENDBRANCH  24  25
ENDBRANCH  18  24
ENDBRANCH  15  18
ENDBRANCH  13  14
BRANCH  13  28
ATOM     28  C   UNL     1       0.223   0.771   5.454  1.00  0.00     0.327 C 
ATOM     29  O   UNL     1       0.720   1.869   5.649  1.00  0.00    -0.250 OA
BRANCH  28  30
ATOM     30  O   UNL     1       0.515  -0.265   6.266  1.00  0.00    -0.480 OA
ATOM     31  H   UNL     1      -0.359  -0.597   6.558  1.00  0.00     0.296 HD
ENDBRANCH  28  30
ENDBRANCH  13  28
ENDBRANCH  11  13
ENDBRANCH   8  11
ENDBRANCH   6   7
BRANCH   6  32
ATOM     32  C   UNL     1      -2.419   4.207   6.762  1.00  0.00     0.037 C 
BRANCH  32  33
ATOM     33  C   UNL     1      -1.916   4.346   8.206  1.00  0.00     0.026 C 
BRANCH  33  34
ATOM     34  C   UNL     1      -0.701   3.461   8.489  1.00  0.00     0.146 C 
BRANCH  34  35
ATOM     35  N   UNL     1      -1.138   2.074   8.564  1.00  0.00    -0.254 NA
ATOM     36  C   UNL     1      -0.318   1.195   9.007  1.00  0.00     0.185 C 
ATOM     37  N   UNL     1      -0.711  -0.086   9.085  1.00  0.00    -0.370 N 
ATOM     38  N   UNL     1       0.947   1.358   9.433  1.00  0.00    -0.370 N 
ATOM     39  H   UNL     1      -1.658  -0.289   8.791  1.00  0.00     0.159 HD
ATOM     40  H   UNL     1      -0.198  -0.796   9.577  1.00  0.00     0.159 HD
ATOM     41  H   UNL     1       1.538   0.566   9.628  1.00  0.00     0.159 HD
ATOM     42  H   UNL     1       1.380   2.268   9.416  1.00  0.00     0.159 HD
ENDBRANCH  34  35
ENDBRANCH  33  34
ENDBRANCH  32  33
ENDBRANCH   6  32
ENDBRANCH   4   6
ENDBRANCH   1   2
BRANCH   1  43
ATOM     43  C   UNL     1      -7.926   2.584   4.880  1.00  0.00     0.102 C 
ATOM     44  C   UNL     1      -8.822   3.614   5.590  1.00  0.00     0.020 C 
BRANCH  43  45
ATOM     45  C   UNL     1      -7.597   1.355   5.733  1.00  0.00     0.225 C 
ATOM     46  O   UNL     1      -7.060   0.349   5.279  1.00  0.00    -0.275 OA
ATOM     47  N   UNL     1      -8.028   1.407   7.038  1.00  0.00    -0.342 N 
ATOM     48  H   UNL     1      -8.327   2.288   7.432  1.00  0.00     0.164 HD
BRANCH  47  49
ATOM     49  C   UNL     1      -7.752   0.318   7.980  1.00  0.00     0.192 C 
BRANCH  49  50
ATOM     50  C   UNL     1      -9.036  -0.474   8.241  1.00  0.00     0.047 C 
BRANCH  50  51
ATOM     51  C   UNL     1      -8.799  -1.990   8.224  1.00  0.00     0.103 C 
BRANCH  51  52
ATOM     52  C   UNL     1      -9.163  -2.643   9.556  1.00  0.00     0.226 C 
ATOM     53  O   UNL     1      -8.544  -2.333  10.576  1.00  0.00    -0.275 OA
BRANCH  52  54
ATOM     54  N   UNL     1     -10.260  -3.524   9.544  1.00  0.00    -0.311 N 
ATOM     55  C   UNL     1     -10.087  -4.952   9.839  1.00  0.00     0.153 C 
BRANCH  54  56
ATOM     56  C   UNL     1     -11.559  -3.072   9.255  1.00  0.00     0.102 C 
ATOM     57  C   UNL     1     -12.071  -2.943   8.020  1.00  0.00     0.043 C 
BRANCH  56  58
ATOM     58  C   UNL     1     -12.524  -2.727  10.365  1.00  0.00     0.268 C 
ATOM     59  O   UNL     1     -12.457  -1.691  11.013  1.00  0.00    -0.268 OA
ATOM     60  N   UNL     1     -13.518  -3.662  10.526  1.00  0.00    -0.339 N 
ATOM     61  H   UNL     1     -13.496  -4.499   9.956  1.00  0.00     0.164 HD
BRANCH  60  62
ATOM     62  C   UNL     1     -14.593  -3.495  11.503  1.00  0.00     0.168 CG0
ATOM     63  C   UNL     1     -14.221  -4.126  12.839  1.00  0.00     0.041 C 
ATOM     64  G   UNL     1     -15.894  -4.114  10.951  1.00  0.00     0.000 G0
ENDBRANCH  60  62
ENDBRANCH  56  58
ENDBRANCH  54  56
ENDBRANCH  52  54
ENDBRANCH  51  52
ENDBRANCH  50  51
ENDBRANCH  49  50
BRANCH  49  65
ATOM     65  C   UNL     1      -7.201   0.847   9.313  1.00  0.00     0.326 C 
ATOM     66  O   UNL     1      -6.102   1.358   9.475  1.00  0.00    -0.250 OA
BRANCH  65  67
ATOM     67  O   UNL     1      -8.015   0.659  10.375  1.00  0.00    -0.480 OA
ATOM     68  H   UNL     1      -8.711   0.058  10.029  1.00  0.00     0.296 HD
ENDBRANCH  65  67
ENDBRANCH  49  65
ENDBRANCH  47  49
ENDBRANCH  43  45
ENDBRANCH   1  43
BRANCH   1  69
ATOM     69  C   UNL     1      -6.216   2.793   2.870  1.00  0.00    -0.001 C 
ATOM     70  C   UNL     1      -5.222   3.313   2.130  1.00  0.00     0.001 C 
BRANCH  70  71
ATOM     71  C   UNL     1      -4.812   2.894   0.788  1.00  0.00    -0.055 C 
ATOM     72  C   UNL     1      -5.108   3.713  -0.243  1.00  0.00    -0.018 C 
ATOM     73  C   UNL     1      -4.082   1.582   0.654  1.00  0.00     0.044 C 
BRANCH  72  74
ATOM     74  C   UNL     1      -4.808   3.542  -1.725  1.00  0.00     0.038 C 
ATOM     75  C   UNL     1      -3.958   4.742  -2.157  1.00  0.00     0.015 C 
BRANCH  74  76
ATOM     76  C   UNL     1      -6.154   3.385  -2.493  1.00  0.00     0.128 C 
BRANCH  76  77
ATOM     77  O   UNL     1      -6.090   4.091  -3.744  1.00  0.00    -0.381 OA
ATOM     78  C   UNL     1      -7.146   5.026  -3.926  1.00  0.00     0.195 C 
ENDBRANCH  76  77
BRANCH  76  79
ATOM     79  C   UNL     1      -6.618   1.916  -2.658  1.00  0.00     0.068 C 
BRANCH  79  80
ATOM     80  C   UNL     1      -7.150   1.202  -1.438  1.00  0.00    -0.045 A 
ATOM     81  C   UNL     1      -6.736  -0.100  -1.126  1.00  0.00     0.004 A 
ATOM     82  C   UNL     1      -8.095   1.826  -0.610  1.00  0.00     0.004 A 
ATOM     83  C   UNL     1      -7.244  -0.759  -0.004  1.00  0.00     0.000 A 
ATOM     84  C   UNL     1      -8.602   1.166   0.511  1.00  0.00     0.000 A 
ATOM     85  C   UNL     1      -8.176  -0.125   0.815  1.00  0.00     0.000 A 
ENDBRANCH  79  80
ENDBRANCH  76  79
ENDBRANCH  74  76
ENDBRANCH  72  74
ENDBRANCH  70  71
ENDBRANCH   1  69
TORSDOF 17
ENDMDL
MODEL 8
REMARK VINA RESULT:    -6.404      4.540      9.351
REMARK INTER + INTRA:         -27.621
REMARK INTER:                 -19.462
REMARK INTRA:                  -8.160
REMARK UNBOUND:                -8.489
REMARK SMILES C=C1C(=O)N[C@H](C)C(=O)N[C@@H](CC(C)C)C(=O)N[C@@H](C(=O)O)[C@H](C)C(=O)N[C@@H](CCCN=C(N)N)C(=O)N[C@@H](/C=C/C(C)=C/[C@H](C)[C@H](Cc2ccccc2)OC)[C@H](C)C(=O)N[C@@H](C(=O)O)CCC(=O)N1C
REMARK SMILES IDX 39 1 38 2 37 3 36 4 28 6 27 7 25 8 26 9 23 11 24 12 19 13
REMARK SMILES IDX 18 14 16 15 17 16 11 18 10 19 8 20 9 21 12 24 13 25 14 26
REMARK SMILES IDX 15 27 20 28 21 29 22 30 29 32 30 33 31 34 32 35 33 36 34 37
REMARK SMILES IDX 35 38 57 43 58 44 59 45 60 46 61 47 62 49 66 50 67 51 68 52
REMARK SMILES IDX 69 53 70 54 71 55 2 56 1 57 3 58 4 59 5 60 6 62 7 63 63 65
REMARK SMILES IDX 64 66 65 67 40 69 41 70 42 71 44 72 43 73 45 74 46 75 47 76
REMARK SMILES IDX 55 77 56 78 48 79 49 80 50 81 54 82 51 83 53 84 52 85
REMARK H PARENT 38 5 27 10 18 17 10 22 22 31 34 39 34 40 35 41 35 42 61 48
REMARK H PARENT 5 61 65 68
REMARK Flexibility Score:  369.900
ROOT
ATOM      1  C   UNL     1      -3.799   2.535  -5.829  1.00  0.00     0.117 C 
ENDROOT
BRANCH   1   2
ATOM      2  N   UNL     1      -5.226   2.538  -5.505  1.00  0.00    -0.347 N 
ATOM      3  O   UNL     1      -5.401   0.347  -4.843  1.00  0.00    -0.273 OA
ATOM      4  C   UNL     1      -5.895   1.465  -4.949  1.00  0.00     0.243 C 
ATOM      5  H   UNL     1      -5.763   3.381  -5.642  1.00  0.00     0.164 HD
BRANCH   4   6
ATOM      6  C   UNL     1      -7.382   1.758  -4.623  1.00  0.00     0.171 C 
BRANCH   6   7
ATOM      7  N   UNL     1      -8.235   1.433  -5.778  1.00  0.00    -0.344 N 
ATOM      8  C   UNL     1      -8.540   2.394  -6.718  1.00  0.00     0.226 C 
ATOM      9  O   UNL     1      -8.145   3.550  -6.633  1.00  0.00    -0.275 OA
ATOM     10  H   UNL     1      -8.636   0.506  -5.847  1.00  0.00     0.164 HD
BRANCH   8  11
ATOM     11  C   UNL     1      -9.384   1.890  -7.875  1.00  0.00     0.109 C 
ATOM     12  C   UNL     1     -10.460   0.932  -7.364  1.00  0.00     0.021 C 
BRANCH  11  13
ATOM     13  C   UNL     1      -9.915   3.085  -8.692  1.00  0.00     0.204 C 
BRANCH  13  14
ATOM     14  N   UNL     1     -10.218   2.715 -10.078  1.00  0.00    -0.340 N 
ATOM     15  C   UNL     1      -9.974   3.551 -11.146  1.00  0.00     0.243 C 
ATOM     16  O   UNL     1      -9.428   4.645 -11.017  1.00  0.00    -0.273 OA
ATOM     17  H   UNL     1     -10.806   1.892 -10.238  1.00  0.00     0.164 HD
BRANCH  15  18
ATOM     18  C   UNL     1     -10.564   3.036 -12.482  1.00  0.00     0.171 C 
BRANCH  18  19
ATOM     19  N   UNL     1     -11.833   3.734 -12.677  1.00  0.00    -0.343 N 
ATOM     20  C   UNL     1     -13.013   3.266 -12.133  1.00  0.00     0.242 CG0
ATOM     21  O   UNL     1     -13.076   2.174 -11.574  1.00  0.00    -0.273 OA
ATOM     22  H   UNL     1     -11.853   4.583 -13.231  1.00  0.00     0.164 HD
ATOM     23  G   UNL     1     -14.233   4.178 -12.379  1.00  0.00     0.000 G0
ENDBRANCH  18  19
BRANCH  18  24
ATOM     24  C   UNL     1      -9.593   3.300 -13.640  1.00  0.00     0.038 C 
BRANCH  24  25
ATOM     25  C   UNL     1      -9.755   2.350 -14.846  1.00  0.00    -0.015 C 
ATOM     26  C   UNL     1     -10.825   2.829 -15.828  1.00  0.00     0.007 C 
ATOM     27  C   UNL     1     -10.103   0.944 -14.351  1.00  0.00     0.007 C 
ENDBRANCH  24  25
ENDBRANCH  18  24
ENDBRANCH  15  18
ENDBRANCH  13  14
BRANCH  13  28
ATOM     28  C   UNL     1     -11.185   3.704  -8.100  1.00  0.00     0.327 C 
ATOM     29  O   UNL     1     -12.335   3.429  -8.409  1.00  0.00    -0.250 OA
BRANCH  28  30
ATOM     30  O   UNL     1     -10.932   4.713  -7.243  1.00  0.00    -0.480 OA
ATOM     31  H   UNL     1     -10.340   5.312  -7.744  1.00  0.00     0.296 HD
ENDBRANCH  28  30
ENDBRANCH  13  28
ENDBRANCH  11  13
ENDBRANCH   8  11
ENDBRANCH   6   7
BRANCH   6  32
ATOM     32  C   UNL     1      -7.796   0.946  -3.391  1.00  0.00     0.037 C 
BRANCH  32  33
ATOM     33  C   UNL     1      -8.258   1.844  -2.235  1.00  0.00     0.026 C 
BRANCH  33  34
ATOM     34  C   UNL     1      -8.238   3.328  -2.602  1.00  0.00     0.146 C 
BRANCH  34  35
ATOM     35  N   UNL     1      -6.990   3.912  -2.129  1.00  0.00    -0.254 NA
ATOM     36  C   UNL     1      -6.362   4.724  -2.895  1.00  0.00     0.185 C 
ATOM     37  N   UNL     1      -5.215   5.272  -2.467  1.00  0.00    -0.370 N 
ATOM     38  N   UNL     1      -6.688   5.141  -4.131  1.00  0.00    -0.370 N 
ATOM     39  H   UNL     1      -4.907   5.014  -1.538  1.00  0.00     0.159 HD
ATOM     40  H   UNL     1      -4.759   6.040  -2.928  1.00  0.00     0.159 HD
ATOM     41  H   UNL     1      -6.040   5.674  -4.688  1.00  0.00     0.159 HD
ATOM     42  H   UNL     1      -7.519   4.797  -4.586  1.00  0.00     0.159 HD
ENDBRANCH  34  35
ENDBRANCH  33  34
ENDBRANCH  32  33
ENDBRANCH   6  32
ENDBRANCH   4   6
ENDBRANCH   1   2
BRANCH   1  43
ATOM     43  C   UNL     1      -3.104   3.663  -5.013  1.00  0.00     0.102 C 
ATOM     44  C   UNL     1      -2.012   4.405  -5.802  1.00  0.00     0.020 C 
BRANCH  43  45
ATOM     45  C   UNL     1      -2.642   3.148  -3.646  1.00  0.00     0.225 C 
ATOM     46  O   UNL     1      -3.075   2.119  -3.136  1.00  0.00    -0.275 OA
ATOM     47  N   UNL     1      -1.767   3.967  -2.969  1.00  0.00    -0.342 N 
ATOM     48  H   UNL     1      -1.309   4.722  -3.459  1.00  0.00     0.164 HD
BRANCH  47  49
ATOM     49  C   UNL     1      -1.214   3.586  -1.666  1.00  0.00     0.192 C 
BRANCH  49  50
ATOM     50  C   UNL     1      -1.929   4.362  -0.557  1.00  0.00     0.047 C 
BRANCH  50  51
ATOM     51  C   UNL     1      -3.219   3.668  -0.101  1.00  0.00     0.103 C 
BRANCH  51  52
ATOM     52  C   UNL     1      -3.398   3.729   1.415  1.00  0.00     0.226 C 
ATOM     53  O   UNL     1      -2.871   4.640   2.055  1.00  0.00    -0.275 OA
BRANCH  52  54
ATOM     54  N   UNL     1      -4.238   2.755   1.986  1.00  0.00    -0.311 N 
ATOM     55  C   UNL     1      -5.698   2.839   1.846  1.00  0.00     0.153 C 
BRANCH  54  56
ATOM     56  C   UNL     1      -3.715   1.667   2.705  1.00  0.00     0.102 C 
ATOM     57  C   UNL     1      -4.404   0.563   3.037  1.00  0.00     0.043 C 
BRANCH  56  58
ATOM     58  C   UNL     1      -2.266   1.645   3.132  1.00  0.00     0.268 C 
ATOM     59  O   UNL     1      -1.850   2.234   4.120  1.00  0.00    -0.268 OA
ATOM     60  N   UNL     1      -1.481   0.844   2.337  1.00  0.00    -0.339 N 
ATOM     61  H   UNL     1      -1.901   0.398   1.530  1.00  0.00     0.164 HD
BRANCH  60  62
ATOM     62  C   UNL     1      -0.061   0.630   2.608  1.00  0.00     0.168 CG0
ATOM     63  C   UNL     1       0.358  -0.790   2.247  1.00  0.00     0.041 C 
ATOM     64  G   UNL     1       0.231   0.924   4.094  1.00  0.00     0.000 G0
ENDBRANCH  60  62
ENDBRANCH  56  58
ENDBRANCH  54  56
ENDBRANCH  52  54
ENDBRANCH  51  52
ENDBRANCH  50  51
ENDBRANCH  49  50
BRANCH  49  65
ATOM     65  C   UNL     1       0.296   3.863  -1.590  1.00  0.00     0.326 C 
ATOM     66  O   UNL     1       1.051   3.958  -2.546  1.00  0.00    -0.250 OA
BRANCH  65  67
ATOM     67  O   UNL     1       0.791   3.947  -0.335  1.00  0.00    -0.480 OA
ATOM     68  H   UNL     1       0.941   3.010  -0.083  1.00  0.00     0.296 HD
ENDBRANCH  65  67
ENDBRANCH  49  65
ENDBRANCH  47  49
ENDBRANCH  43  45
ENDBRANCH   1  43
BRANCH   1  69
ATOM     69  C   UNL     1      -3.708   2.564  -7.344  1.00  0.00    -0.001 C 
ATOM     70  C   UNL     1      -3.489   1.524  -8.168  1.00  0.00     0.001 C 
BRANCH  70  71
ATOM     71  C   UNL     1      -3.425   1.561  -9.631  1.00  0.00    -0.055 C 
ATOM     72  C   UNL     1      -3.977   2.621 -10.257  1.00  0.00    -0.018 C 
ATOM     73  C   UNL     1      -2.740   0.417 -10.332  1.00  0.00     0.044 C 
BRANCH  72  74
ATOM     74  C   UNL     1      -4.057   2.926 -11.746  1.00  0.00     0.038 C 
ATOM     75  C   UNL     1      -3.982   4.449 -11.901  1.00  0.00     0.015 C 
BRANCH  74  76
ATOM     76  C   UNL     1      -5.349   2.274 -12.323  1.00  0.00     0.128 C 
BRANCH  76  77
ATOM     77  O   UNL     1      -5.050   0.965 -12.839  1.00  0.00    -0.381 OA
ATOM     78  C   UNL     1      -3.944   0.943 -13.732  1.00  0.00     0.195 C 
ENDBRANCH  76  77
BRANCH  76  79
ATOM     79  C   UNL     1      -6.545   2.271 -11.339  1.00  0.00     0.068 C 
BRANCH  79  80
ATOM     80  C   UNL     1      -7.096   0.936 -10.899  1.00  0.00    -0.045 A 
ATOM     81  C   UNL     1      -8.027   0.244 -11.685  1.00  0.00     0.004 A 
ATOM     82  C   UNL     1      -6.702   0.378  -9.673  1.00  0.00     0.004 A 
ATOM     83  C   UNL     1      -8.542  -0.983 -11.264  1.00  0.00     0.000 A 
ATOM     84  C   UNL     1      -7.218  -0.850  -9.253  1.00  0.00     0.000 A 
ATOM     85  C   UNL     1      -8.137  -1.531 -10.049  1.00  0.00     0.000 A 
ENDBRANCH  79  80
ENDBRANCH  76  79
ENDBRANCH  74  76
ENDBRANCH  72  74
ENDBRANCH  70  71
ENDBRANCH   1  69
TORSDOF 17
ENDMDL
MODEL 9
REMARK VINA RESULT:    -6.367      4.805     10.797
REMARK INTER + INTRA:         -27.512
REMARK INTER:                 -21.065
REMARK INTRA:                  -6.446
REMARK UNBOUND:                -8.489
REMARK SMILES C=C1C(=O)N[C@H](C)C(=O)N[C@@H](CC(C)C)C(=O)N[C@@H](C(=O)O)[C@H](C)C(=O)N[C@@H](CCCN=C(N)N)C(=O)N[C@@H](/C=C/C(C)=C/[C@H](C)[C@H](Cc2ccccc2)OC)[C@H](C)C(=O)N[C@@H](C(=O)O)CCC(=O)N1C
REMARK SMILES IDX 39 1 38 2 37 3 36 4 28 6 27 7 25 8 26 9 23 11 24 12 19 13
REMARK SMILES IDX 18 14 16 15 17 16 11 18 10 19 8 20 9 21 12 24 13 25 14 26
REMARK SMILES IDX 15 27 20 28 21 29 22 30 29 32 30 33 31 34 32 35 33 36 34 37
REMARK SMILES IDX 35 38 57 43 58 44 59 45 60 46 61 47 62 49 66 50 67 51 68 52
REMARK SMILES IDX 69 53 70 54 71 55 2 56 1 57 3 58 4 59 5 60 6 62 7 63 63 65
REMARK SMILES IDX 64 66 65 67 40 69 41 70 42 71 44 72 43 73 45 74 46 75 47 76
REMARK SMILES IDX 55 77 56 78 48 79 49 80 50 81 54 82 51 83 53 84 52 85
REMARK H PARENT 38 5 27 10 18 17 10 22 22 31 34 39 34 40 35 41 35 42 61 48
REMARK H PARENT 5 61 65 68
REMARK Flexibility Score:  369.900
ROOT
ATOM      1  C   UNL     1      -4.862   2.929   5.074  1.00  0.00     0.117 C 
ENDROOT
BRANCH   1   2
ATOM      2  N   UNL     1      -4.087   1.912   4.364  1.00  0.00    -0.347 N 
ATOM      3  O   UNL     1      -5.849   0.728   3.490  1.00  0.00    -0.273 OA
ATOM      4  C   UNL     1      -4.643   0.943   3.551  1.00  0.00     0.243 C 
ATOM      5  H   UNL     1      -3.080   1.931   4.417  1.00  0.00     0.164 HD
BRANCH   4   6
ATOM      6  C   UNL     1      -3.596   0.043   2.847  1.00  0.00     0.171 C 
BRANCH   6   7
ATOM      7  N   UNL     1      -3.153   0.659   1.586  1.00  0.00    -0.344 N 
ATOM      8  C   UNL     1      -2.287   1.731   1.594  1.00  0.00     0.226 C 
ATOM      9  O   UNL     1      -1.866   2.233   2.629  1.00  0.00    -0.275 OA
ATOM     10  H   UNL     1      -3.532   0.316   0.712  1.00  0.00     0.164 HD
BRANCH   8  11
ATOM     11  C   UNL     1      -1.882   2.218   0.213  1.00  0.00     0.109 C 
ATOM     12  C   UNL     1      -2.517   3.579  -0.072  1.00  0.00     0.021 C 
BRANCH  11  13
ATOM     13  C   UNL     1      -0.347   2.178   0.076  1.00  0.00     0.204 C 
BRANCH  13  14
ATOM     14  N   UNL     1       0.232   0.983   0.699  1.00  0.00    -0.340 N 
ATOM     15  C   UNL     1       1.240   1.042   1.636  1.00  0.00     0.243 C 
ATOM     16  O   UNL     1       1.685   2.107   2.062  1.00  0.00    -0.273 OA
ATOM     17  H   UNL     1       0.017   0.073   0.283  1.00  0.00     0.164 HD
BRANCH  15  18
ATOM     18  C   UNL     1       1.832  -0.343   1.996  1.00  0.00     0.171 C 
BRANCH  18  19
ATOM     19  N   UNL     1       3.269  -0.263   1.741  1.00  0.00    -0.343 N 
ATOM     20  C   UNL     1       3.775  -0.098   0.466  1.00  0.00     0.242 CG0
ATOM     21  O   UNL     1       3.049  -0.144  -0.525  1.00  0.00    -0.273 OA
ATOM     22  H   UNL     1       3.917  -0.336   2.517  1.00  0.00     0.164 HD
ATOM     23  G   UNL     1       5.310   0.044   0.403  1.00  0.00     0.000 G0
ENDBRANCH  18  19
BRANCH  18  24
ATOM     24  C   UNL     1       1.540  -0.693   3.460  1.00  0.00     0.038 C 
BRANCH  24  25
ATOM     25  C   UNL     1       0.751  -2.004   3.664  1.00  0.00    -0.015 C 
ATOM     26  C   UNL     1       1.665  -3.211   3.872  1.00  0.00     0.007 C 
ATOM     27  C   UNL     1      -0.161  -2.249   2.459  1.00  0.00     0.007 C 
ENDBRANCH  24  25
ENDBRANCH  18  24
ENDBRANCH  15  18
ENDBRANCH  13  14
BRANCH  13  28
ATOM     28  C   UNL     1       0.130   2.206  -1.380  1.00  0.00     0.327 C 
ATOM     29  O   UNL     1       0.790   3.089  -1.907  1.00  0.00    -0.250 OA
BRANCH  28  30
ATOM     30  O   UNL     1      -0.352   1.184  -2.114  1.00  0.00    -0.480 OA
ATOM     31  H   UNL     1      -1.263   1.461  -2.345  1.00  0.00     0.296 HD
ENDBRANCH  28  30
ENDBRANCH  13  28
ENDBRANCH  11  13
ENDBRANCH   8  11
ENDBRANCH   6   7
BRANCH   6  32
ATOM     32  C   UNL     1      -2.410  -0.182   3.792  1.00  0.00     0.037 C 
BRANCH  32  33
ATOM     33  C   UNL     1      -2.701  -1.269   4.836  1.00  0.00     0.026 C 
BRANCH  33  34
ATOM     34  C   UNL     1      -2.316  -0.838   6.252  1.00  0.00     0.146 C 
BRANCH  34  35
ATOM     35  N   UNL     1      -1.570  -1.917   6.885  1.00  0.00    -0.254 NA
ATOM     36  C   UNL     1      -0.338  -1.724   7.177  1.00  0.00     0.185 C 
ATOM     37  N   UNL     1       0.357  -2.709   7.765  1.00  0.00    -0.370 N 
ATOM     38  N   UNL     1       0.415  -0.627   6.978  1.00  0.00    -0.370 N 
ATOM     39  H   UNL     1      -0.145  -3.566   7.959  1.00  0.00     0.159 HD
ATOM     40  H   UNL     1       1.265  -2.579   8.179  1.00  0.00     0.159 HD
ATOM     41  H   UNL     1       1.411  -0.646   7.124  1.00  0.00     0.159 HD
ATOM     42  H   UNL     1       0.026   0.187   6.529  1.00  0.00     0.159 HD
ENDBRANCH  34  35
ENDBRANCH  33  34
ENDBRANCH  32  33
ENDBRANCH   6  32
ENDBRANCH   4   6
ENDBRANCH   1   2
BRANCH   1  43
ATOM     43  C   UNL     1      -5.102   4.130   4.114  1.00  0.00     0.102 C 
ATOM     44  C   UNL     1      -4.660   5.481   4.701  1.00  0.00     0.020 C 
BRANCH  43  45
ATOM     45  C   UNL     1      -6.535   4.125   3.574  1.00  0.00     0.225 C 
ATOM     46  O   UNL     1      -6.924   4.890   2.695  1.00  0.00    -0.275 OA
ATOM     47  N   UNL     1      -7.403   3.265   4.206  1.00  0.00    -0.342 N 
ATOM     48  H   UNL     1      -7.039   2.544   4.814  1.00  0.00     0.164 HD
BRANCH  47  49
ATOM     49  C   UNL     1      -8.797   3.128   3.774  1.00  0.00     0.192 C 
BRANCH  49  50
ATOM     50  C   UNL     1      -9.689   2.860   4.989  1.00  0.00     0.047 C 
BRANCH  50  51
ATOM     51  C   UNL     1      -8.889   2.808   6.298  1.00  0.00     0.103 C 
BRANCH  51  52
ATOM     52  C   UNL     1      -8.646   1.374   6.764  1.00  0.00     0.226 C 
ATOM     53  O   UNL     1      -7.903   0.638   6.111  1.00  0.00    -0.275 OA
BRANCH  52  54
ATOM     54  N   UNL     1      -9.242   1.001   7.983  1.00  0.00    -0.311 N 
ATOM     55  C   UNL     1      -8.423   0.687   9.161  1.00  0.00     0.153 C 
BRANCH  54  56
ATOM     56  C   UNL     1     -10.638   0.922   8.120  1.00  0.00     0.102 C 
ATOM     57  C   UNL     1     -11.411  -0.033   7.577  1.00  0.00     0.043 C 
BRANCH  56  58
ATOM     58  C   UNL     1     -11.392   1.923   8.963  1.00  0.00     0.268 C 
ATOM     59  O   UNL     1     -11.337   3.131   8.777  1.00  0.00    -0.268 OA
ATOM     60  N   UNL     1     -12.194   1.336   9.912  1.00  0.00    -0.339 N 
ATOM     61  H   UNL     1     -12.175   0.328  10.010  1.00  0.00     0.164 HD
BRANCH  60  62
ATOM     62  C   UNL     1     -13.058   2.119  10.795  1.00  0.00     0.168 CG0
ATOM     63  C   UNL     1     -12.336   2.480  12.088  1.00  0.00     0.041 C 
ATOM     64  G   UNL     1     -14.347   1.326  11.093  1.00  0.00     0.000 G0
ENDBRANCH  60  62
ENDBRANCH  56  58
ENDBRANCH  54  56
ENDBRANCH  52  54
ENDBRANCH  51  52
ENDBRANCH  50  51
ENDBRANCH  49  50
BRANCH  49  65
ATOM     65  C   UNL     1      -8.966   1.987   2.758  1.00  0.00     0.326 C 
ATOM     66  O   UNL     1      -9.344   2.115   1.602  1.00  0.00    -0.250 OA
BRANCH  65  67
ATOM     67  O   UNL     1      -8.715   0.753   3.248  1.00  0.00    -0.480 OA
ATOM     68  H   UNL     1      -9.609   0.382   3.408  1.00  0.00     0.296 HD
ENDBRANCH  65  67
ENDBRANCH  49  65
ENDBRANCH  47  49
ENDBRANCH  43  45
ENDBRANCH   1  43
BRANCH   1  69
ATOM     69  C   UNL     1      -4.140   3.173   6.387  1.00  0.00    -0.001 C 
ATOM     70  C   UNL     1      -2.880   2.825   6.703  1.00  0.00     0.001 C 
BRANCH  70  71
ATOM     71  C   UNL     1      -2.187   3.085   7.966  1.00  0.00    -0.055 C 
ATOM     72  C   UNL     1      -2.620   4.117   8.719  1.00  0.00    -0.018 C 
ATOM     73  C   UNL     1      -1.044   2.177   8.340  1.00  0.00     0.044 C 
BRANCH  72  74
ATOM     74  C   UNL     1      -2.102   4.615  10.061  1.00  0.00     0.038 C 
ATOM     75  C   UNL     1      -3.248   4.471  11.070  1.00  0.00     0.015 C 
BRANCH  74  76
ATOM     76  C   UNL     1      -1.566   6.066   9.884  1.00  0.00     0.128 C 
BRANCH  76  77
ATOM     77  O   UNL     1      -1.107   6.259   8.536  1.00  0.00    -0.381 OA
ATOM     78  C   UNL     1       0.253   5.894   8.338  1.00  0.00     0.195 C 
ENDBRANCH  76  77
BRANCH  76  79
ATOM     79  C   UNL     1      -2.558   7.164  10.342  1.00  0.00     0.068 C 
BRANCH  79  80
ATOM     80  C   UNL     1      -2.107   8.603  10.264  1.00  0.00    -0.045 A 
ATOM     81  C   UNL     1      -0.745   8.933  10.271  1.00  0.00     0.004 A 
ATOM     82  C   UNL     1      -3.052   9.639  10.212  1.00  0.00     0.004 A 
ATOM     83  C   UNL     1      -0.336  10.267  10.213  1.00  0.00     0.000 A 
ATOM     84  C   UNL     1      -2.641  10.972  10.155  1.00  0.00     0.000 A 
ATOM     85  C   UNL     1      -1.284  11.286  10.154  1.00  0.00     0.000 A 
ENDBRANCH  79  80
ENDBRANCH  76  79
ENDBRANCH  74  76
ENDBRANCH  72  74
ENDBRANCH  70  71
ENDBRANCH   1  69
TORSDOF 17
ENDMDL
MODEL 10
REMARK VINA RESULT:    -6.208      3.667     12.113
REMARK INTER + INTRA:         -27.037
REMARK INTER:                 -17.846
REMARK INTRA:                  -9.191
REMARK UNBOUND:                -8.489
REMARK SMILES C=C1C(=O)N[C@H](C)C(=O)N[C@@H](CC(C)C)C(=O)N[C@@H](C(=O)O)[C@H](C)C(=O)N[C@@H](CCCN=C(N)N)C(=O)N[C@@H](/C=C/C(C)=C/[C@H](C)[C@H](Cc2ccccc2)OC)[C@H](C)C(=O)N[C@@H](C(=O)O)CCC(=O)N1C
REMARK SMILES IDX 39 1 38 2 37 3 36 4 28 6 27 7 25 8 26 9 23 11 24 12 19 13
REMARK SMILES IDX 18 14 16 15 17 16 11 18 10 19 8 20 9 21 12 24 13 25 14 26
REMARK SMILES IDX 15 27 20 28 21 29 22 30 29 32 30 33 31 34 32 35 33 36 34 37
REMARK SMILES IDX 35 38 57 43 58 44 59 45 60 46 61 47 62 49 66 50 67 51 68 52
REMARK SMILES IDX 69 53 70 54 71 55 2 56 1 57 3 58 4 59 5 60 6 62 7 63 63 65
REMARK SMILES IDX 64 66 65 67 40 69 41 70 42 71 44 72 43 73 45 74 46 75 47 76
REMARK SMILES IDX 55 77 56 78 48 79 49 80 50 81 54 82 51 83 53 84 52 85
REMARK H PARENT 38 5 27 10 18 17 10 22 22 31 34 39 34 40 35 41 35 42 61 48
REMARK H PARENT 5 61 65 68
REMARK Flexibility Score:  369.900
ROOT
ATOM      1  C   UNL     1      -9.508   3.000  -3.586  1.00  0.00     0.117 C 
ENDROOT
BRANCH   1   2
ATOM      2  N   UNL     1      -8.304   2.546  -2.889  1.00  0.00    -0.347 N 
ATOM      3  O   UNL     1      -7.625   0.981  -4.426  1.00  0.00    -0.273 OA
ATOM      4  C   UNL     1      -7.406   1.634  -3.411  1.00  0.00     0.243 C 
ATOM      5  H   UNL     1      -8.070   2.946  -1.994  1.00  0.00     0.164 HD
BRANCH   4   6
ATOM      6  C   UNL     1      -6.170   1.390  -2.508  1.00  0.00     0.171 C 
BRANCH   6   7
ATOM      7  N   UNL     1      -5.658   2.665  -1.982  1.00  0.00    -0.344 N 
ATOM      8  C   UNL     1      -4.647   3.339  -2.633  1.00  0.00     0.226 C 
ATOM      9  O   UNL     1      -4.116   2.910  -3.651  1.00  0.00    -0.275 OA
ATOM     10  H   UNL     1      -6.025   3.018  -1.107  1.00  0.00     0.164 HD
BRANCH   8  11
ATOM     11  C   UNL     1      -4.268   4.665  -1.997  1.00  0.00     0.109 C 
ATOM     12  C   UNL     1      -5.221   4.988  -0.846  1.00  0.00     0.021 C 
BRANCH  11  13
ATOM     13  C   UNL     1      -2.773   4.652  -1.617  1.00  0.00     0.204 C 
BRANCH  13  14
ATOM     14  N   UNL     1      -2.401   3.439  -0.883  1.00  0.00    -0.340 N 
ATOM     15  C   UNL     1      -1.977   3.459   0.429  1.00  0.00     0.243 C 
ATOM     16  O   UNL     1      -1.940   4.491   1.095  1.00  0.00    -0.273 OA
ATOM     17  H   UNL     1      -2.265   2.577  -1.417  1.00  0.00     0.164 HD
BRANCH  15  18
ATOM     18  C   UNL     1      -1.442   2.093   0.926  1.00  0.00     0.171 C 
BRANCH  18  19
ATOM     19  N   UNL     1       0.013   2.141   0.794  1.00  0.00    -0.343 N 
ATOM     20  C   UNL     1       0.648   1.822  -0.391  1.00  0.00     0.242 CG0
ATOM     21  O   UNL     1       0.031   1.356  -1.346  1.00  0.00    -0.273 OA
ATOM     22  H   UNL     1       0.576   2.409   1.593  1.00  0.00     0.164 HD
ATOM     23  G   UNL     1       2.179   2.006  -0.363  1.00  0.00     0.000 G0
ENDBRANCH  18  19
BRANCH  18  24
ATOM     24  C   UNL     1      -1.866   1.842   2.378  1.00  0.00     0.038 C 
BRANCH  24  25
ATOM     25  C   UNL     1      -3.322   1.360   2.550  1.00  0.00    -0.015 C 
ATOM     26  C   UNL     1      -4.058   2.105   3.663  1.00  0.00     0.007 C 
ATOM     27  C   UNL     1      -3.336  -0.144   2.840  1.00  0.00     0.007 C 
ENDBRANCH  24  25
ENDBRANCH  18  24
ENDBRANCH  15  18
ENDBRANCH  13  14
BRANCH  13  28
ATOM     28  C   UNL     1      -1.842   4.753  -2.829  1.00  0.00     0.327 C 
ATOM     29  O   UNL     1      -1.835   5.645  -3.663  1.00  0.00    -0.250 OA
BRANCH  28  30
ATOM     30  O   UNL     1      -1.057   3.667  -2.984  1.00  0.00    -0.480 OA
ATOM     31  H   UNL     1      -0.473   3.898  -3.736  1.00  0.00     0.296 HD
ENDBRANCH  28  30
ENDBRANCH  13  28
ENDBRANCH  11  13
ENDBRANCH   8  11
ENDBRANCH   6   7
BRANCH   6  32
ATOM     32  C   UNL     1      -6.559   0.444  -1.367  1.00  0.00     0.037 C 
BRANCH  32  33
ATOM     33  C   UNL     1      -5.774   0.735  -0.080  1.00  0.00     0.026 C 
BRANCH  33  34
ATOM     34  C   UNL     1      -6.683   1.149   1.079  1.00  0.00     0.146 C 
BRANCH  34  35
ATOM     35  N   UNL     1      -7.025   2.556   0.928  1.00  0.00    -0.254 NA
ATOM     36  C   UNL     1      -8.255   2.875   0.759  1.00  0.00     0.185 C 
ATOM     37  N   UNL     1      -8.582   4.169   0.624  1.00  0.00    -0.370 N 
ATOM     38  N   UNL     1      -9.333   2.074   0.693  1.00  0.00    -0.370 N 
ATOM     39  H   UNL     1      -7.823   4.837   0.673  1.00  0.00     0.159 HD
ATOM     40  H   UNL     1      -9.527   4.511   0.663  1.00  0.00     0.159 HD
ATOM     41  H   UNL     1     -10.233   2.434   0.418  1.00  0.00     0.159 HD
ATOM     42  H   UNL     1      -9.234   1.074   0.763  1.00  0.00     0.159 HD
ENDBRANCH  34  35
ENDBRANCH  33  34
ENDBRANCH  32  33
ENDBRANCH   6  32
ENDBRANCH   4   6
ENDBRANCH   1   2
BRANCH   1  43
ATOM     43  C   UNL     1      -9.176   4.320  -4.340  1.00  0.00     0.102 C 
ATOM     44  C   UNL     1     -10.120   5.481  -3.986  1.00  0.00     0.020 C 
BRANCH  43  45
ATOM     45  C   UNL     1      -9.031   4.072  -5.845  1.00  0.00     0.225 C 
ATOM     46  O   UNL     1      -8.960   4.979  -6.670  1.00  0.00    -0.275 OA
ATOM     47  N   UNL     1      -9.080   2.754  -6.235  1.00  0.00    -0.342 N 
ATOM     48  H   UNL     1      -8.985   2.023  -5.544  1.00  0.00     0.164 HD
BRANCH  47  49
ATOM     49  C   UNL     1      -8.919   2.365  -7.640  1.00  0.00     0.192 C 
BRANCH  49  50
ATOM     50  C   UNL     1      -9.832   1.176  -7.952  1.00  0.00     0.047 C 
BRANCH  50  51
ATOM     51  C   UNL     1     -10.898   0.961  -6.869  1.00  0.00     0.103 C 
BRANCH  51  52
ATOM     52  C   UNL     1     -12.299   1.316  -7.365  1.00  0.00     0.226 C 
ATOM     53  O   UNL     1     -13.085   0.416  -7.667  1.00  0.00    -0.275 OA
BRANCH  52  54
ATOM     54  N   UNL     1     -12.633   2.683  -7.374  1.00  0.00    -0.311 N 
ATOM     55  C   UNL     1     -12.709   3.451  -6.124  1.00  0.00     0.153 C 
BRANCH  54  56
ATOM     56  C   UNL     1     -12.901   3.364  -8.573  1.00  0.00     0.102 C 
ATOM     57  C   UNL     1     -11.985   4.021  -9.304  1.00  0.00     0.043 C 
BRANCH  56  58
ATOM     58  C   UNL     1     -14.288   3.365  -9.171  1.00  0.00     0.268 C 
ATOM     59  O   UNL     1     -15.088   4.276  -9.006  1.00  0.00    -0.268 OA
ATOM     60  N   UNL     1     -14.532   2.273  -9.970  1.00  0.00    -0.339 N 
ATOM     61  H   UNL     1     -13.821   1.557 -10.047  1.00  0.00     0.164 HD
BRANCH  60  62
ATOM     62  C   UNL     1     -15.790   2.106 -10.697  1.00  0.00     0.168 CG0
ATOM     63  C   UNL     1     -15.629   2.488 -12.164  1.00  0.00     0.041 C 
ATOM     64  G   UNL     1     -16.890   2.957 -10.029  1.00  0.00     0.000 G0
ENDBRANCH  60  62
ENDBRANCH  56  58
ENDBRANCH  54  56
ENDBRANCH  52  54
ENDBRANCH  51  52
ENDBRANCH  50  51
ENDBRANCH  49  50
BRANCH  49  65
ATOM     65  C   UNL     1      -7.464   1.987  -7.960  1.00  0.00     0.326 C 
ATOM     66  O   UNL     1      -6.780   2.481  -8.845  1.00  0.00    -0.250 OA
BRANCH  65  67
ATOM     67  O   UNL     1      -6.964   0.981  -7.209  1.00  0.00    -0.480 OA
ATOM     68  H   UNL     1      -7.376   0.178  -7.595  1.00  0.00     0.296 HD
ENDBRANCH  65  67
ENDBRANCH  49  65
ENDBRANCH  47  49
ENDBRANCH  43  45
ENDBRANCH   1  43
BRANCH   1  69
ATOM     69  C   UNL     1     -10.619   3.005  -2.552  1.00  0.00    -0.001 C 
ATOM     70  C   UNL     1     -11.818   2.402  -2.638  1.00  0.00     0.001 C 
BRANCH  70  71
ATOM     71  C   UNL     1     -12.874   2.397  -1.624  1.00  0.00    -0.055 C 
ATOM     72  C   UNL     1     -12.676   1.655  -0.515  1.00  0.00    -0.018 C 
ATOM     73  C   UNL     1     -14.104   3.226  -1.887  1.00  0.00     0.044 C 
BRANCH  72  74
ATOM     74  C   UNL     1     -13.584   1.463   0.691  1.00  0.00     0.038 C 
ATOM     75  C   UNL     1     -13.079   2.403   1.793  1.00  0.00     0.015 C 
BRANCH  74  76
ATOM     76  C   UNL     1     -13.595  -0.046   1.075  1.00  0.00     0.128 C 
BRANCH  76  77
ATOM     77  O   UNL     1     -13.756  -0.190   2.497  1.00  0.00    -0.381 OA
ATOM     78  C   UNL     1     -12.718  -0.936   3.117  1.00  0.00     0.195 C 
ENDBRANCH  76  77
BRANCH  76  79
ATOM     79  C   UNL     1     -14.610  -0.894   0.268  1.00  0.00     0.068 C 
BRANCH  79  80
ATOM     80  C   UNL     1     -14.496  -0.890  -1.237  1.00  0.00    -0.045 A 
ATOM     81  C   UNL     1     -15.430  -0.212  -2.031  1.00  0.00     0.004 A 
ATOM     82  C   UNL     1     -13.460  -1.595  -1.869  1.00  0.00     0.004 A 
ATOM     83  C   UNL     1     -15.325  -0.225  -3.423  1.00  0.00     0.000 A 
ATOM     84  C   UNL     1     -13.356  -1.609  -3.262  1.00  0.00     0.000 A 
ATOM     85  C   UNL     1     -14.287  -0.922  -4.038  1.00  0.00     0.000 A 
ENDBRANCH  79  80
ENDBRANCH  76  79
ENDBRANCH  74  76
ENDBRANCH  72  74
ENDBRANCH  70  71
ENDBRANCH   1  69
TORSDOF 17
ENDMDL
