MODEL 1
REMARK VINA RESULT:    -4.692      0.000      0.000
REMARK INTER + INTRA:          -9.843
REMARK INTER:                  -7.984
REMARK INTRA:                  -1.859
REMARK UNBOUND:                -1.859
REMARK SMILES CC[C@H](C)[C@@H]1NC(=O)[C@H]2CSC(=N2)[C@@H]([C@@H](C)CC)NC(=O)c2csc(n2)CNC(=O)[C@H]2N=C1O[C@@H]2C
REMARK SMILES IDX 27 1 25 2 22 3 26 4 23 5 24 6 20 7 19 8 21 9 14 11 12 12
REMARK SMILES IDX 11 13 10 14 13 15 9 16 15 18 16 19 17 20 18 21 28 22 29 23
REMARK SMILES IDX 30 24 31 26 32 27 35 28 33 29 34 30 36 31 5 32 6 33 7 34
REMARK SMILES IDX 8 35 3 38 4 39 2 40 1 41
REMARK H PARENT 19 10 28 25 6 36
REMARK Flexibility Score:   91.900
ROOT
ATOM      1  C   UNL     1      -1.421  -6.242  10.865  1.00  0.00     0.183 C 
ENDROOT
BRANCH   1   2
ATOM      2  C   UNL     1      -2.222  -5.700  12.014  1.00  0.00     0.113 A 
ATOM      3  C   UNL     1      -3.151  -5.584  14.036  1.00  0.00     0.139 A 
ATOM      4  N   UNL     1      -2.227  -6.239  13.220  1.00  0.00    -0.234 NA
ATOM      5  C   UNL     1      -3.788  -4.515  13.436  1.00  0.00     0.101 A 
ATOM      6  S   UNL     1      -3.245  -4.336  11.818  1.00  0.00    -0.125 S 
BRANCH   3   7
ATOM      7  C   UNL     1      -3.405  -6.071  15.393  1.00  0.00     0.271 C 
ATOM      8  N   UNL     1      -3.272  -7.436  15.474  1.00  0.00    -0.341 N 
ATOM      9  O   UNL     1      -3.729  -5.348  16.327  1.00  0.00    -0.267 OA
ATOM     10  H   UNL     1      -2.974  -7.901  14.617  1.00  0.00     0.164 HD
BRANCH   8  11
ATOM     11  C   UNL     1      -3.641  -8.225  16.638  1.00  0.00     0.140 C 
BRANCH  11  12
ATOM     12  C   UNL     1      -4.779  -9.163  16.227  1.00  0.00     0.091 C 
ATOM     13  S   UNL     1      -5.106 -10.616  17.143  1.00  0.00    -0.106 SA
ATOM     14  C   UNL     1      -6.668 -10.834  16.264  1.00  0.00     0.113 C 
ATOM     15  N   UNL     1      -5.486  -8.960  15.160  1.00  0.00    -0.267 NA
ATOM     16  C   UNL     1      -6.447 -10.089  14.957  1.00  0.00     0.205 CG0
ATOM     17  G   UNL     1      -5.944 -11.046  13.864  1.00  0.00     0.000 G0
ENDBRANCH  11  12
BRANCH  11  18
ATOM     18  C   UNL     1      -2.436  -8.879  17.363  1.00  0.00     0.015 C 
ATOM     19  C   UNL     1      -1.189  -8.840  16.470  1.00  0.00     0.010 C 
BRANCH  18  20
ATOM     20  C   UNL     1      -2.143  -8.312  18.766  1.00  0.00     0.002 C 
ATOM     21  C   UNL     1      -1.567  -6.901  18.729  1.00  0.00     0.004 C 
ENDBRANCH  18  20
ENDBRANCH  11  18
ENDBRANCH   8  11
ENDBRANCH   3   7
ENDBRANCH   1   2
BRANCH   1  22
ATOM     22  N   UNL     1      -2.207  -7.283  10.242  1.00  0.00    -0.348 N 
ATOM     23  C   UNL     1      -1.848  -8.603  10.187  1.00  0.00     0.249 C 
ATOM     24  O   UNL     1      -0.851  -9.052  10.741  1.00  0.00    -0.272 OA
ATOM     25  H   UNL     1      -3.047  -7.016   9.731  1.00  0.00     0.163 HD
BRANCH  23  26
ATOM     26  C   UNL     1      -2.858  -9.462   9.411  1.00  0.00     0.238 C 
ATOM     27  N   UNL     1      -3.222 -10.651  10.230  1.00  0.00    -0.236 NA
ATOM     28  C   UNL     1      -4.163  -8.723   9.165  1.00  0.00     0.206 C 
ATOM     29  C   UNL     1      -4.460 -10.423  10.553  1.00  0.00     0.208 C 
ATOM     30  O   UNL     1      -5.068  -9.298  10.106  1.00  0.00    -0.474 OA
ATOM     31  C   UNL     1      -4.709  -8.953   7.762  1.00  0.00     0.056 C 
BRANCH  29  32
ATOM     32  C   UNL     1      -5.332 -11.287  11.460  1.00  0.00     0.171 C 
BRANCH  32  33
ATOM     33  N   UNL     1      -5.812 -10.524  12.601  1.00  0.00    -0.342 N 
ATOM     34  C   UNL     1      -5.962 -11.075  13.851  1.00  0.00     0.246 CG0
ATOM     35  O   UNL     1      -5.729 -12.256  14.095  1.00  0.00    -0.273 OA
ATOM     36  H   UNL     1      -6.090  -9.553  12.502  1.00  0.00     0.164 HD
ATOM     37  G   UNL     1      -6.424 -10.084  14.932  1.00  0.00     0.000 G0
ENDBRANCH  32  33
BRANCH  32  38
ATOM     38  C   UNL     1      -6.486 -11.932  10.648  1.00  0.00     0.017 C 
ATOM     39  C   UNL     1      -6.329 -13.458  10.630  1.00  0.00     0.010 C 
BRANCH  38  40
ATOM     40  C   UNL     1      -7.886 -11.510  11.152  1.00  0.00     0.002 C 
ATOM     41  C   UNL     1      -8.878 -12.663  11.230  1.00  0.00     0.004 C 
ENDBRANCH  38  40
ENDBRANCH  32  38
ENDBRANCH  29  32
ENDBRANCH  23  26
ENDBRANCH   1  22
TORSDOF 4
ENDMDL
MODEL 2
REMARK VINA RESULT:    -4.564      2.457      6.330
REMARK INTER + INTRA:          -9.624
REMARK INTER:                  -8.439
REMARK INTRA:                  -1.185
REMARK UNBOUND:                -1.859
REMARK SMILES CC[C@H](C)[C@@H]1NC(=O)[C@H]2CSC(=N2)[C@@H]([C@@H](C)CC)NC(=O)c2csc(n2)CNC(=O)[C@H]2N=C1O[C@@H]2C
REMARK SMILES IDX 27 1 25 2 22 3 26 4 23 5 24 6 20 7 19 8 21 9 14 11 12 12
REMARK SMILES IDX 11 13 10 14 13 15 9 16 15 18 16 19 17 20 18 21 28 22 29 23
REMARK SMILES IDX 30 24 31 26 32 27 35 28 33 29 34 30 36 31 5 32 6 33 7 34
REMARK SMILES IDX 8 35 3 38 4 39 2 40 1 41
REMARK H PARENT 19 10 28 25 6 36
REMARK Flexibility Score:   91.900
ROOT
ATOM      1  C   UNL     1      -1.678  -7.265  17.404  1.00  0.00     0.183 C 
ENDROOT
BRANCH   1   2
ATOM      2  C   UNL     1      -2.489  -8.508  17.174  1.00  0.00     0.113 A 
ATOM      3  C   UNL     1      -4.189  -9.800  16.537  1.00  0.00     0.139 A 
ATOM      4  N   UNL     1      -3.609  -8.532  16.475  1.00  0.00    -0.234 NA
ATOM      5  C   UNL     1      -3.453 -10.732  17.243  1.00  0.00     0.101 A 
ATOM      6  S   UNL     1      -2.025 -10.010  17.863  1.00  0.00    -0.125 S 
BRANCH   3   7
ATOM      7  C   UNL     1      -5.494 -10.040  15.917  1.00  0.00     0.271 C 
ATOM      8  N   UNL     1      -5.465 -11.131  15.084  1.00  0.00    -0.341 N 
ATOM      9  O   UNL     1      -6.475  -9.330  16.098  1.00  0.00    -0.267 OA
ATOM     10  H   UNL     1      -4.581 -11.639  15.052  1.00  0.00     0.164 HD
BRANCH   8  11
ATOM     11  C   UNL     1      -6.548 -11.506  14.190  1.00  0.00     0.140 C 
BRANCH  11  12
ATOM     12  C   UNL     1      -6.206 -10.983  12.792  1.00  0.00     0.091 C 
ATOM     13  S   UNL     1      -5.484 -12.039  11.601  1.00  0.00    -0.106 SA
ATOM     14  C   UNL     1      -5.778 -10.810  10.312  1.00  0.00     0.113 C 
ATOM     15  N   UNL     1      -6.367  -9.739  12.465  1.00  0.00    -0.267 NA
ATOM     16  C   UNL     1      -5.850  -9.499  11.081  1.00  0.00     0.205 CG0
ATOM     17  G   UNL     1      -4.473  -8.816  11.121  1.00  0.00     0.000 G0
ENDBRANCH  11  12
BRANCH  11  18
ATOM     18  C   UNL     1      -6.958 -12.998  14.286  1.00  0.00     0.015 C 
ATOM     19  C   UNL     1      -5.789 -13.840  14.815  1.00  0.00     0.010 C 
BRANCH  18  20
ATOM     20  C   UNL     1      -8.250 -13.262  15.085  1.00  0.00     0.002 C 
ATOM     21  C   UNL     1      -8.496 -12.227  16.178  1.00  0.00     0.004 C 
ENDBRANCH  18  20
ENDBRANCH  11  18
ENDBRANCH   8  11
ENDBRANCH   3   7
ENDBRANCH   1   2
BRANCH   1  22
ATOM     22  N   UNL     1      -1.934  -6.371  16.297  1.00  0.00    -0.348 N 
ATOM     23  C   UNL     1      -2.999  -5.514  16.217  1.00  0.00     0.249 C 
ATOM     24  O   UNL     1      -3.806  -5.358  17.127  1.00  0.00    -0.272 OA
ATOM     25  H   UNL     1      -1.335  -6.433  15.475  1.00  0.00     0.163 HD
BRANCH  23  26
ATOM     26  C   UNL     1      -3.035  -4.731  14.896  1.00  0.00     0.238 C 
ATOM     27  N   UNL     1      -2.363  -5.530  13.834  1.00  0.00    -0.236 NA
ATOM     28  C   UNL     1      -4.455  -4.513  14.403  1.00  0.00     0.206 C 
ATOM     29  C   UNL     1      -3.343  -5.869  13.051  1.00  0.00     0.208 C 
ATOM     30  O   UNL     1      -4.600  -5.451  13.338  1.00  0.00    -0.474 OA
ATOM     31  C   UNL     1      -4.673  -3.111  13.850  1.00  0.00     0.056 C 
BRANCH  29  32
ATOM     32  C   UNL     1      -3.249  -6.766  11.820  1.00  0.00     0.171 C 
BRANCH  32  33
ATOM     33  N   UNL     1      -4.467  -7.543  11.648  1.00  0.00    -0.342 N 
ATOM     34  C   UNL     1      -4.469  -8.811  11.120  1.00  0.00     0.246 CG0
ATOM     35  O   UNL     1      -3.450  -9.376  10.729  1.00  0.00    -0.273 OA
ATOM     36  H   UNL     1      -5.374  -7.154  11.883  1.00  0.00     0.164 HD
ATOM     37  G   UNL     1      -5.851  -9.482  11.079  1.00  0.00     0.000 G0
ENDBRANCH  32  33
BRANCH  32  38
ATOM     38  C   UNL     1      -2.896  -5.928  10.563  1.00  0.00     0.017 C 
ATOM     39  C   UNL     1      -3.377  -4.482  10.742  1.00  0.00     0.010 C 
BRANCH  38  40
ATOM     40  C   UNL     1      -1.395  -5.987  10.201  1.00  0.00     0.002 C 
ATOM     41  C   UNL     1      -0.693  -7.238  10.713  1.00  0.00     0.004 C 
ENDBRANCH  38  40
ENDBRANCH  32  38
ENDBRANCH  29  32
ENDBRANCH  23  26
ENDBRANCH   1  22
TORSDOF 4
ENDMDL
MODEL 3
REMARK VINA RESULT:    -4.407      2.504      3.597
REMARK INTER + INTRA:          -9.358
REMARK INTER:                  -8.091
REMARK INTRA:                  -1.268
REMARK UNBOUND:                -1.859
REMARK SMILES CC[C@H](C)[C@@H]1NC(=O)[C@H]2CSC(=N2)[C@@H]([C@@H](C)CC)NC(=O)c2csc(n2)CNC(=O)[C@H]2N=C1O[C@@H]2C
REMARK SMILES IDX 27 1 25 2 22 3 26 4 23 5 24 6 20 7 19 8 21 9 14 11 12 12
REMARK SMILES IDX 11 13 10 14 13 15 9 16 15 18 16 19 17 20 18 21 28 22 29 23
REMARK SMILES IDX 30 24 31 26 32 27 35 28 33 29 34 30 36 31 5 32 6 33 7 34
REMARK SMILES IDX 8 35 3 38 4 39 2 40 1 41
REMARK H PARENT 19 10 28 25 6 36
REMARK Flexibility Score:   91.900
ROOT
ATOM      1  C   UNL     1      -2.131  -5.944  10.377  1.00  0.00     0.183 C 
ENDROOT
BRANCH   1   2
ATOM      2  C   UNL     1      -2.764  -5.486  11.659  1.00  0.00     0.113 A 
ATOM      3  C   UNL     1      -3.676  -5.595  13.690  1.00  0.00     0.139 A 
ATOM      4  N   UNL     1      -2.971  -6.277  12.696  1.00  0.00    -0.234 NA
ATOM      5  C   UNL     1      -3.936  -4.271  13.400  1.00  0.00     0.101 A 
ATOM      6  S   UNL     1      -3.315  -3.871  11.850  1.00  0.00    -0.125 S 
BRANCH   3   7
ATOM      7  C   UNL     1      -4.109  -6.302  14.897  1.00  0.00     0.271 C 
ATOM      8  N   UNL     1      -3.065  -6.505  15.766  1.00  0.00    -0.341 N 
ATOM      9  O   UNL     1      -5.255  -6.690  15.085  1.00  0.00    -0.267 OA
ATOM     10  H   UNL     1      -2.172  -6.103  15.484  1.00  0.00     0.164 HD
BRANCH   8  11
ATOM     11  C   UNL     1      -3.142  -7.336  16.957  1.00  0.00     0.140 C 
BRANCH  11  12
ATOM     12  C   UNL     1      -2.459  -8.670  16.644  1.00  0.00     0.091 C 
ATOM     13  S   UNL     1      -0.864  -9.019  17.270  1.00  0.00    -0.106 SA
ATOM     14  C   UNL     1      -1.034 -10.747  16.776  1.00  0.00     0.113 C 
ATOM     15  N   UNL     1      -2.994  -9.548  15.855  1.00  0.00    -0.267 NA
ATOM     16  C   UNL     1      -2.056 -10.696  15.651  1.00  0.00     0.205 CG0
ATOM     17  G   UNL     1      -1.356 -10.597  14.286  1.00  0.00     0.000 G0
ENDBRANCH  11  12
BRANCH  11  18
ATOM     18  C   UNL     1      -2.693  -6.619  18.256  1.00  0.00     0.015 C 
ATOM     19  C   UNL     1      -1.640  -5.549  17.939  1.00  0.00     0.010 C 
BRANCH  18  20
ATOM     20  C   UNL     1      -3.844  -6.044  19.106  1.00  0.00     0.002 C 
ATOM     21  C   UNL     1      -3.926  -4.523  19.046  1.00  0.00     0.004 C 
ENDBRANCH  18  20
ENDBRANCH  11  18
ENDBRANCH   8  11
ENDBRANCH   3   7
ENDBRANCH   1   2
BRANCH   1  22
ATOM     22  N   UNL     1      -2.516  -7.323  10.173  1.00  0.00    -0.348 N 
ATOM     23  C   UNL     1      -3.617  -7.728   9.468  1.00  0.00     0.249 C 
ATOM     24  O   UNL     1      -4.349  -6.955   8.861  1.00  0.00    -0.272 OA
ATOM     25  H   UNL     1      -1.987  -8.050  10.653  1.00  0.00     0.163 HD
BRANCH  23  26
ATOM     26  C   UNL     1      -3.797  -9.254   9.471  1.00  0.00     0.238 C 
ATOM     27  N   UNL     1      -2.496  -9.901   9.800  1.00  0.00    -0.236 NA
ATOM     28  C   UNL     1      -4.762  -9.711  10.551  1.00  0.00     0.206 C 
ATOM     29  C   UNL     1      -2.702 -10.401  10.982  1.00  0.00     0.208 C 
ATOM     30  O   UNL     1      -3.917 -10.253  11.565  1.00  0.00    -0.474 OA
ATOM     31  C   UNL     1      -5.705 -10.804  10.068  1.00  0.00     0.056 C 
BRANCH  29  32
ATOM     32  C   UNL     1      -1.676 -11.123  11.850  1.00  0.00     0.171 C 
BRANCH  32  33
ATOM     33  N   UNL     1      -2.107 -11.163  13.239  1.00  0.00    -0.342 N 
ATOM     34  C   UNL     1      -1.379 -10.595  14.257  1.00  0.00     0.246 CG0
ATOM     35  O   UNL     1      -0.301 -10.034  14.078  1.00  0.00    -0.273 OA
ATOM     36  H   UNL     1      -2.953 -11.651  13.511  1.00  0.00     0.164 HD
ATOM     37  G   UNL     1      -2.037 -10.695  15.643  1.00  0.00     0.000 G0
ENDBRANCH  32  33
BRANCH  32  38
ATOM     38  C   UNL     1      -1.379 -12.535  11.279  1.00  0.00     0.017 C 
ATOM     39  C   UNL     1      -2.691 -13.244  10.918  1.00  0.00     0.010 C 
BRANCH  38  40
ATOM     40  C   UNL     1      -0.400 -12.508  10.083  1.00  0.00     0.002 C 
ATOM     41  C   UNL     1       0.121 -13.884   9.690  1.00  0.00     0.004 C 
ENDBRANCH  38  40
ENDBRANCH  32  38
ENDBRANCH  29  32
ENDBRANCH  23  26
ENDBRANCH   1  22
TORSDOF 4
ENDMDL
MODEL 4
REMARK VINA RESULT:    -4.399     12.890     14.973
REMARK INTER + INTRA:          -9.344
REMARK INTER:                  -8.141
REMARK INTRA:                  -1.202
REMARK UNBOUND:                -1.859
REMARK SMILES CC[C@H](C)[C@@H]1NC(=O)[C@H]2CSC(=N2)[C@@H]([C@@H](C)CC)NC(=O)c2csc(n2)CNC(=O)[C@H]2N=C1O[C@@H]2C
REMARK SMILES IDX 27 1 25 2 22 3 26 4 23 5 24 6 20 7 19 8 21 9 14 11 12 12
REMARK SMILES IDX 11 13 10 14 13 15 9 16 15 18 16 19 17 20 18 21 28 22 29 23
REMARK SMILES IDX 30 24 31 26 32 27 35 28 33 29 34 30 36 31 5 32 6 33 7 34
REMARK SMILES IDX 8 35 3 38 4 39 2 40 1 41
REMARK H PARENT 19 10 28 25 6 36
REMARK Flexibility Score:   91.900
ROOT
ATOM      1  C   UNL     1      -5.128 -20.420   3.894  1.00  0.00     0.183 C 
ENDROOT
BRANCH   1   2
ATOM      2  C   UNL     1      -3.987 -20.456   4.870  1.00  0.00     0.113 A 
ATOM      3  C   UNL     1      -1.947 -20.127   5.705  1.00  0.00     0.139 A 
ATOM      4  N   UNL     1      -2.851 -19.808   4.689  1.00  0.00    -0.234 NA
ATOM      5  C   UNL     1      -2.451 -20.974   6.673  1.00  0.00     0.101 A 
ATOM      6  S   UNL     1      -4.070 -21.403   6.299  1.00  0.00    -0.125 S 
BRANCH   3   7
ATOM      7  C   UNL     1      -0.580 -19.603   5.662  1.00  0.00     0.271 C 
ATOM      8  N   UNL     1      -0.060 -19.651   4.392  1.00  0.00    -0.341 N 
ATOM      9  O   UNL     1       0.028 -19.206   6.647  1.00  0.00    -0.267 OA
ATOM     10  H   UNL     1      -0.695 -19.986   3.668  1.00  0.00     0.164 HD
BRANCH   8  11
ATOM     11  C   UNL     1       1.330 -19.377   4.067  1.00  0.00     0.140 C 
BRANCH  11  12
ATOM     12  C   UNL     1       1.483 -17.863   3.899  1.00  0.00     0.091 C 
ATOM     13  S   UNL     1       1.930 -16.860   5.259  1.00  0.00    -0.106 SA
ATOM     14  C   UNL     1       2.221 -15.465   4.150  1.00  0.00     0.113 C 
ATOM     15  N   UNL     1       1.221 -17.266   2.779  1.00  0.00    -0.267 NA
ATOM     16  C   UNL     1       1.355 -15.784   2.942  1.00  0.00     0.205 CG0
ATOM     17  G   UNL     1      -0.025 -15.119   3.070  1.00  0.00     0.000 G0
ENDBRANCH  11  12
BRANCH  11  18
ATOM     18  C   UNL     1       2.346 -20.073   5.009  1.00  0.00     0.015 C 
ATOM     19  C   UNL     1       2.091 -21.585   5.048  1.00  0.00     0.010 C 
BRANCH  18  20
ATOM     20  C   UNL     1       3.825 -19.758   4.706  1.00  0.00     0.002 C 
ATOM     21  C   UNL     1       4.331 -20.437   3.438  1.00  0.00     0.004 C 
ENDBRANCH  18  20
ENDBRANCH  11  18
ENDBRANCH   8  11
ENDBRANCH   3   7
ENDBRANCH   1   2
BRANCH   1  22
ATOM     22  N   UNL     1      -4.751 -19.531   2.819  1.00  0.00    -0.348 N 
ATOM     23  C   UNL     1      -5.458 -18.422   2.440  1.00  0.00     0.249 C 
ATOM     24  O   UNL     1      -6.450 -18.020   3.037  1.00  0.00    -0.272 OA
ATOM     25  H   UNL     1      -3.951 -19.783   2.239  1.00  0.00     0.163 HD
BRANCH  23  26
ATOM     26  C   UNL     1      -4.839 -17.707   1.229  1.00  0.00     0.238 C 
ATOM     27  N   UNL     1      -4.499 -16.307   1.606  1.00  0.00    -0.236 NA
ATOM     28  C   UNL     1      -3.528 -18.343   0.801  1.00  0.00     0.206 C 
ATOM     29  C   UNL     1      -3.199 -16.307   1.606  1.00  0.00     0.208 C 
ATOM     30  O   UNL     1      -2.532 -17.441   1.282  1.00  0.00    -0.474 OA
ATOM     31  C   UNL     1      -3.397 -18.451  -0.712  1.00  0.00     0.056 C 
BRANCH  29  32
ATOM     32  C   UNL     1      -2.295 -15.140   1.996  1.00  0.00     0.171 C 
BRANCH  32  33
ATOM     33  N   UNL     1      -0.904 -15.559   2.055  1.00  0.00    -0.342 N 
ATOM     34  C   UNL     1      -0.046 -15.144   3.047  1.00  0.00     0.246 CG0
ATOM     35  O   UNL     1      -0.380 -14.371   3.941  1.00  0.00    -0.273 OA
ATOM     36  H   UNL     1      -0.503 -16.151   1.335  1.00  0.00     0.164 HD
ATOM     37  G   UNL     1       1.365 -15.747   2.961  1.00  0.00     0.000 G0
ENDBRANCH  32  33
BRANCH  32  38
ATOM     38  C   UNL     1      -2.515 -13.940   1.039  1.00  0.00     0.017 C 
ATOM     39  C   UNL     1      -2.525 -12.627   1.833  1.00  0.00     0.010 C 
BRANCH  38  40
ATOM     40  C   UNL     1      -1.491 -13.897  -0.119  1.00  0.00     0.002 C 
ATOM     41  C   UNL     1      -1.913 -12.996  -1.272  1.00  0.00     0.004 C 
ENDBRANCH  38  40
ENDBRANCH  32  38
ENDBRANCH  29  32
ENDBRANCH  23  26
ENDBRANCH   1  22
TORSDOF 4
ENDMDL
MODEL 5
REMARK VINA RESULT:    -4.345      2.030      2.603
REMARK INTER + INTRA:          -9.253
REMARK INTER:                  -8.248
REMARK INTRA:                  -1.005
REMARK UNBOUND:                -1.859
REMARK SMILES CC[C@H](C)[C@@H]1NC(=O)[C@H]2CSC(=N2)[C@@H]([C@@H](C)CC)NC(=O)c2csc(n2)CNC(=O)[C@H]2N=C1O[C@@H]2C
REMARK SMILES IDX 27 1 25 2 22 3 26 4 23 5 24 6 20 7 19 8 21 9 14 11 12 12
REMARK SMILES IDX 11 13 10 14 13 15 9 16 15 18 16 19 17 20 18 21 28 22 29 23
REMARK SMILES IDX 30 24 31 26 32 27 35 28 33 29 34 30 36 31 5 32 6 33 7 34
REMARK SMILES IDX 8 35 3 38 4 39 2 40 1 41
REMARK H PARENT 19 10 28 25 6 36
REMARK Flexibility Score:   91.900
ROOT
ATOM      1  C   UNL     1      -2.261  -5.565  10.615  1.00  0.00     0.183 C 
ENDROOT
BRANCH   1   2
ATOM      2  C   UNL     1      -3.024  -5.278  11.877  1.00  0.00     0.113 A 
ATOM      3  C   UNL     1      -4.052  -5.642  13.820  1.00  0.00     0.139 A 
ATOM      4  N   UNL     1      -3.213  -6.166  12.835  1.00  0.00    -0.234 NA
ATOM      5  C   UNL     1      -4.435  -4.332  13.607  1.00  0.00     0.101 A 
ATOM      6  S   UNL     1      -3.759  -3.749  12.141  1.00  0.00    -0.125 S 
BRANCH   3   7
ATOM      7  C   UNL     1      -4.485  -6.483  14.938  1.00  0.00     0.271 C 
ATOM      8  N   UNL     1      -3.527  -6.553  15.919  1.00  0.00    -0.341 N 
ATOM      9  O   UNL     1      -5.557  -7.074  14.969  1.00  0.00    -0.267 OA
ATOM     10  H   UNL     1      -2.694  -5.986  15.763  1.00  0.00     0.164 HD
BRANCH   8  11
ATOM     11  C   UNL     1      -3.589  -7.454  17.058  1.00  0.00     0.140 C 
BRANCH  11  12
ATOM     12  C   UNL     1      -2.928  -8.774  16.650  1.00  0.00     0.091 C 
ATOM     13  S   UNL     1      -1.502  -8.777  15.639  1.00  0.00    -0.106 SA
ATOM     14  C   UNL     1      -1.248 -10.531  15.981  1.00  0.00     0.113 C 
ATOM     15  N   UNL     1      -3.434  -9.923  16.971  1.00  0.00    -0.267 NA
ATOM     16  C   UNL     1      -2.638 -11.027  16.347  1.00  0.00     0.205 CG0
ATOM     17  G   UNL     1      -3.358 -11.591  15.111  1.00  0.00     0.000 G0
ENDBRANCH  11  12
BRANCH  11  18
ATOM     18  C   UNL     1      -3.102  -6.822  18.388  1.00  0.00     0.015 C 
ATOM     19  C   UNL     1      -1.633  -6.396  18.272  1.00  0.00     0.010 C 
BRANCH  18  20
ATOM     20  C   UNL     1      -3.983  -5.671  18.915  1.00  0.00     0.002 C 
ATOM     21  C   UNL     1      -3.346  -4.299  18.726  1.00  0.00     0.004 C 
ENDBRANCH  18  20
ENDBRANCH  11  18
ENDBRANCH   8  11
ENDBRANCH   3   7
ENDBRANCH   1   2
BRANCH   1  22
ATOM     22  N   UNL     1      -1.931  -6.972  10.620  1.00  0.00    -0.348 N 
ATOM     23  C   UNL     1      -2.607  -7.934   9.920  1.00  0.00     0.249 C 
ATOM     24  O   UNL     1      -3.521  -7.682   9.143  1.00  0.00    -0.272 OA
ATOM     25  H   UNL     1      -1.198  -7.296  11.251  1.00  0.00     0.163 HD
BRANCH  23  26
ATOM     26  C   UNL     1      -2.058  -9.347  10.168  1.00  0.00     0.238 C 
ATOM     27  N   UNL     1      -2.278  -9.716  11.594  1.00  0.00    -0.236 NA
ATOM     28  C   UNL     1      -2.801 -10.396   9.358  1.00  0.00     0.206 C 
ATOM     29  C   UNL     1      -3.181 -10.648  11.525  1.00  0.00     0.208 C 
ATOM     30  O   UNL     1      -3.646 -11.037  10.312  1.00  0.00    -0.474 OA
ATOM     31  C   UNL     1      -1.868 -11.438   8.756  1.00  0.00     0.056 C 
BRANCH  29  32
ATOM     32  C   UNL     1      -3.847 -11.352  12.704  1.00  0.00     0.171 C 
BRANCH  32  33
ATOM     33  N   UNL     1      -3.277 -10.904  13.965  1.00  0.00    -0.342 N 
ATOM     34  C   UNL     1      -3.356 -11.646  15.119  1.00  0.00     0.246 CG0
ATOM     35  O   UNL     1      -3.934 -12.729  15.181  1.00  0.00    -0.273 OA
ATOM     36  H   UNL     1      -2.827  -9.998  14.045  1.00  0.00     0.164 HD
ATOM     37  G   UNL     1      -2.639 -11.023  16.328  1.00  0.00     0.000 G0
ENDBRANCH  32  33
BRANCH  32  38
ATOM     38  C   UNL     1      -5.386 -11.166  12.648  1.00  0.00     0.017 C 
ATOM     39  C   UNL     1      -5.729  -9.704  12.336  1.00  0.00     0.010 C 
BRANCH  38  40
ATOM     40  C   UNL     1      -6.075 -12.135  11.660  1.00  0.00     0.002 C 
ATOM     41  C   UNL     1      -7.320 -11.554  11.003  1.00  0.00     0.004 C 
ENDBRANCH  38  40
ENDBRANCH  32  38
ENDBRANCH  29  32
ENDBRANCH  23  26
ENDBRANCH   1  22
TORSDOF 4
ENDMDL
MODEL 6
REMARK VINA RESULT:    -4.340      3.452      7.530
REMARK INTER + INTRA:          -9.244
REMARK INTER:                  -7.667
REMARK INTRA:                  -1.578
REMARK UNBOUND:                -1.859
REMARK SMILES CC[C@H](C)[C@@H]1NC(=O)[C@H]2CSC(=N2)[C@@H]([C@@H](C)CC)NC(=O)c2csc(n2)CNC(=O)[C@H]2N=C1O[C@@H]2C
REMARK SMILES IDX 27 1 25 2 22 3 26 4 23 5 24 6 20 7 19 8 21 9 14 11 12 12
REMARK SMILES IDX 11 13 10 14 13 15 9 16 15 18 16 19 17 20 18 21 28 22 29 23
REMARK SMILES IDX 30 24 31 26 32 27 35 28 33 29 34 30 36 31 5 32 6 33 7 34
REMARK SMILES IDX 8 35 3 38 4 39 2 40 1 41
REMARK H PARENT 19 10 28 25 6 36
REMARK Flexibility Score:   91.900
ROOT
ATOM      1  C   UNL     1      -3.277  -5.464  16.092  1.00  0.00     0.183 C 
ENDROOT
BRANCH   1   2
ATOM      2  C   UNL     1      -3.198  -5.029  14.656  1.00  0.00     0.113 A 
ATOM      3  C   UNL     1      -2.805  -5.132  12.465  1.00  0.00     0.139 A 
ATOM      4  N   UNL     1      -2.920  -5.848  13.658  1.00  0.00    -0.234 NA
ATOM      5  C   UNL     1      -3.060  -3.780  12.582  1.00  0.00     0.101 A 
ATOM      6  S   UNL     1      -3.425  -3.386  14.213  1.00  0.00    -0.125 S 
BRANCH   3   7
ATOM      7  C   UNL     1      -2.402  -5.817  11.235  1.00  0.00     0.271 C 
ATOM      8  N   UNL     1      -2.665  -7.163  11.297  1.00  0.00    -0.341 N 
ATOM      9  O   UNL     1      -1.866  -5.256  10.288  1.00  0.00    -0.267 OA
ATOM     10  H   UNL     1      -3.138  -7.482  12.142  1.00  0.00     0.164 HD
BRANCH   8  11
ATOM     11  C   UNL     1      -2.211  -8.131  10.311  1.00  0.00     0.140 C 
BRANCH  11  12
ATOM     12  C   UNL     1      -0.811  -8.596  10.721  1.00  0.00     0.091 C 
ATOM     13  S   UNL     1      -0.082  -9.993   9.963  1.00  0.00    -0.106 SA
ATOM     14  C   UNL     1       1.510  -9.582  10.706  1.00  0.00     0.113 C 
ATOM     15  N   UNL     1      -0.152  -8.029  11.682  1.00  0.00    -0.267 NA
ATOM     16  C   UNL     1       1.131  -8.760  11.928  1.00  0.00     0.205 CG0
ATOM     17  G   UNL     1       1.021  -9.655  13.173  1.00  0.00     0.000 G0
ENDBRANCH  11  12
BRANCH  11  18
ATOM     18  C   UNL     1      -3.243  -9.244   9.998  1.00  0.00     0.015 C 
ATOM     19  C   UNL     1      -3.637  -9.986  11.283  1.00  0.00     0.010 C 
BRANCH  18  20
ATOM     20  C   UNL     1      -4.486  -8.770   9.218  1.00  0.00     0.002 C 
ATOM     21  C   UNL     1      -4.298  -8.826   7.707  1.00  0.00     0.004 C 
ENDBRANCH  18  20
ENDBRANCH  11  18
ENDBRANCH   8  11
ENDBRANCH   3   7
ENDBRANCH   1   2
BRANCH   1  22
ATOM     22  N   UNL     1      -3.074  -6.895  16.122  1.00  0.00    -0.348 N 
ATOM     23  C   UNL     1      -4.054  -7.826  15.909  1.00  0.00     0.249 C 
ATOM     24  O   UNL     1      -5.199  -7.534  15.583  1.00  0.00    -0.272 OA
ATOM     25  H   UNL     1      -2.161  -7.249  16.404  1.00  0.00     0.163 HD
BRANCH  23  26
ATOM     26  C   UNL     1      -3.548  -9.269  16.061  1.00  0.00     0.238 C 
ATOM     27  N   UNL     1      -2.416  -9.494  15.120  1.00  0.00    -0.236 NA
ATOM     28  C   UNL     1      -2.983  -9.530  17.447  1.00  0.00     0.206 C 
ATOM     29  C   UNL     1      -1.390  -9.608  15.910  1.00  0.00     0.208 C 
ATOM     30  O   UNL     1      -1.570  -9.525  17.251  1.00  0.00    -0.474 OA
ATOM     31  C   UNL     1      -3.393 -10.889  17.998  1.00  0.00     0.056 C 
BRANCH  29  32
ATOM     32  C   UNL     1       0.065  -9.780  15.483  1.00  0.00     0.171 C 
BRANCH  32  33
ATOM     33  N   UNL     1       0.326  -9.082  14.234  1.00  0.00    -0.342 N 
ATOM     34  C   UNL     1       1.034  -9.651  13.202  1.00  0.00     0.246 CG0
ATOM     35  O   UNL     1       1.520 -10.777  13.263  1.00  0.00    -0.273 OA
ATOM     36  H   UNL     1       0.023  -8.125  14.095  1.00  0.00     0.164 HD
ATOM     37  G   UNL     1       1.149  -8.769  11.948  1.00  0.00     0.000 G0
ENDBRANCH  32  33
BRANCH  32  38
ATOM     38  C   UNL     1       1.020  -9.339  16.623  1.00  0.00     0.017 C 
ATOM     39  C   UNL     1       2.161 -10.353  16.777  1.00  0.00     0.010 C 
BRANCH  38  40
ATOM     40  C   UNL     1       1.558  -7.901  16.435  1.00  0.00     0.002 C 
ATOM     41  C   UNL     1       3.031  -7.751  16.791  1.00  0.00     0.004 C 
ENDBRANCH  38  40
ENDBRANCH  32  38
ENDBRANCH  29  32
ENDBRANCH  23  26
ENDBRANCH   1  22
TORSDOF 4
ENDMDL
MODEL 7
REMARK VINA RESULT:    -4.294      7.982     11.280
REMARK INTER + INTRA:          -9.166
REMARK INTER:                  -7.595
REMARK INTRA:                  -1.570
REMARK UNBOUND:                -1.859
REMARK SMILES CC[C@H](C)[C@@H]1NC(=O)[C@H]2CSC(=N2)[C@@H]([C@@H](C)CC)NC(=O)c2csc(n2)CNC(=O)[C@H]2N=C1O[C@@H]2C
REMARK SMILES IDX 27 1 25 2 22 3 26 4 23 5 24 6 20 7 19 8 21 9 14 11 12 12
REMARK SMILES IDX 11 13 10 14 13 15 9 16 15 18 16 19 17 20 18 21 28 22 29 23
REMARK SMILES IDX 30 24 31 26 32 27 35 28 33 29 34 30 36 31 5 32 6 33 7 34
REMARK SMILES IDX 8 35 3 38 4 39 2 40 1 41
REMARK H PARENT 19 10 28 25 6 36
REMARK Flexibility Score:   91.900
ROOT
ATOM      1  C   UNL     1       4.524  -8.013  11.219  1.00  0.00     0.183 C 
ENDROOT
BRANCH   1   2
ATOM      2  C   UNL     1       3.457  -8.304  12.234  1.00  0.00     0.113 A 
ATOM      3  C   UNL     1       2.505  -8.637  14.222  1.00  0.00     0.139 A 
ATOM      4  N   UNL     1       3.637  -8.188  13.537  1.00  0.00    -0.234 NA
ATOM      5  C   UNL     1       1.462  -9.031  13.406  1.00  0.00     0.101 A 
ATOM      6  S   UNL     1       1.907  -8.864  11.757  1.00  0.00    -0.125 S 
BRANCH   3   7
ATOM      7  C   UNL     1       2.509  -8.697  15.685  1.00  0.00     0.271 C 
ATOM      8  N   UNL     1       1.667  -7.761  16.232  1.00  0.00    -0.341 N 
ATOM      9  O   UNL     1       3.208  -9.467  16.332  1.00  0.00    -0.267 OA
ATOM     10  H   UNL     1       1.132  -7.206  15.565  1.00  0.00     0.164 HD
BRANCH   8  11
ATOM     11  C   UNL     1       1.598  -7.454  17.652  1.00  0.00     0.140 C 
BRANCH  11  12
ATOM     12  C   UNL     1       2.601  -6.334  17.939  1.00  0.00     0.091 C 
ATOM     13  S   UNL     1       2.054  -4.779  18.519  1.00  0.00    -0.106 SA
ATOM     14  C   UNL     1       3.754  -4.309  18.903  1.00  0.00     0.113 C 
ATOM     15  N   UNL     1       3.868  -6.468  17.698  1.00  0.00    -0.267 NA
ATOM     16  C   UNL     1       4.582  -5.182  17.974  1.00  0.00     0.205 CG0
ATOM     17  G   UNL     1       4.898  -4.438  16.666  1.00  0.00     0.000 G0
ENDBRANCH  11  12
BRANCH  11  18
ATOM     18  C   UNL     1       0.156  -7.240  18.181  1.00  0.00     0.015 C 
ATOM     19  C   UNL     1      -0.838  -7.176  17.014  1.00  0.00     0.010 C 
BRANCH  18  20
ATOM     20  C   UNL     1      -0.295  -8.256  19.250  1.00  0.00     0.002 C 
ATOM     21  C   UNL     1      -0.349  -9.687  18.727  1.00  0.00     0.004 C 
ENDBRANCH  18  20
ENDBRANCH  11  18
ENDBRANCH   8  11
ENDBRANCH   3   7
ENDBRANCH   1   2
BRANCH   1  22
ATOM     22  N   UNL     1       5.665  -7.480  11.930  1.00  0.00    -0.348 N 
ATOM     23  C   UNL     1       6.581  -6.615  11.397  1.00  0.00     0.249 C 
ATOM     24  O   UNL     1       6.478  -6.133  10.275  1.00  0.00    -0.272 OA
ATOM     25  H   UNL     1       5.859  -7.832  12.867  1.00  0.00     0.163 HD
BRANCH  23  26
ATOM     26  C   UNL     1       7.713  -6.269  12.377  1.00  0.00     0.238 C 
ATOM     27  N   UNL     1       7.526  -4.877  12.872  1.00  0.00    -0.236 NA
ATOM     28  C   UNL     1       7.683  -7.149  13.615  1.00  0.00     0.206 C 
ATOM     29  C   UNL     1       7.207  -5.046  14.121  1.00  0.00     0.208 C 
ATOM     30  O   UNL     1       7.146  -6.302  14.629  1.00  0.00    -0.474 OA
ATOM     31  C   UNL     1       9.072  -7.602  14.044  1.00  0.00     0.056 C 
BRANCH  29  32
ATOM     32  C   UNL     1       6.827  -3.951  15.114  1.00  0.00     0.171 C 
BRANCH  32  33
ATOM     33  N   UNL     1       6.278  -4.523  16.333  1.00  0.00    -0.342 N 
ATOM     34  C   UNL     1       4.943  -4.444  16.653  1.00  0.00     0.246 CG0
ATOM     35  O   UNL     1       4.119  -3.864  15.950  1.00  0.00    -0.273 OA
ATOM     36  H   UNL     1       6.876  -4.975  17.016  1.00  0.00     0.164 HD
ATOM     37  G   UNL     1       4.557  -5.164  17.955  1.00  0.00     0.000 G0
ENDBRANCH  32  33
BRANCH  32  38
ATOM     38  C   UNL     1       8.039  -3.022  15.387  1.00  0.00     0.017 C 
ATOM     39  C   UNL     1       9.325  -3.850  15.492  1.00  0.00     0.010 C 
BRANCH  38  40
ATOM     40  C   UNL     1       8.176  -1.888  14.344  1.00  0.00     0.002 C 
ATOM     41  C   UNL     1       9.588  -1.327  14.236  1.00  0.00     0.004 C 
ENDBRANCH  38  40
ENDBRANCH  32  38
ENDBRANCH  29  32
ENDBRANCH  23  26
ENDBRANCH   1  22
TORSDOF 4
ENDMDL
MODEL 8
REMARK VINA RESULT:    -3.921     10.130     12.754
REMARK INTER + INTRA:          -8.531
REMARK INTER:                  -6.747
REMARK INTRA:                  -1.784
REMARK UNBOUND:                -1.859
REMARK SMILES CC[C@H](C)[C@@H]1NC(=O)[C@H]2CSC(=N2)[C@@H]([C@@H](C)CC)NC(=O)c2csc(n2)CNC(=O)[C@H]2N=C1O[C@@H]2C
REMARK SMILES IDX 27 1 25 2 22 3 26 4 23 5 24 6 20 7 19 8 21 9 14 11 12 12
REMARK SMILES IDX 11 13 10 14 13 15 9 16 15 18 16 19 17 20 18 21 28 22 29 23
REMARK SMILES IDX 30 24 31 26 32 27 35 28 33 29 34 30 36 31 5 32 6 33 7 34
REMARK SMILES IDX 8 35 3 38 4 39 2 40 1 41
REMARK H PARENT 19 10 28 25 6 36
REMARK Flexibility Score:   91.900
ROOT
ATOM      1  C   UNL     1       5.481  -8.059  11.564  1.00  0.00     0.183 C 
ENDROOT
BRANCH   1   2
ATOM      2  C   UNL     1       5.304  -6.687  12.148  1.00  0.00     0.113 A 
ATOM      3  C   UNL     1       5.587  -4.950  13.515  1.00  0.00     0.139 A 
ATOM      4  N   UNL     1       6.068  -6.195  13.106  1.00  0.00    -0.234 NA
ATOM      5  C   UNL     1       4.491  -4.499  12.806  1.00  0.00     0.101 A 
ATOM      6  S   UNL     1       4.034  -5.657  11.624  1.00  0.00    -0.125 S 
BRANCH   3   7
ATOM      7  C   UNL     1       6.216  -4.254  14.639  1.00  0.00     0.271 C 
ATOM      8  N   UNL     1       7.576  -4.447  14.657  1.00  0.00    -0.341 N 
ATOM      9  O   UNL     1       5.595  -3.610  15.475  1.00  0.00    -0.267 OA
ATOM     10  H   UNL     1       7.954  -4.989  13.880  1.00  0.00     0.164 HD
BRANCH   8  11
ATOM     11  C   UNL     1       8.445  -4.041  15.748  1.00  0.00     0.140 C 
BRANCH  11  12
ATOM     12  C   UNL     1       9.189  -5.284  16.245  1.00  0.00     0.091 C 
ATOM     13  S   UNL     1      10.123  -6.261  15.136  1.00  0.00    -0.106 SA
ATOM     14  C   UNL     1      10.862  -7.151  16.522  1.00  0.00     0.113 C 
ATOM     15  N   UNL     1       9.098  -5.695  17.470  1.00  0.00    -0.267 NA
ATOM     16  C   UNL     1       9.840  -6.985  17.636  1.00  0.00     0.205 CG0
ATOM     17  G   UNL     1       8.869  -8.176  17.665  1.00  0.00     0.000 G0
ENDBRANCH  11  12
BRANCH  11  18
ATOM     18  C   UNL     1       9.315  -2.797  15.431  1.00  0.00     0.015 C 
ATOM     19  C   UNL     1       9.889  -2.893  14.011  1.00  0.00     0.010 C 
BRANCH  18  20
ATOM     20  C   UNL     1       8.615  -1.443  15.666  1.00  0.00     0.002 C 
ATOM     21  C   UNL     1       8.458  -0.626  14.389  1.00  0.00     0.004 C 
ENDBRANCH  18  20
ENDBRANCH  11  18
ENDBRANCH   8  11
ENDBRANCH   3   7
ENDBRANCH   1   2
BRANCH   1  22
ATOM     22  N   UNL     1       5.890  -8.936  12.639  1.00  0.00    -0.348 N 
ATOM     23  C   UNL     1       7.080  -9.609  12.686  1.00  0.00     0.249 C 
ATOM     24  O   UNL     1       7.967  -9.466  11.851  1.00  0.00    -0.272 OA
ATOM     25  H   UNL     1       5.218  -9.144  13.377  1.00  0.00     0.163 HD
BRANCH  23  26
ATOM     26  C   UNL     1       7.207 -10.508  13.925  1.00  0.00     0.238 C 
ATOM     27  N   UNL     1       7.687  -9.694  15.076  1.00  0.00    -0.236 NA
ATOM     28  C   UNL     1       5.865 -11.074  14.357  1.00  0.00     0.206 C 
ATOM     29  C   UNL     1       6.652  -9.652  15.862  1.00  0.00     0.208 C 
ATOM     30  O   UNL     1       5.516 -10.299  15.503  1.00  0.00    -0.474 OA
ATOM     31  C   UNL     1       5.952 -12.538  14.767  1.00  0.00     0.056 C 
BRANCH  29  32
ATOM     32  C   UNL     1       6.545  -8.882  17.175  1.00  0.00     0.171 C 
BRANCH  32  33
ATOM     33  N   UNL     1       7.595  -7.881  17.278  1.00  0.00    -0.342 N 
ATOM     34  C   UNL     1       8.874  -8.187  17.680  1.00  0.00     0.246 CG0
ATOM     35  O   UNL     1       9.220  -9.319  18.006  1.00  0.00    -0.273 OA
ATOM     36  H   UNL     1       7.407  -6.902  17.089  1.00  0.00     0.164 HD
ATOM     37  G   UNL     1       9.848  -6.998  17.664  1.00  0.00     0.000 G0
ENDBRANCH  32  33
BRANCH  32  38
ATOM     38  C   UNL     1       5.127  -8.274  17.333  1.00  0.00     0.017 C 
ATOM     39  C   UNL     1       4.755  -8.184  18.819  1.00  0.00     0.010 C 
BRANCH  38  40
ATOM     40  C   UNL     1       4.974  -6.908  16.625  1.00  0.00     0.002 C 
ATOM     41  C   UNL     1       3.631  -6.729  15.929  1.00  0.00     0.004 C 
ENDBRANCH  38  40
ENDBRANCH  32  38
ENDBRANCH  29  32
ENDBRANCH  23  26
ENDBRANCH   1  22
TORSDOF 4
ENDMDL
MODEL 9
REMARK VINA RESULT:    -3.732      2.654      8.066
REMARK INTER + INTRA:          -8.209
REMARK INTER:                  -6.945
REMARK INTRA:                  -1.264
REMARK UNBOUND:                -1.859
REMARK SMILES CC[C@H](C)[C@@H]1NC(=O)[C@H]2CSC(=N2)[C@@H]([C@@H](C)CC)NC(=O)c2csc(n2)CNC(=O)[C@H]2N=C1O[C@@H]2C
REMARK SMILES IDX 27 1 25 2 22 3 26 4 23 5 24 6 20 7 19 8 21 9 14 11 12 12
REMARK SMILES IDX 11 13 10 14 13 15 9 16 15 18 16 19 17 20 18 21 28 22 29 23
REMARK SMILES IDX 30 24 31 26 32 27 35 28 33 29 34 30 36 31 5 32 6 33 7 34
REMARK SMILES IDX 8 35 3 38 4 39 2 40 1 41
REMARK H PARENT 19 10 28 25 6 36
REMARK Flexibility Score:   91.900
ROOT
ATOM      1  C   UNL     1      -4.873 -13.700  15.737  1.00  0.00     0.183 C 
ENDROOT
BRANCH   1   2
ATOM      2  C   UNL     1      -5.569 -13.305  14.466  1.00  0.00     0.113 A 
ATOM      3  C   UNL     1      -6.007 -12.185  12.590  1.00  0.00     0.139 A 
ATOM      4  N   UNL     1      -5.084 -12.426  13.609  1.00  0.00    -0.234 NA
ATOM      5  C   UNL     1      -7.159 -12.943  12.671  1.00  0.00     0.101 A 
ATOM      6  S   UNL     1      -7.104 -13.956  14.055  1.00  0.00    -0.125 S 
BRANCH   3   7
ATOM      7  C   UNL     1      -5.729 -11.167  11.574  1.00  0.00     0.271 C 
ATOM      8  N   UNL     1      -4.547 -10.514  11.823  1.00  0.00    -0.341 N 
ATOM      9  O   UNL     1      -6.480 -10.914  10.640  1.00  0.00    -0.267 OA
ATOM     10  H   UNL     1      -4.018 -10.851  12.626  1.00  0.00     0.164 HD
BRANCH   8  11
ATOM     11  C   UNL     1      -4.098  -9.334  11.102  1.00  0.00     0.140 C 
BRANCH  11  12
ATOM     12  C   UNL     1      -4.073  -8.162  12.087  1.00  0.00     0.091 C 
ATOM     13  S   UNL     1      -2.895  -6.882  11.914  1.00  0.00    -0.106 SA
ATOM     14  C   UNL     1      -3.784  -5.882  13.126  1.00  0.00     0.113 C 
ATOM     15  N   UNL     1      -4.862  -8.111  13.113  1.00  0.00    -0.267 NA
ATOM     16  C   UNL     1      -4.539  -6.913  13.950  1.00  0.00     0.205 CG0
ATOM     17  G   UNL     1      -3.729  -7.314  15.193  1.00  0.00     0.000 G0
ENDBRANCH  11  12
BRANCH  11  18
ATOM     18  C   UNL     1      -2.812  -9.559  10.265  1.00  0.00     0.015 C 
ATOM     19  C   UNL     1      -1.710 -10.179  11.135  1.00  0.00     0.010 C 
BRANCH  18  20
ATOM     20  C   UNL     1      -3.021 -10.361   8.964  1.00  0.00     0.002 C 
ATOM     21  C   UNL     1      -1.711 -10.771   8.301  1.00  0.00     0.004 C 
ENDBRANCH  18  20
ENDBRANCH  11  18
ENDBRANCH   8  11
ENDBRANCH   3   7
ENDBRANCH   1   2
BRANCH   1  22
ATOM     22  N   UNL     1      -5.095 -12.643  16.698  1.00  0.00    -0.348 N 
ATOM     23  C   UNL     1      -5.067 -12.806  18.056  1.00  0.00     0.249 C 
ATOM     24  O   UNL     1      -4.764 -13.862  18.601  1.00  0.00    -0.272 OA
ATOM     25  H   UNL     1      -5.377 -11.726  16.353  1.00  0.00     0.163 HD
BRANCH  23  26
ATOM     26  C   UNL     1      -5.395 -11.513  18.818  1.00  0.00     0.238 C 
ATOM     27  N   UNL     1      -4.245 -10.573  18.707  1.00  0.00    -0.236 NA
ATOM     28  C   UNL     1      -6.579 -10.780  18.210  1.00  0.00     0.206 C 
ATOM     29  C   UNL     1      -4.708  -9.623  17.951  1.00  0.00     0.208 C 
ATOM     30  O   UNL     1      -5.987  -9.689  17.506  1.00  0.00    -0.474 OA
ATOM     31  C   UNL     1      -7.524 -10.220  19.266  1.00  0.00     0.056 C 
BRANCH  29  32
ATOM     32  C   UNL     1      -3.930  -8.413  17.440  1.00  0.00     0.171 C 
BRANCH  32  33
ATOM     33  N   UNL     1      -4.510  -7.907  16.206  1.00  0.00    -0.342 N 
ATOM     34  C   UNL     1      -3.753  -7.328  15.215  1.00  0.00     0.246 CG0
ATOM     35  O   UNL     1      -2.538  -7.171  15.305  1.00  0.00    -0.273 OA
ATOM     36  H   UNL     1      -5.512  -7.931  16.048  1.00  0.00     0.164 HD
ATOM     37  G   UNL     1      -4.549  -6.913  13.966  1.00  0.00     0.000 G0
ENDBRANCH  32  33
BRANCH  32  38
ATOM     38  C   UNL     1      -3.834  -7.325  18.542  1.00  0.00     0.017 C 
ATOM     39  C   UNL     1      -2.453  -7.371  19.208  1.00  0.00     0.010 C 
BRANCH  38  40
ATOM     40  C   UNL     1      -4.168  -5.909  18.020  1.00  0.00     0.002 C 
ATOM     41  C   UNL     1      -3.296  -4.816  18.624  1.00  0.00     0.004 C 
ENDBRANCH  38  40
ENDBRANCH  32  38
ENDBRANCH  29  32
ENDBRANCH  23  26
ENDBRANCH   1  22
TORSDOF 4
ENDMDL
MODEL 10
REMARK VINA RESULT:    -3.326      9.306     11.335
REMARK INTER + INTRA:          -7.519
REMARK INTER:                  -6.162
REMARK INTRA:                  -1.357
REMARK UNBOUND:                -1.859
REMARK SMILES CC[C@H](C)[C@@H]1NC(=O)[C@H]2CSC(=N2)[C@@H]([C@@H](C)CC)NC(=O)c2csc(n2)CNC(=O)[C@H]2N=C1O[C@@H]2C
REMARK SMILES IDX 27 1 25 2 22 3 26 4 23 5 24 6 20 7 19 8 21 9 14 11 12 12
REMARK SMILES IDX 11 13 10 14 13 15 9 16 15 18 16 19 17 20 18 21 28 22 29 23
REMARK SMILES IDX 30 24 31 26 32 27 35 28 33 29 34 30 36 31 5 32 6 33 7 34
REMARK SMILES IDX 8 35 3 38 4 39 2 40 1 41
REMARK H PARENT 19 10 28 25 6 36
REMARK Flexibility Score:   91.900
ROOT
ATOM      1  C   UNL     1       5.771  -9.088  10.873  1.00  0.00     0.183 C 
ENDROOT
BRANCH   1   2
ATOM      2  C   UNL     1       5.951 -10.287  11.759  1.00  0.00     0.113 A 
ATOM      3  C   UNL     1       6.240 -11.481  13.619  1.00  0.00     0.139 A 
ATOM      4  N   UNL     1       5.931 -10.231  13.078  1.00  0.00    -0.234 NA
ATOM      5  C   UNL     1       6.432 -12.477  12.682  1.00  0.00     0.101 A 
ATOM      6  S   UNL     1       6.249 -11.843  11.098  1.00  0.00    -0.125 S 
BRANCH   3   7
ATOM      7  C   UNL     1       6.375 -11.639  15.068  1.00  0.00     0.271 C 
ATOM      8  N   UNL     1       5.198 -11.364  15.719  1.00  0.00    -0.341 N 
ATOM      9  O   UNL     1       7.422 -11.946  15.625  1.00  0.00    -0.267 OA
ATOM     10  H   UNL     1       4.403 -11.145  15.119  1.00  0.00     0.164 HD
BRANCH   8  11
ATOM     11  C   UNL     1       5.069 -11.254  17.163  1.00  0.00     0.140 C 
BRANCH  11  12
ATOM     12  C   UNL     1       4.514  -9.862  17.480  1.00  0.00     0.091 C 
ATOM     13  S   UNL     1       2.822  -9.646  17.861  1.00  0.00    -0.106 SA
ATOM     14  C   UNL     1       3.148  -7.958  18.411  1.00  0.00     0.113 C 
ATOM     15  N   UNL     1       5.249  -8.797  17.407  1.00  0.00    -0.267 NA
ATOM     16  C   UNL     1       4.417  -7.579  17.664  1.00  0.00     0.205 CG0
ATOM     17  G   UNL     1       4.080  -6.858  16.349  1.00  0.00     0.000 G0
ENDBRANCH  11  12
BRANCH  11  18
ATOM     18  C   UNL     1       4.341 -12.452  17.824  1.00  0.00     0.015 C 
ATOM     19  C   UNL     1       3.443 -13.163  16.803  1.00  0.00     0.010 C 
BRANCH  18  20
ATOM     20  C   UNL     1       5.269 -13.449  18.549  1.00  0.00     0.002 C 
ATOM     21  C   UNL     1       5.063 -14.891  18.096  1.00  0.00     0.004 C 
ENDBRANCH  18  20
ENDBRANCH  11  18
ENDBRANCH   8  11
ENDBRANCH   3   7
ENDBRANCH   1   2
BRANCH   1  22
ATOM     22  N   UNL     1       6.225  -7.931  11.612  1.00  0.00    -0.348 N 
ATOM     23  C   UNL     1       6.424  -6.690  11.072  1.00  0.00     0.249 C 
ATOM     24  O   UNL     1       6.153  -6.411   9.909  1.00  0.00    -0.272 OA
ATOM     25  H   UNL     1       6.500  -8.056  12.585  1.00  0.00     0.163 HD
BRANCH  23  26
ATOM     26  C   UNL     1       6.962  -5.676  12.092  1.00  0.00     0.238 C 
ATOM     27  N   UNL     1       5.825  -4.901  12.662  1.00  0.00    -0.236 NA
ATOM     28  C   UNL     1       7.624  -6.359  13.277  1.00  0.00     0.206 C 
ATOM     29  C   UNL     1       5.769  -5.317  13.892  1.00  0.00     0.208 C 
ATOM     30  O   UNL     1       6.665  -6.236  14.327  1.00  0.00    -0.474 OA
ATOM     31  C   UNL     1       8.909  -5.665  13.709  1.00  0.00     0.056 C 
BRANCH  29  32
ATOM     32  C   UNL     1       4.734  -4.911  14.937  1.00  0.00     0.171 C 
BRANCH  32  33
ATOM     33  N   UNL     1       4.855  -5.729  16.133  1.00  0.00    -0.342 N 
ATOM     34  C   UNL     1       4.078  -6.842  16.352  1.00  0.00     0.246 CG0
ATOM     35  O   UNL     1       3.207  -7.215  15.570  1.00  0.00    -0.273 OA
ATOM     36  H   UNL     1       5.501  -5.481  16.875  1.00  0.00     0.164 HD
ATOM     37  G   UNL     1       4.403  -7.601  17.648  1.00  0.00     0.000 G0
ENDBRANCH  32  33
BRANCH  32  38
ATOM     38  C   UNL     1       4.837  -3.393  15.242  1.00  0.00     0.017 C 
ATOM     39  C   UNL     1       4.219  -2.582  14.096  1.00  0.00     0.010 C 
BRANCH  38  40
ATOM     40  C   UNL     1       4.221  -3.009  16.607  1.00  0.00     0.002 C 
ATOM     41  C   UNL     1       3.388  -1.735  16.564  1.00  0.00     0.004 C 
ENDBRANCH  38  40
ENDBRANCH  32  38
ENDBRANCH  29  32
ENDBRANCH  23  26
ENDBRANCH   1  22
TORSDOF 4
ENDMDL
