MODEL 1
REMARK VINA RESULT:    -4.383      0.000      0.000
REMARK INTER + INTRA:         -10.403
REMARK INTER:                  -7.843
REMARK INTRA:                  -2.560
REMARK UNBOUND:                -2.560
REMARK SMILES CC[C@H](C)[C@H]1NC(=O)c2coc(n2)[C@H](C(C)C)NC(=O)[C@H]([C@@H](C)O)NC(=O)[C@H](C)NC(=O)c2csc1n2
REMARK SMILES IDX 11 1 13 2 12 3 9 4 10 5 7 6 6 7 8 8 5 10 36 11 35 12 34 13
REMARK SMILES IDX 37 14 33 15 31 16 32 17 30 18 28 20 29 21 3 23 4 24 2 25
REMARK SMILES IDX 1 26 14 27 18 28 19 29 20 30 21 32 25 33 26 34 27 35 22 38
REMARK SMILES IDX 23 39 24 40 15 42 16 43 17 44
REMARK H PARENT 6 9 30 19 18 31 25 36 24 41
REMARK Flexibility Score:   94.900
ROOT
ATOM      1  O   UNL     1       5.068   7.505   6.079  1.00  0.00    -0.446 OA
ATOM      2  N   UNL     1       6.158   5.532   6.079  1.00  0.00    -0.207 NA
ATOM      3  C   UNL     1       5.472   6.407   6.792  1.00  0.00     0.217 A 
ATOM      4  C   UNL     1       6.186   6.078   4.807  1.00  0.00     0.167 A 
ATOM      5  C   UNL     1       5.519   7.279   4.814  1.00  0.00     0.231 A 
ENDROOT
BRANCH   4   6
ATOM      6  C   UNL     1       6.860   5.445   3.687  1.00  0.00     0.273 C 
ATOM      7  N   UNL     1       7.834   4.574   4.104  1.00  0.00    -0.341 N 
ATOM      8  O   UNL     1       6.599   5.687   2.514  1.00  0.00    -0.267 OA
ATOM      9  H   UNL     1       8.000   4.546   5.106  1.00  0.00     0.164 HD
BRANCH   7  10
ATOM     10  C   UNL     1       8.819   3.999   3.208  1.00  0.00     0.145 C 
BRANCH  10  11
ATOM     11  C   UNL     1      10.194   4.269   3.802  1.00  0.00     0.116 A 
ATOM     12  S   UNL     1      11.599   4.076   2.824  1.00  0.00    -0.124 S 
ATOM     13  C   UNL     1      12.573   4.573   4.138  1.00  0.00     0.101 A 
ATOM     14  N   UNL     1      10.419   4.666   5.043  1.00  0.00    -0.234 NA
ATOM     15  C   UNL     1      11.789   4.860   5.239  1.00  0.00     0.139 A 
BRANCH  15  16
ATOM     16  C   UNL     1      12.324   5.338   6.515  1.00  0.00     0.271 C 
ATOM     17  O   UNL     1      13.498   5.196   6.839  1.00  0.00    -0.267 OA
ATOM     18  N   UNL     1      11.383   5.960   7.308  1.00  0.00    -0.339 N 
ATOM     19  H   UNL     1      10.423   5.916   6.977  1.00  0.00     0.164 HD
BRANCH  18  20
ATOM     20  C   UNL     1      11.719   6.440   8.642  1.00  0.00     0.168 CG0
ATOM     21  C   UNL     1      12.114   7.918   8.619  1.00  0.00     0.041 C 
ATOM     22  G   UNL     1      10.562   6.278   9.641  1.00  0.00     0.000 G0
ENDBRANCH  18  20
ENDBRANCH  15  16
ENDBRANCH  10  11
BRANCH  10  23
ATOM     23  C   UNL     1       8.569   2.489   2.955  1.00  0.00     0.015 C 
ATOM     24  C   UNL     1       8.206   1.710   4.231  1.00  0.00     0.010 C 
BRANCH  23  25
ATOM     25  C   UNL     1       7.478   2.232   1.891  1.00  0.00     0.002 C 
ATOM     26  C   UNL     1       7.716   2.958   0.574  1.00  0.00     0.004 C 
ENDBRANCH  23  25
ENDBRANCH  10  23
ENDBRANCH   7  10
ENDBRANCH   4   6
BRANCH   3  27
ATOM     27  C   UNL     1       5.157   6.332   8.260  1.00  0.00     0.171 C 
BRANCH  27  28
ATOM     28  N   UNL     1       6.248   6.976   8.985  1.00  0.00    -0.342 N 
ATOM     29  C   UNL     1       7.153   6.275   9.749  1.00  0.00     0.245 C 
ATOM     30  O   UNL     1       7.119   5.051   9.865  1.00  0.00    -0.273 OA
ATOM     31  H   UNL     1       6.409   7.973   8.844  1.00  0.00     0.164 HD
BRANCH  29  32
ATOM     32  C   UNL     1       8.311   7.112  10.333  1.00  0.00     0.200 C 
BRANCH  32  33
ATOM     33  N   UNL     1       9.435   7.064   9.390  1.00  0.00    -0.340 N 
ATOM     34  C   UNL     1      10.545   6.282   9.638  1.00  0.00     0.243 CG0
ATOM     35  O   UNL     1      10.670   5.644  10.681  1.00  0.00    -0.273 OA
ATOM     36  H   UNL     1       9.374   7.603   8.534  1.00  0.00     0.164 HD
ATOM     37  G   UNL     1      11.703   6.432   8.638  1.00  0.00     0.000 G0
ENDBRANCH  32  33
BRANCH  32  38
ATOM     38  C   UNL     1       7.858   8.554  10.658  1.00  0.00     0.143 C 
ATOM     39  C   UNL     1       8.791   9.301  11.604  1.00  0.00     0.041 C 
BRANCH  38  40
ATOM     40  O   UNL     1       7.721   9.314   9.442  1.00  0.00    -0.391 OA
ATOM     41  H   UNL     1       7.959  10.235   9.659  1.00  0.00     0.211 HD
ENDBRANCH  38  40
ENDBRANCH  32  38
ENDBRANCH  29  32
ENDBRANCH  27  28
BRANCH  27  42
ATOM     42  C   UNL     1       3.777   6.862   8.722  1.00  0.00     0.015 C 
ATOM     43  C   UNL     1       2.561   6.199   8.064  1.00  0.00     0.010 C 
ATOM     44  C   UNL     1       3.634   6.837  10.247  1.00  0.00     0.010 C 
ENDBRANCH  27  42
ENDBRANCH   3  27
TORSDOF 5
ENDMDL
MODEL 2
REMARK VINA RESULT:    -4.241      1.627      2.110
REMARK INTER + INTRA:         -10.147
REMARK INTER:                  -8.652
REMARK INTRA:                  -1.495
REMARK UNBOUND:                -2.560
REMARK SMILES CC[C@H](C)[C@H]1NC(=O)c2coc(n2)[C@H](C(C)C)NC(=O)[C@H]([C@@H](C)O)NC(=O)[C@H](C)NC(=O)c2csc1n2
REMARK SMILES IDX 11 1 13 2 12 3 9 4 10 5 7 6 6 7 8 8 5 10 36 11 35 12 34 13
REMARK SMILES IDX 37 14 33 15 31 16 32 17 30 18 28 20 29 21 3 23 4 24 2 25
REMARK SMILES IDX 1 26 14 27 18 28 19 29 20 30 21 32 25 33 26 34 27 35 22 38
REMARK SMILES IDX 23 39 24 40 15 42 16 43 17 44
REMARK H PARENT 6 9 30 19 18 31 25 36 24 41
REMARK Flexibility Score:   94.900
ROOT
ATOM      1  O   UNL     1       3.508   7.468   7.810  1.00  0.00    -0.446 OA
ATOM      2  N   UNL     1       5.663   6.856   7.559  1.00  0.00    -0.207 NA
ATOM      3  C   UNL     1       4.670   7.059   8.407  1.00  0.00     0.217 A 
ATOM      4  C   UNL     1       5.109   7.124   6.319  1.00  0.00     0.167 A 
ATOM      5  C   UNL     1       3.797   7.496   6.479  1.00  0.00     0.231 A 
ENDROOT
BRANCH   4   6
ATOM      6  C   UNL     1       5.862   7.040   5.080  1.00  0.00     0.273 C 
ATOM      7  N   UNL     1       6.495   5.830   4.949  1.00  0.00    -0.341 N 
ATOM      8  O   UNL     1       5.936   7.955   4.269  1.00  0.00    -0.267 OA
ATOM      9  H   UNL     1       6.417   5.204   5.745  1.00  0.00     0.164 HD
BRANCH   7  10
ATOM     10  C   UNL     1       7.503   5.568   3.940  1.00  0.00     0.145 C 
BRANCH  10  11
ATOM     11  C   UNL     1       8.831   5.375   4.657  1.00  0.00     0.116 A 
ATOM     12  S   UNL     1      10.301   5.791   3.858  1.00  0.00    -0.124 S 
ATOM     13  C   UNL     1      11.178   5.341   5.255  1.00  0.00     0.101 A 
ATOM     14  N   UNL     1       8.968   4.913   5.888  1.00  0.00    -0.234 NA
ATOM     15  C   UNL     1      10.319   4.907   6.246  1.00  0.00     0.139 A 
BRANCH  15  16
ATOM     16  C   UNL     1      10.761   4.477   7.574  1.00  0.00     0.271 C 
ATOM     17  O   UNL     1      11.035   3.312   7.839  1.00  0.00    -0.267 OA
ATOM     18  N   UNL     1      10.840   5.507   8.488  1.00  0.00    -0.339 N 
ATOM     19  H   UNL     1      10.481   6.406   8.177  1.00  0.00     0.164 HD
BRANCH  18  20
ATOM     20  C   UNL     1      11.198   5.257   9.878  1.00  0.00     0.168 CG0
ATOM     21  C   UNL     1      12.501   5.965  10.253  1.00  0.00     0.041 C 
ATOM     22  G   UNL     1      10.112   5.718  10.863  1.00  0.00     0.000 G0
ENDBRANCH  18  20
ENDBRANCH  15  16
ENDBRANCH  10  11
BRANCH  10  23
ATOM     23  C   UNL     1       7.133   4.358   3.042  1.00  0.00     0.015 C 
ATOM     24  C   UNL     1       7.636   4.497   1.596  1.00  0.00     0.010 C 
BRANCH  23  25
ATOM     25  C   UNL     1       7.637   3.013   3.614  1.00  0.00     0.002 C 
ATOM     26  C   UNL     1       6.645   2.325   4.541  1.00  0.00     0.004 C 
ENDBRANCH  23  25
ENDBRANCH  10  23
ENDBRANCH   7  10
ENDBRANCH   4   6
BRANCH   3  27
ATOM     27  C   UNL     1       4.719   6.938   9.906  1.00  0.00     0.171 C 
BRANCH  27  28
ATOM     28  N   UNL     1       6.014   7.439  10.352  1.00  0.00    -0.342 N 
ATOM     29  C   UNL     1       6.918   6.663  11.043  1.00  0.00     0.245 C 
ATOM     30  O   UNL     1       6.707   5.484  11.322  1.00  0.00    -0.273 OA
ATOM     31  H   UNL     1       6.306   8.371  10.059  1.00  0.00     0.164 HD
BRANCH  29  32
ATOM     32  C   UNL     1       8.284   7.328  11.317  1.00  0.00     0.200 C 
BRANCH  32  33
ATOM     33  N   UNL     1       9.280   6.717  10.428  1.00  0.00    -0.340 N 
ATOM     34  C   UNL     1      10.117   5.715  10.872  1.00  0.00     0.243 CG0
ATOM     35  O   UNL     1      10.113   5.335  12.041  1.00  0.00    -0.273 OA
ATOM     36  H   UNL     1       9.329   7.032   9.466  1.00  0.00     0.164 HD
ATOM     37  G   UNL     1      11.201   5.264   9.880  1.00  0.00     0.000 G0
ENDBRANCH  32  33
BRANCH  32  38
ATOM     38  C   UNL     1       8.205   8.865  11.168  1.00  0.00     0.143 C 
ATOM     39  C   UNL     1       9.212   9.626  12.022  1.00  0.00     0.041 C 
BRANCH  38  40
ATOM     40  O   UNL     1       8.387   9.237   9.788  1.00  0.00    -0.391 OA
ATOM     41  H   UNL     1       9.260   8.893   9.519  1.00  0.00     0.211 HD
ENDBRANCH  38  40
ENDBRANCH  32  38
ENDBRANCH  29  32
ENDBRANCH  27  28
BRANCH  27  42
ATOM     42  C   UNL     1       3.556   7.568  10.710  1.00  0.00     0.015 C 
ATOM     43  C   UNL     1       2.781   8.679   9.993  1.00  0.00     0.010 C 
ATOM     44  C   UNL     1       2.588   6.506  11.245  1.00  0.00     0.010 C 
ENDBRANCH  27  42
ENDBRANCH   3  27
TORSDOF 5
ENDMDL
MODEL 3
REMARK VINA RESULT:    -4.154     20.483     24.478
REMARK INTER + INTRA:          -9.992
REMARK INTER:                  -7.410
REMARK INTRA:                  -2.582
REMARK UNBOUND:                -2.560
REMARK SMILES CC[C@H](C)[C@H]1NC(=O)c2coc(n2)[C@H](C(C)C)NC(=O)[C@H]([C@@H](C)O)NC(=O)[C@H](C)NC(=O)c2csc1n2
REMARK SMILES IDX 11 1 13 2 12 3 9 4 10 5 7 6 6 7 8 8 5 10 36 11 35 12 34 13
REMARK SMILES IDX 37 14 33 15 31 16 32 17 30 18 28 20 29 21 3 23 4 24 2 25
REMARK SMILES IDX 1 26 14 27 18 28 19 29 20 30 21 32 25 33 26 34 27 35 22 38
REMARK SMILES IDX 23 39 24 40 15 42 16 43 17 44
REMARK H PARENT 6 9 30 19 18 31 25 36 24 41
REMARK Flexibility Score:   94.900
ROOT
ATOM      1  O   UNL     1      -7.538  -0.695 -10.490  1.00  0.00    -0.446 OA
ATOM      2  N   UNL     1      -6.536  -2.710 -10.365  1.00  0.00    -0.207 NA
ATOM      3  C   UNL     1      -6.459  -1.425 -10.069  1.00  0.00     0.217 A 
ATOM      4  C   UNL     1      -7.759  -2.839 -11.000  1.00  0.00     0.167 A 
ATOM      5  C   UNL     1      -8.365  -1.608 -11.072  1.00  0.00     0.231 A 
ENDROOT
BRANCH   4   6
ATOM      6  C   UNL     1      -8.256  -4.102 -11.517  1.00  0.00     0.273 C 
ATOM      7  N   UNL     1      -9.469  -4.436 -10.969  1.00  0.00    -0.341 N 
ATOM      8  O   UNL     1      -7.645  -4.791 -12.326  1.00  0.00    -0.267 OA
ATOM      9  H   UNL     1      -9.810  -3.813 -10.242  1.00  0.00     0.164 HD
BRANCH   7  10
ATOM     10  C   UNL     1     -10.070  -5.747 -11.116  1.00  0.00     0.145 C 
BRANCH  10  11
ATOM     11  C   UNL     1      -9.646  -6.585  -9.919  1.00  0.00     0.116 A 
ATOM     12  S   UNL     1     -10.003  -8.271  -9.886  1.00  0.00    -0.124 S 
ATOM     13  C   UNL     1      -9.216  -8.401  -8.375  1.00  0.00     0.101 A 
ATOM     14  N   UNL     1      -8.990  -6.126  -8.866  1.00  0.00    -0.234 NA
ATOM     15  C   UNL     1      -8.724  -7.172  -7.979  1.00  0.00     0.139 A 
BRANCH  15  16
ATOM     16  C   UNL     1      -7.974  -6.958  -6.739  1.00  0.00     0.271 C 
ATOM     17  O   UNL     1      -8.019  -7.735  -5.792  1.00  0.00    -0.267 OA
ATOM     18  N   UNL     1      -7.218  -5.805  -6.745  1.00  0.00    -0.339 N 
ATOM     19  H   UNL     1      -7.352  -5.189  -7.543  1.00  0.00     0.164 HD
BRANCH  18  20
ATOM     20  C   UNL     1      -6.459  -5.394  -5.571  1.00  0.00     0.168 CG0
ATOM     21  C   UNL     1      -4.961  -5.642  -5.763  1.00  0.00     0.041 C 
ATOM     22  G   UNL     1      -6.650  -3.907  -5.231  1.00  0.00     0.000 G0
ENDBRANCH  18  20
ENDBRANCH  15  16
ENDBRANCH  10  11
BRANCH  10  23
ATOM     23  C   UNL     1     -11.613  -5.670 -11.267  1.00  0.00     0.015 C 
ATOM     24  C   UNL     1     -12.145  -4.230 -11.354  1.00  0.00     0.010 C 
BRANCH  23  25
ATOM     25  C   UNL     1     -12.134  -6.464 -12.486  1.00  0.00     0.002 C 
ATOM     26  C   UNL     1     -11.055  -6.824 -13.498  1.00  0.00     0.004 C 
ENDBRANCH  23  25
ENDBRANCH  10  23
ENDBRANCH   7  10
ENDBRANCH   4   6
BRANCH   3  27
ATOM     27  C   UNL     1      -5.318  -0.718  -9.390  1.00  0.00     0.171 C 
BRANCH  27  28
ATOM     28  N   UNL     1      -5.204  -1.252  -8.037  1.00  0.00    -0.342 N 
ATOM     29  C   UNL     1      -5.995  -0.823  -6.995  1.00  0.00     0.245 C 
ATOM     30  O   UNL     1      -6.869   0.033  -7.131  1.00  0.00    -0.273 OA
ATOM     31  H   UNL     1      -4.582  -2.043  -7.873  1.00  0.00     0.164 HD
BRANCH  29  32
ATOM     32  C   UNL     1      -5.818  -1.594  -5.670  1.00  0.00     0.200 C 
BRANCH  32  33
ATOM     33  N   UNL     1      -5.850  -3.032  -5.966  1.00  0.00    -0.340 N 
ATOM     34  C   UNL     1      -6.633  -3.897  -5.229  1.00  0.00     0.243 CG0
ATOM     35  O   UNL     1      -7.284  -3.517  -4.258  1.00  0.00    -0.273 OA
ATOM     36  H   UNL     1      -5.300  -3.380  -6.742  1.00  0.00     0.164 HD
ATOM     37  G   UNL     1      -6.467  -5.389  -5.557  1.00  0.00     0.000 G0
ENDBRANCH  32  33
BRANCH  32  38
ATOM     38  C   UNL     1      -4.530  -1.160  -4.931  1.00  0.00     0.143 C 
ATOM     39  C   UNL     1      -3.397  -2.177  -5.006  1.00  0.00     0.041 C 
BRANCH  38  40
ATOM     40  O   UNL     1      -4.063   0.099  -5.453  1.00  0.00    -0.391 OA
ATOM     41  H   UNL     1      -4.248   0.090  -6.411  1.00  0.00     0.211 HD
ENDBRANCH  38  40
ENDBRANCH  32  38
ENDBRANCH  29  32
ENDBRANCH  27  28
BRANCH  27  42
ATOM     42  C   UNL     1      -3.950  -0.710 -10.116  1.00  0.00     0.015 C 
ATOM     43  C   UNL     1      -3.999  -0.381 -11.612  1.00  0.00     0.010 C 
ATOM     44  C   UNL     1      -2.931   0.187  -9.407  1.00  0.00     0.010 C 
ENDBRANCH  27  42
ENDBRANCH   3  27
TORSDOF 5
ENDMDL
MODEL 4
REMARK VINA RESULT:    -3.997      3.632      5.031
REMARK INTER + INTRA:          -9.711
REMARK INTER:                  -7.715
REMARK INTRA:                  -1.996
REMARK UNBOUND:                -2.560
REMARK SMILES CC[C@H](C)[C@H]1NC(=O)c2coc(n2)[C@H](C(C)C)NC(=O)[C@H]([C@@H](C)O)NC(=O)[C@H](C)NC(=O)c2csc1n2
REMARK SMILES IDX 11 1 13 2 12 3 9 4 10 5 7 6 6 7 8 8 5 10 36 11 35 12 34 13
REMARK SMILES IDX 37 14 33 15 31 16 32 17 30 18 28 20 29 21 3 23 4 24 2 25
REMARK SMILES IDX 1 26 14 27 18 28 19 29 20 30 21 32 25 33 26 34 27 35 22 38
REMARK SMILES IDX 23 39 24 40 15 42 16 43 17 44
REMARK H PARENT 6 9 30 19 18 31 25 36 24 41
REMARK Flexibility Score:   94.900
ROOT
ATOM      1  O   UNL     1       2.750   1.167   5.435  1.00  0.00    -0.446 OA
ATOM      2  N   UNL     1       4.912   1.624   5.881  1.00  0.00    -0.207 NA
ATOM      3  C   UNL     1       3.664   1.696   6.307  1.00  0.00     0.217 A 
ATOM      4  C   UNL     1       4.817   0.981   4.659  1.00  0.00     0.167 A 
ATOM      5  C   UNL     1       3.498   0.705   4.393  1.00  0.00     0.231 A 
ENDROOT
BRANCH   4   6
ATOM      6  C   UNL     1       5.967   0.700   3.818  1.00  0.00     0.273 C 
ATOM      7  N   UNL     1       7.141   0.747   4.527  1.00  0.00    -0.341 N 
ATOM      8  O   UNL     1       5.889   0.474   2.616  1.00  0.00    -0.267 OA
ATOM      9  H   UNL     1       7.058   1.037   5.497  1.00  0.00     0.164 HD
BRANCH   7  10
ATOM     10  C   UNL     1       8.447   0.750   3.898  1.00  0.00     0.145 C 
BRANCH  10  11
ATOM     11  C   UNL     1       8.707   2.160   3.386  1.00  0.00     0.116 A 
ATOM     12  S   UNL     1       9.666   2.392   1.973  1.00  0.00    -0.124 S 
ATOM     13  C   UNL     1       9.423   4.080   2.095  1.00  0.00     0.101 A 
ATOM     14  N   UNL     1       8.236   3.266   3.939  1.00  0.00    -0.234 NA
ATOM     15  C   UNL     1       8.632   4.376   3.188  1.00  0.00     0.139 A 
BRANCH  15  16
ATOM     16  C   UNL     1       8.220   5.735   3.549  1.00  0.00     0.271 C 
ATOM     17  O   UNL     1       8.819   6.734   3.168  1.00  0.00    -0.267 OA
ATOM     18  N   UNL     1       7.099   5.776   4.352  1.00  0.00    -0.339 N 
ATOM     19  H   UNL     1       6.762   4.878   4.689  1.00  0.00     0.164 HD
BRANCH  18  20
ATOM     20  C   UNL     1       6.585   7.038   4.865  1.00  0.00     0.168 CG0
ATOM     21  C   UNL     1       5.370   7.510   4.063  1.00  0.00     0.041 C 
ATOM     22  G   UNL     1       6.169   6.954   6.342  1.00  0.00     0.000 G0
ENDBRANCH  18  20
ENDBRANCH  15  16
ENDBRANCH  10  11
BRANCH  10  23
ATOM     23  C   UNL     1       9.561   0.254   4.857  1.00  0.00     0.015 C 
ATOM     24  C   UNL     1       9.029  -0.615   6.009  1.00  0.00     0.010 C 
BRANCH  23  25
ATOM     25  C   UNL     1      10.677  -0.524   4.125  1.00  0.00     0.002 C 
ATOM     26  C   UNL     1      12.082  -0.020   4.426  1.00  0.00     0.004 C 
ENDBRANCH  23  25
ENDBRANCH  10  23
ENDBRANCH   7  10
ENDBRANCH   4   6
BRANCH   3  27
ATOM     27  C   UNL     1       3.176   2.328   7.582  1.00  0.00     0.171 C 
BRANCH  27  28
ATOM     28  N   UNL     1       3.511   3.747   7.533  1.00  0.00    -0.342 N 
ATOM     29  C   UNL     1       4.481   4.314   8.329  1.00  0.00     0.245 C 
ATOM     30  O   UNL     1       5.150   3.662   9.130  1.00  0.00    -0.273 OA
ATOM     31  H   UNL     1       3.081   4.328   6.815  1.00  0.00     0.164 HD
BRANCH  29  32
ATOM     32  C   UNL     1       4.783   5.800   8.044  1.00  0.00     0.200 C 
BRANCH  32  33
ATOM     33  N   UNL     1       5.361   5.904   6.699  1.00  0.00    -0.340 N 
ATOM     34  C   UNL     1       6.156   6.973   6.341  1.00  0.00     0.243 CG0
ATOM     35  O   UNL     1       6.362   7.913   7.106  1.00  0.00    -0.273 OA
ATOM     36  H   UNL     1       5.184   5.158   6.036  1.00  0.00     0.164 HD
ATOM     37  G   UNL     1       6.580   7.024   4.865  1.00  0.00     0.000 G0
ENDBRANCH  32  33
BRANCH  32  38
ATOM     38  C   UNL     1       3.523   6.678   8.228  1.00  0.00     0.143 C 
ATOM     39  C   UNL     1       3.492   7.455   9.539  1.00  0.00     0.041 C 
BRANCH  38  40
ATOM     40  O   UNL     1       3.406   7.607   7.132  1.00  0.00    -0.391 OA
ATOM     41  H   UNL     1       3.683   7.127   6.329  1.00  0.00     0.211 HD
ENDBRANCH  38  40
ENDBRANCH  32  38
ENDBRANCH  29  32
ENDBRANCH  27  28
BRANCH  27  42
ATOM     42  C   UNL     1       1.693   2.106   7.966  1.00  0.00     0.015 C 
ATOM     43  C   UNL     1       1.414   1.959   9.467  1.00  0.00     0.010 C 
ATOM     44  C   UNL     1       0.777   3.173   7.358  1.00  0.00     0.010 C 
ENDBRANCH  27  42
ENDBRANCH   3  27
TORSDOF 5
ENDMDL
MODEL 5
REMARK VINA RESULT:    -3.941      3.616      5.952
REMARK INTER + INTRA:          -9.612
REMARK INTER:                  -7.458
REMARK INTRA:                  -2.153
REMARK UNBOUND:                -2.560
REMARK SMILES CC[C@H](C)[C@H]1NC(=O)c2coc(n2)[C@H](C(C)C)NC(=O)[C@H]([C@@H](C)O)NC(=O)[C@H](C)NC(=O)c2csc1n2
REMARK SMILES IDX 11 1 13 2 12 3 9 4 10 5 7 6 6 7 8 8 5 10 36 11 35 12 34 13
REMARK SMILES IDX 37 14 33 15 31 16 32 17 30 18 28 20 29 21 3 23 4 24 2 25
REMARK SMILES IDX 1 26 14 27 18 28 19 29 20 30 21 32 25 33 26 34 27 35 22 38
REMARK SMILES IDX 23 39 24 40 15 42 16 43 17 44
REMARK H PARENT 6 9 30 19 18 31 25 36 24 41
REMARK Flexibility Score:   94.900
ROOT
ATOM      1  O   UNL     1       7.026   7.540   6.410  1.00  0.00    -0.446 OA
ATOM      2  N   UNL     1       7.504   5.436   7.061  1.00  0.00    -0.207 NA
ATOM      3  C   UNL     1       7.081   6.631   7.432  1.00  0.00     0.217 A 
ATOM      4  C   UNL     1       7.717   5.559   5.699  1.00  0.00     0.167 A 
ATOM      5  C   UNL     1       7.424   6.843   5.309  1.00  0.00     0.231 A 
ENDROOT
BRANCH   4   6
ATOM      6  C   UNL     1       8.207   4.471   4.871  1.00  0.00     0.273 C 
ATOM      7  N   UNL     1       7.273   4.071   3.949  1.00  0.00    -0.341 N 
ATOM      8  O   UNL     1       9.314   3.963   5.005  1.00  0.00    -0.267 OA
ATOM      9  H   UNL     1       6.365   4.522   4.018  1.00  0.00     0.164 HD
BRANCH   7  10
ATOM     10  C   UNL     1       7.400   2.856   3.169  1.00  0.00     0.145 C 
BRANCH  10  11
ATOM     11  C   UNL     1       6.458   1.822   3.769  1.00  0.00     0.116 A 
ATOM     12  S   UNL     1       6.117   0.372   2.903  1.00  0.00    -0.124 S 
ATOM     13  C   UNL     1       5.124  -0.155   4.190  1.00  0.00     0.101 A 
ATOM     14  N   UNL     1       5.863   1.931   4.945  1.00  0.00    -0.234 NA
ATOM     15  C   UNL     1       5.105   0.786   5.202  1.00  0.00     0.139 A 
BRANCH  15  16
ATOM     16  C   UNL     1       4.366   0.617   6.455  1.00  0.00     0.271 C 
ATOM     17  O   UNL     1       3.650  -0.353   6.678  1.00  0.00    -0.267 OA
ATOM     18  N   UNL     1       4.557   1.648   7.350  1.00  0.00    -0.339 N 
ATOM     19  H   UNL     1       5.084   2.446   7.004  1.00  0.00     0.164 HD
BRANCH  18  20
ATOM     20  C   UNL     1       3.849   1.683   8.623  1.00  0.00     0.168 CG0
ATOM     21  C   UNL     1       4.798   1.429   9.795  1.00  0.00     0.041 C 
ATOM     22  G   UNL     1       3.142   3.026   8.872  1.00  0.00     0.000 G0
ENDBRANCH  18  20
ENDBRANCH  15  16
ENDBRANCH  10  11
BRANCH  10  23
ATOM     23  C   UNL     1       7.130   3.098   1.660  1.00  0.00     0.015 C 
ATOM     24  C   UNL     1       6.574   4.499   1.358  1.00  0.00     0.010 C 
BRANCH  23  25
ATOM     25  C   UNL     1       8.381   2.862   0.784  1.00  0.00     0.002 C 
ATOM     26  C   UNL     1       8.193   1.800  -0.291  1.00  0.00     0.004 C 
ENDBRANCH  23  25
ENDBRANCH  10  23
ENDBRANCH   7  10
ENDBRANCH   4   6
BRANCH   3  27
ATOM     27  C   UNL     1       6.723   7.074   8.824  1.00  0.00     0.171 C 
BRANCH  27  28
ATOM     28  N   UNL     1       5.672   6.191   9.318  1.00  0.00    -0.342 N 
ATOM     29  C   UNL     1       4.332   6.480   9.190  1.00  0.00     0.245 C 
ATOM     30  O   UNL     1       3.921   7.499   8.637  1.00  0.00    -0.273 OA
ATOM     31  H   UNL     1       5.932   5.276   9.685  1.00  0.00     0.164 HD
BRANCH  29  32
ATOM     32  C   UNL     1       3.369   5.367   9.656  1.00  0.00     0.200 C 
BRANCH  32  33
ATOM     33  N   UNL     1       3.946   4.071   9.278  1.00  0.00    -0.340 N 
ATOM     34  C   UNL     1       3.147   3.027   8.861  1.00  0.00     0.243 CG0
ATOM     35  O   UNL     1       1.921   3.111   8.847  1.00  0.00    -0.273 OA
ATOM     36  H   UNL     1       4.953   3.961   9.308  1.00  0.00     0.164 HD
ATOM     37  G   UNL     1       3.868   1.689   8.629  1.00  0.00     0.000 G0
ENDBRANCH  32  33
BRANCH  32  38
ATOM     38  C   UNL     1       3.069   5.476  11.169  1.00  0.00     0.143 C 
ATOM     39  C   UNL     1       2.544   6.839  11.603  1.00  0.00     0.041 C 
BRANCH  38  40
ATOM     40  O   UNL     1       2.119   4.464  11.557  1.00  0.00    -0.391 OA
ATOM     41  H   UNL     1       2.637   3.719  11.917  1.00  0.00     0.211 HD
ENDBRANCH  38  40
ENDBRANCH  32  38
ENDBRANCH  29  32
ENDBRANCH  27  28
BRANCH  27  42
ATOM     42  C   UNL     1       7.877   7.213   9.848  1.00  0.00     0.015 C 
ATOM     43  C   UNL     1       9.261   7.488   9.249  1.00  0.00     0.010 C 
ATOM     44  C   UNL     1       7.555   8.240  10.938  1.00  0.00     0.010 C 
ENDBRANCH  27  42
ENDBRANCH   3  27
TORSDOF 5
ENDMDL
MODEL 6
REMARK VINA RESULT:    -3.886      3.633      5.063
REMARK INTER + INTRA:          -9.513
REMARK INTER:                  -7.181
REMARK INTRA:                  -2.333
REMARK UNBOUND:                -2.560
REMARK SMILES CC[C@H](C)[C@H]1NC(=O)c2coc(n2)[C@H](C(C)C)NC(=O)[C@H]([C@@H](C)O)NC(=O)[C@H](C)NC(=O)c2csc1n2
REMARK SMILES IDX 11 1 13 2 12 3 9 4 10 5 7 6 6 7 8 8 5 10 36 11 35 12 34 13
REMARK SMILES IDX 37 14 33 15 31 16 32 17 30 18 28 20 29 21 3 23 4 24 2 25
REMARK SMILES IDX 1 26 14 27 18 28 19 29 20 30 21 32 25 33 26 34 27 35 22 38
REMARK SMILES IDX 23 39 24 40 15 42 16 43 17 44
REMARK H PARENT 6 9 30 19 18 31 25 36 24 41
REMARK Flexibility Score:   94.900
ROOT
ATOM      1  O   UNL     1       2.515   1.801   7.528  1.00  0.00    -0.446 OA
ATOM      2  N   UNL     1       4.604   1.932   6.691  1.00  0.00    -0.207 NA
ATOM      3  C   UNL     1       3.822   2.155   7.732  1.00  0.00     0.217 A 
ATOM      4  C   UNL     1       3.761   1.369   5.749  1.00  0.00     0.167 A 
ATOM      5  C   UNL     1       2.491   1.291   6.264  1.00  0.00     0.231 A 
ENDROOT
BRANCH   4   6
ATOM      6  C   UNL     1       4.205   0.973   4.423  1.00  0.00     0.273 C 
ATOM      7  N   UNL     1       5.574   0.937   4.334  1.00  0.00    -0.341 N 
ATOM      8  O   UNL     1       3.441   0.727   3.498  1.00  0.00    -0.267 OA
ATOM      9  H   UNL     1       6.078   1.256   5.156  1.00  0.00     0.164 HD
BRANCH   7  10
ATOM     10  C   UNL     1       6.282   0.817   3.074  1.00  0.00     0.145 C 
BRANCH  10  11
ATOM     11  C   UNL     1       6.826   2.193   2.719  1.00  0.00     0.116 A 
ATOM     12  S   UNL     1       7.539   2.457   1.172  1.00  0.00    -0.124 S 
ATOM     13  C   UNL     1       7.800   4.096   1.580  1.00  0.00     0.101 A 
ATOM     14  N   UNL     1       6.790   3.251   3.512  1.00  0.00    -0.234 NA
ATOM     15  C   UNL     1       7.335   4.357   2.855  1.00  0.00     0.139 A 
BRANCH  15  16
ATOM     16  C   UNL     1       7.389   5.677   3.485  1.00  0.00     0.271 C 
ATOM     17  O   UNL     1       8.269   6.495   3.241  1.00  0.00    -0.267 OA
ATOM     18  N   UNL     1       6.359   5.907   4.372  1.00  0.00    -0.339 N 
ATOM     19  H   UNL     1       5.758   5.111   4.571  1.00  0.00     0.164 HD
BRANCH  18  20
ATOM     20  C   UNL     1       6.288   7.141   5.144  1.00  0.00     0.168 CG0
ATOM     21  C   UNL     1       4.971   7.878   4.893  1.00  0.00     0.041 C 
ATOM     22  G   UNL     1       6.413   6.903   6.657  1.00  0.00     0.000 G0
ENDBRANCH  18  20
ENDBRANCH  15  16
ENDBRANCH  10  11
BRANCH  10  23
ATOM     23  C   UNL     1       7.395  -0.263   3.129  1.00  0.00     0.015 C 
ATOM     24  C   UNL     1       8.723   0.260   3.700  1.00  0.00     0.010 C 
BRANCH  23  25
ATOM     25  C   UNL     1       6.972  -1.517   3.927  1.00  0.00     0.002 C 
ATOM     26  C   UNL     1       7.279  -2.831   3.222  1.00  0.00     0.004 C 
ENDBRANCH  23  25
ENDBRANCH  10  23
ENDBRANCH   7  10
ENDBRANCH   4   6
BRANCH   3  27
ATOM     27  C   UNL     1       4.212   2.785   9.041  1.00  0.00     0.171 C 
BRANCH  27  28
ATOM     28  N   UNL     1       4.248   4.230   8.848  1.00  0.00    -0.342 N 
ATOM     29  C   UNL     1       5.325   5.007   9.213  1.00  0.00     0.245 C 
ATOM     30  O   UNL     1       6.344   4.537   9.715  1.00  0.00    -0.273 OA
ATOM     31  H   UNL     1       3.488   4.675   8.334  1.00  0.00     0.164 HD
BRANCH  29  32
ATOM     32  C   UNL     1       5.231   6.494   8.812  1.00  0.00     0.200 C 
BRANCH  32  33
ATOM     33  N   UNL     1       5.265   6.580   7.347  1.00  0.00    -0.340 N 
ATOM     34  C   UNL     1       6.418   6.934   6.677  1.00  0.00     0.243 CG0
ATOM     35  O   UNL     1       7.444   7.254   7.274  1.00  0.00    -0.273 OA
ATOM     36  H   UNL     1       4.425   6.352   6.828  1.00  0.00     0.164 HD
ATOM     37  G   UNL     1       6.276   7.118   5.158  1.00  0.00     0.000 G0
ENDBRANCH  32  33
BRANCH  32  38
ATOM     38  C   UNL     1       3.982   7.168   9.427  1.00  0.00     0.143 C 
ATOM     39  C   UNL     1       2.767   7.184   8.506  1.00  0.00     0.041 C 
BRANCH  38  40
ATOM     40  O   UNL     1       3.625   6.513  10.660  1.00  0.00    -0.391 OA
ATOM     41  H   UNL     1       4.078   6.999  11.375  1.00  0.00     0.211 HD
ENDBRANCH  38  40
ENDBRANCH  32  38
ENDBRANCH  29  32
ENDBRANCH  27  28
BRANCH  27  42
ATOM     42  C   UNL     1       3.388   2.397  10.293  1.00  0.00     0.015 C 
ATOM     43  C   UNL     1       4.205   2.082  11.551  1.00  0.00     0.010 C 
ATOM     44  C   UNL     1       2.305   3.434  10.609  1.00  0.00     0.010 C 
ENDBRANCH  27  42
ENDBRANCH   3  27
TORSDOF 5
ENDMDL
MODEL 7
REMARK VINA RESULT:    -3.478     18.646     23.290
REMARK INTER + INTRA:          -8.783
REMARK INTER:                  -6.175
REMARK INTRA:                  -2.608
REMARK UNBOUND:                -2.560
REMARK SMILES CC[C@H](C)[C@H]1NC(=O)c2coc(n2)[C@H](C(C)C)NC(=O)[C@H]([C@@H](C)O)NC(=O)[C@H](C)NC(=O)c2csc1n2
REMARK SMILES IDX 11 1 13 2 12 3 9 4 10 5 7 6 6 7 8 8 5 10 36 11 35 12 34 13
REMARK SMILES IDX 37 14 33 15 31 16 32 17 30 18 28 20 29 21 3 23 4 24 2 25
REMARK SMILES IDX 1 26 14 27 18 28 19 29 20 30 21 32 25 33 26 34 27 35 22 38
REMARK SMILES IDX 23 39 24 40 15 42 16 43 17 44
REMARK H PARENT 6 9 30 19 18 31 25 36 24 41
REMARK Flexibility Score:   94.900
ROOT
ATOM      1  O   UNL     1      10.568 -10.711 -12.727  1.00  0.00    -0.446 OA
ATOM      2  N   UNL     1      11.907  -9.438 -11.434  1.00  0.00    -0.207 NA
ATOM      3  C   UNL     1      11.657 -10.650 -11.898  1.00  0.00     0.217 A 
ATOM      4  C   UNL     1      10.934  -8.645 -12.017  1.00  0.00     0.167 A 
ATOM      5  C   UNL     1      10.122  -9.426 -12.803  1.00  0.00     0.231 A 
ENDROOT
BRANCH   4   6
ATOM      6  C   UNL     1      10.821  -7.218 -11.769  1.00  0.00     0.273 C 
ATOM      7  N   UNL     1      11.860  -6.749 -11.006  1.00  0.00    -0.341 N 
ATOM      8  O   UNL     1       9.892  -6.531 -12.177  1.00  0.00    -0.267 OA
ATOM      9  H   UNL     1      12.507  -7.453 -10.663  1.00  0.00     0.164 HD
BRANCH   7  10
ATOM     10  C   UNL     1      11.869  -5.429 -10.407  1.00  0.00     0.145 C 
BRANCH  10  11
ATOM     11  C   UNL     1      11.734  -5.606  -8.901  1.00  0.00     0.116 A 
ATOM     12  S   UNL     1      11.876  -4.237  -7.863  1.00  0.00    -0.124 S 
ATOM     13  C   UNL     1      11.581  -5.241  -6.512  1.00  0.00     0.101 A 
ATOM     14  N   UNL     1      11.494  -6.755  -8.291  1.00  0.00    -0.234 NA
ATOM     15  C   UNL     1      11.387  -6.549  -6.914  1.00  0.00     0.139 A 
BRANCH  15  16
ATOM     16  C   UNL     1      11.086  -7.646  -5.992  1.00  0.00     0.271 C 
ATOM     17  O   UNL     1      10.966  -7.484  -4.782  1.00  0.00    -0.267 OA
ATOM     18  N   UNL     1      10.951  -8.868  -6.616  1.00  0.00    -0.339 N 
ATOM     19  H   UNL     1      11.184  -8.890  -7.605  1.00  0.00     0.164 HD
BRANCH  18  20
ATOM     20  C   UNL     1      10.717 -10.085  -5.850  1.00  0.00     0.168 CG0
ATOM     21  C   UNL     1       9.309 -10.632  -6.091  1.00  0.00     0.041 C 
ATOM     22  G   UNL     1      11.720 -11.201  -6.186  1.00  0.00     0.000 G0
ENDBRANCH  18  20
ENDBRANCH  15  16
ENDBRANCH  10  11
BRANCH  10  23
ATOM     23  C   UNL     1      13.134  -4.618 -10.796  1.00  0.00     0.015 C 
ATOM     24  C   UNL     1      14.306  -5.501 -11.253  1.00  0.00     0.010 C 
BRANCH  23  25
ATOM     25  C   UNL     1      12.854  -3.562 -11.888  1.00  0.00     0.002 C 
ATOM     26  C   UNL     1      11.412  -3.074 -11.923  1.00  0.00     0.004 C 
ENDBRANCH  23  25
ENDBRANCH  10  23
ENDBRANCH   7  10
ENDBRANCH   4   6
BRANCH   3  27
ATOM     27  C   UNL     1      12.396 -11.918 -11.568  1.00  0.00     0.171 C 
BRANCH  27  28
ATOM     28  N   UNL     1      12.052 -12.292 -10.200  1.00  0.00    -0.342 N 
ATOM     29  C   UNL     1      12.995 -12.659  -9.267  1.00  0.00     0.245 C 
ATOM     30  O   UNL     1      14.200 -12.684  -9.512  1.00  0.00    -0.273 OA
ATOM     31  H   UNL     1      11.086 -12.185  -9.891  1.00  0.00     0.164 HD
BRANCH  29  32
ATOM     32  C   UNL     1      12.454 -12.894  -7.841  1.00  0.00     0.200 C 
BRANCH  32  33
ATOM     33  N   UNL     1      11.650 -11.729  -7.454  1.00  0.00    -0.340 N 
ATOM     34  C   UNL     1      11.716 -11.203  -6.181  1.00  0.00     0.243 CG0
ATOM     35  O   UNL     1      12.398 -11.722  -5.299  1.00  0.00    -0.273 OA
ATOM     36  H   UNL     1      11.054 -11.298  -8.152  1.00  0.00     0.164 HD
ATOM     37  G   UNL     1      10.722 -10.072  -5.873  1.00  0.00     0.000 G0
ENDBRANCH  32  33
BRANCH  32  38
ATOM     38  C   UNL     1      11.672 -14.225  -7.745  1.00  0.00     0.143 C 
ATOM     39  C   UNL     1      10.166 -14.076  -7.927  1.00  0.00     0.041 C 
BRANCH  38  40
ATOM     40  O   UNL     1      12.170 -15.160  -8.721  1.00  0.00    -0.391 OA
ATOM     41  H   UNL     1      12.045 -16.051  -8.343  1.00  0.00     0.211 HD
ENDBRANCH  38  40
ENDBRANCH  32  38
ENDBRANCH  29  32
ENDBRANCH  27  28
BRANCH  27  42
ATOM     42  C   UNL     1      12.236 -13.111 -12.542  1.00  0.00     0.015 C 
ATOM     43  C   UNL     1      13.531 -13.610 -13.194  1.00  0.00     0.010 C 
ATOM     44  C   UNL     1      11.481 -14.278 -11.899  1.00  0.00     0.010 C 
ENDBRANCH  27  42
ENDBRANCH   3  27
TORSDOF 5
ENDMDL
MODEL 8
REMARK VINA RESULT:    -3.473     17.949     21.869
REMARK INTER + INTRA:          -8.774
REMARK INTER:                  -6.567
REMARK INTRA:                  -2.207
REMARK UNBOUND:                -2.560
REMARK SMILES CC[C@H](C)[C@H]1NC(=O)c2coc(n2)[C@H](C(C)C)NC(=O)[C@H]([C@@H](C)O)NC(=O)[C@H](C)NC(=O)c2csc1n2
REMARK SMILES IDX 11 1 13 2 12 3 9 4 10 5 7 6 6 7 8 8 5 10 36 11 35 12 34 13
REMARK SMILES IDX 37 14 33 15 31 16 32 17 30 18 28 20 29 21 3 23 4 24 2 25
REMARK SMILES IDX 1 26 14 27 18 28 19 29 20 30 21 32 25 33 26 34 27 35 22 38
REMARK SMILES IDX 23 39 24 40 15 42 16 43 17 44
REMARK H PARENT 6 9 30 19 18 31 25 36 24 41
REMARK Flexibility Score:   94.900
ROOT
ATOM      1  O   UNL     1       2.044  -2.846  -8.692  1.00  0.00    -0.446 OA
ATOM      2  N   UNL     1       0.757  -0.996  -8.756  1.00  0.00    -0.207 NA
ATOM      3  C   UNL     1       1.743  -1.668  -9.323  1.00  0.00     0.217 A 
ATOM      4  C   UNL     1       0.367  -1.796  -7.696  1.00  0.00     0.167 A 
ATOM      5  C   UNL     1       1.154  -2.921  -7.663  1.00  0.00     0.231 A 
ENDROOT
BRANCH   4   6
ATOM      6  C   UNL     1      -0.696  -1.431  -6.776  1.00  0.00     0.273 C 
ATOM      7  N   UNL     1      -1.616  -2.440  -6.634  1.00  0.00    -0.341 N 
ATOM      8  O   UNL     1      -0.767  -0.342  -6.219  1.00  0.00    -0.267 OA
ATOM      9  H   UNL     1      -1.476  -3.250  -7.230  1.00  0.00     0.164 HD
BRANCH   7  10
ATOM     10  C   UNL     1      -2.896  -2.258  -5.978  1.00  0.00     0.145 C 
BRANCH  10  11
ATOM     11  C   UNL     1      -3.916  -1.904  -7.051  1.00  0.00     0.116 A 
ATOM     12  S   UNL     1      -5.595  -2.143  -6.744  1.00  0.00    -0.124 S 
ATOM     13  C   UNL     1      -5.960  -1.513  -8.291  1.00  0.00     0.101 A 
ATOM     14  N   UNL     1      -3.625  -1.398  -8.237  1.00  0.00    -0.234 NA
ATOM     15  C   UNL     1      -4.800  -1.154  -8.952  1.00  0.00     0.139 A 
BRANCH  15  16
ATOM     16  C   UNL     1      -4.779  -0.557 -10.289  1.00  0.00     0.271 C 
ATOM     17  O   UNL     1      -5.793  -0.381 -10.954  1.00  0.00    -0.267 OA
ATOM     18  N   UNL     1      -3.514  -0.215 -10.719  1.00  0.00    -0.339 N 
ATOM     19  H   UNL     1      -2.746  -0.513 -10.123  1.00  0.00     0.164 HD
BRANCH  18  20
ATOM     20  C   UNL     1      -3.292   0.330 -12.051  1.00  0.00     0.168 CG0
ATOM     21  C   UNL     1      -2.690   1.735 -11.985  1.00  0.00     0.041 C 
ATOM     22  G   UNL     1      -2.356  -0.544 -12.902  1.00  0.00     0.000 G0
ENDBRANCH  18  20
ENDBRANCH  15  16
ENDBRANCH  10  11
BRANCH  10  23
ATOM     23  C   UNL     1      -3.313  -3.503  -5.152  1.00  0.00     0.015 C 
ATOM     24  C   UNL     1      -3.118  -4.828  -5.907  1.00  0.00     0.010 C 
BRANCH  23  25
ATOM     25  C   UNL     1      -2.579  -3.593  -3.795  1.00  0.00     0.002 C 
ATOM     26  C   UNL     1      -2.320  -2.243  -3.140  1.00  0.00     0.004 C 
ENDBRANCH  23  25
ENDBRANCH  10  23
ENDBRANCH   7  10
ENDBRANCH   4   6
BRANCH   3  27
ATOM     27  C   UNL     1       2.560  -1.247 -10.514  1.00  0.00     0.171 C 
BRANCH  27  28
ATOM     28  N   UNL     1       1.637  -0.830 -11.564  1.00  0.00    -0.342 N 
ATOM     29  C   UNL     1       1.058  -1.716 -12.446  1.00  0.00     0.245 C 
ATOM     30  O   UNL     1       1.265  -2.928 -12.403  1.00  0.00    -0.273 OA
ATOM     31  H   UNL     1       1.329   0.141 -11.589  1.00  0.00     0.164 HD
BRANCH  29  32
ATOM     32  C   UNL     1       0.011  -1.107 -13.401  1.00  0.00     0.200 C 
BRANCH  32  33
ATOM     33  N   UNL     1      -1.012  -0.432 -12.594  1.00  0.00    -0.340 N 
ATOM     34  C   UNL     1      -2.354  -0.546 -12.896  1.00  0.00     0.243 CG0
ATOM     35  O   UNL     1      -2.746  -1.160 -13.886  1.00  0.00    -0.273 OA
ATOM     36  H   UNL     1      -0.717   0.108 -11.789  1.00  0.00     0.164 HD
ATOM     37  G   UNL     1      -3.303   0.321 -12.054  1.00  0.00     0.000 G0
ENDBRANCH  32  33
BRANCH  32  38
ATOM     38  C   UNL     1       0.671  -0.172 -14.442  1.00  0.00     0.143 C 
ATOM     39  C   UNL     1       0.412   1.311 -14.199  1.00  0.00     0.041 C 
BRANCH  38  40
ATOM     40  O   UNL     1       2.094  -0.398 -14.475  1.00  0.00    -0.391 OA
ATOM     41  H   UNL     1       2.221  -1.340 -14.695  1.00  0.00     0.211 HD
ENDBRANCH  38  40
ENDBRANCH  32  38
ENDBRANCH  29  32
ENDBRANCH  27  28
BRANCH  27  42
ATOM     42  C   UNL     1       3.670  -0.194 -10.281  1.00  0.00     0.015 C 
ATOM     43  C   UNL     1       3.796   0.326  -8.844  1.00  0.00     0.010 C 
ATOM     44  C   UNL     1       5.032  -0.674 -10.793  1.00  0.00     0.010 C 
ENDBRANCH  27  42
ENDBRANCH   3  27
TORSDOF 5
ENDMDL
MODEL 9
REMARK VINA RESULT:    -3.357     17.264     22.003
REMARK INTER + INTRA:          -8.567
REMARK INTER:                  -6.032
REMARK INTRA:                  -2.534
REMARK UNBOUND:                -2.560
REMARK SMILES CC[C@H](C)[C@H]1NC(=O)c2coc(n2)[C@H](C(C)C)NC(=O)[C@H]([C@@H](C)O)NC(=O)[C@H](C)NC(=O)c2csc1n2
REMARK SMILES IDX 11 1 13 2 12 3 9 4 10 5 7 6 6 7 8 8 5 10 36 11 35 12 34 13
REMARK SMILES IDX 37 14 33 15 31 16 32 17 30 18 28 20 29 21 3 23 4 24 2 25
REMARK SMILES IDX 1 26 14 27 18 28 19 29 20 30 21 32 25 33 26 34 27 35 22 38
REMARK SMILES IDX 23 39 24 40 15 42 16 43 17 44
REMARK H PARENT 6 9 30 19 18 31 25 36 24 41
REMARK Flexibility Score:   94.900
ROOT
ATOM      1  O   UNL     1      10.238  -9.582 -10.968  1.00  0.00    -0.446 OA
ATOM      2  N   UNL     1      11.366  -8.777  -9.190  1.00  0.00    -0.207 NA
ATOM      3  C   UNL     1      11.215  -9.786 -10.030  1.00  0.00     0.217 A 
ATOM      4  C   UNL     1      10.446  -7.837  -9.620  1.00  0.00     0.167 A 
ATOM      5  C   UNL     1       9.763  -8.333 -10.704  1.00  0.00     0.231 A 
ENDROOT
BRANCH   4   6
ATOM      6  C   UNL     1      10.256  -6.555  -8.964  1.00  0.00     0.273 C 
ATOM      7  N   UNL     1      11.154  -6.366  -7.944  1.00  0.00    -0.341 N 
ATOM      8  O   UNL     1       9.381  -5.757  -9.277  1.00  0.00    -0.267 OA
ATOM      9  H   UNL     1      11.762  -7.155  -7.741  1.00  0.00     0.164 HD
BRANCH   7  10
ATOM     10  C   UNL     1      11.035  -5.297  -6.972  1.00  0.00     0.145 C 
BRANCH  10  11
ATOM     11  C   UNL     1      10.727  -5.932  -5.624  1.00  0.00     0.116 A 
ATOM     12  S   UNL     1      10.580  -4.937  -4.225  1.00  0.00    -0.124 S 
ATOM     13  C   UNL     1      10.226  -6.322  -3.287  1.00  0.00     0.101 A 
ATOM     14  N   UNL     1      10.541  -7.226  -5.421  1.00  0.00    -0.234 NA
ATOM     15  C   UNL     1      10.235  -7.456  -4.077  1.00  0.00     0.139 A 
BRANCH  15  16
ATOM     16  C   UNL     1       9.941  -8.799  -3.573  1.00  0.00     0.271 C 
ATOM     17  O   UNL     1       9.837  -9.053  -2.378  1.00  0.00    -0.267 OA
ATOM     18  N   UNL     1       9.795  -9.741  -4.570  1.00  0.00    -0.339 N 
ATOM     19  H   UNL     1      10.015  -9.429  -5.512  1.00  0.00     0.164 HD
BRANCH  18  20
ATOM     20  C   UNL     1       9.567 -11.145  -4.254  1.00  0.00     0.168 CG0
ATOM     21  C   UNL     1       8.149 -11.578  -4.634  1.00  0.00     0.041 C 
ATOM     22  G   UNL     1      10.553 -12.082  -4.969  1.00  0.00     0.000 G0
ENDBRANCH  18  20
ENDBRANCH  15  16
ENDBRANCH  10  11
BRANCH  10  23
ATOM     23  C   UNL     1      12.302  -4.401  -6.929  1.00  0.00     0.015 C 
ATOM     24  C   UNL     1      13.508  -5.017  -7.658  1.00  0.00     0.010 C 
BRANCH  23  25
ATOM     25  C   UNL     1      12.052  -2.985  -7.494  1.00  0.00     0.002 C 
ATOM     26  C   UNL     1      10.604  -2.527  -7.398  1.00  0.00     0.004 C 
ENDBRANCH  23  25
ENDBRANCH  10  23
ENDBRANCH   7  10
ENDBRANCH   4   6
BRANCH   3  27
ATOM     27  C   UNL     1      11.949 -11.098 -10.012  1.00  0.00     0.171 C 
BRANCH  27  28
ATOM     28  N   UNL     1      11.289 -11.966  -9.043  1.00  0.00    -0.342 N 
ATOM     29  C   UNL     1      11.966 -12.601  -8.026  1.00  0.00     0.245 C 
ATOM     30  O   UNL     1      13.177 -12.470  -7.849  1.00  0.00    -0.273 OA
ATOM     31  H   UNL     1      10.272 -12.032  -9.056  1.00  0.00     0.164 HD
BRANCH  29  32
ATOM     32  C   UNL     1      11.081 -13.372  -7.024  1.00  0.00     0.200 C 
BRANCH  32  33
ATOM     33  N   UNL     1      10.277 -12.398  -6.275  1.00  0.00    -0.340 N 
ATOM     34  C   UNL     1      10.570 -12.086  -4.964  1.00  0.00     0.243 CG0
ATOM     35  O   UNL     1      11.470 -12.652  -4.347  1.00  0.00    -0.273 OA
ATOM     36  H   UNL     1       9.508 -11.938  -6.748  1.00  0.00     0.164 HD
ATOM     37  G   UNL     1       9.567 -11.158  -4.260  1.00  0.00     0.000 G0
ENDBRANCH  32  33
BRANCH  32  38
ATOM     38  C   UNL     1      10.221 -14.442  -7.737  1.00  0.00     0.143 C 
ATOM     39  C   UNL     1       8.871 -13.931  -8.227  1.00  0.00     0.041 C 
BRANCH  38  40
ATOM     40  O   UNL     1      10.946 -14.992  -8.854  1.00  0.00    -0.391 OA
ATOM     41  H   UNL     1      11.895 -14.903  -8.643  1.00  0.00     0.211 HD
ENDBRANCH  38  40
ENDBRANCH  32  38
ENDBRANCH  29  32
ENDBRANCH  27  28
BRANCH  27  42
ATOM     42  C   UNL     1      12.160 -11.816 -11.368  1.00  0.00     0.015 C 
ATOM     43  C   UNL     1      13.570 -12.365 -11.613  1.00  0.00     0.010 C 
ATOM     44  C   UNL     1      11.115 -12.911 -11.606  1.00  0.00     0.010 C 
ENDBRANCH  27  42
ENDBRANCH   3  27
TORSDOF 5
ENDMDL
MODEL 10
REMARK VINA RESULT:    -3.236     26.310     30.515
REMARK INTER + INTRA:          -8.350
REMARK INTER:                  -6.088
REMARK INTRA:                  -2.262
REMARK UNBOUND:                -2.560
REMARK SMILES CC[C@H](C)[C@H]1NC(=O)c2coc(n2)[C@H](C(C)C)NC(=O)[C@H]([C@@H](C)O)NC(=O)[C@H](C)NC(=O)c2csc1n2
REMARK SMILES IDX 11 1 13 2 12 3 9 4 10 5 7 6 6 7 8 8 5 10 36 11 35 12 34 13
REMARK SMILES IDX 37 14 33 15 31 16 32 17 30 18 28 20 29 21 3 23 4 24 2 25
REMARK SMILES IDX 1 26 14 27 18 28 19 29 20 30 21 32 25 33 26 34 27 35 22 38
REMARK SMILES IDX 23 39 24 40 15 42 16 43 17 44
REMARK H PARENT 6 9 30 19 18 31 25 36 24 41
REMARK Flexibility Score:   94.900
ROOT
ATOM      1  O   UNL     1      -6.851  -7.743  -9.120  1.00  0.00    -0.446 OA
ATOM      2  N   UNL     1      -8.595  -8.436 -10.369  1.00  0.00    -0.207 NA
ATOM      3  C   UNL     1      -7.618  -7.557 -10.239  1.00  0.00     0.217 A 
ATOM      4  C   UNL     1      -8.445  -9.273  -9.277  1.00  0.00     0.167 A 
ATOM      5  C   UNL     1      -7.382  -8.846  -8.520  1.00  0.00     0.231 A 
ENDROOT
BRANCH   4   6
ATOM      6  C   UNL     1      -9.330 -10.394  -9.009  1.00  0.00     0.273 C 
ATOM      7  N   UNL     1      -9.397 -11.256 -10.074  1.00  0.00    -0.341 N 
ATOM      8  O   UNL     1      -9.955 -10.529  -7.965  1.00  0.00    -0.267 OA
ATOM      9  H   UNL     1      -8.895 -10.966 -10.908  1.00  0.00     0.164 HD
BRANCH   7  10
ATOM     10  C   UNL     1     -10.382 -12.315 -10.175  1.00  0.00     0.145 C 
BRANCH  10  11
ATOM     11  C   UNL     1     -11.672 -11.695 -10.691  1.00  0.00     0.116 A 
ATOM     12  S   UNL     1     -13.163 -12.041  -9.899  1.00  0.00    -0.124 S 
ATOM     13  C   UNL     1     -13.976 -11.010 -10.994  1.00  0.00     0.101 A 
ATOM     14  N   UNL     1     -11.758 -10.871 -11.723  1.00  0.00    -0.234 NA
ATOM     15  C   UNL     1     -13.082 -10.459 -11.892  1.00  0.00     0.139 A 
BRANCH  15  16
ATOM     16  C   UNL     1     -13.465  -9.511 -12.941  1.00  0.00     0.271 C 
ATOM     17  O   UNL     1     -14.169  -9.823 -13.895  1.00  0.00    -0.267 OA
ATOM     18  N   UNL     1     -12.959  -8.243 -12.748  1.00  0.00    -0.339 N 
ATOM     19  H   UNL     1     -12.300  -8.139 -11.982  1.00  0.00     0.164 HD
BRANCH  18  20
ATOM     20  C   UNL     1     -13.181  -7.186 -13.726  1.00  0.00     0.168 CG0
ATOM     21  C   UNL     1     -14.436  -6.376 -13.395  1.00  0.00     0.041 C 
ATOM     22  G   UNL     1     -12.000  -6.205 -13.818  1.00  0.00     0.000 G0
ENDBRANCH  18  20
ENDBRANCH  15  16
ENDBRANCH  10  11
BRANCH  10  23
ATOM     23  C   UNL     1      -9.893 -13.488 -11.065  1.00  0.00     0.015 C 
ATOM     24  C   UNL     1     -11.041 -14.319 -11.662  1.00  0.00     0.010 C 
BRANCH  23  25
ATOM     25  C   UNL     1      -8.969 -13.023 -12.213  1.00  0.00     0.002 C 
ATOM     26  C   UNL     1      -8.162 -14.146 -12.851  1.00  0.00     0.004 C 
ENDBRANCH  23  25
ENDBRANCH  10  23
ENDBRANCH   7  10
ENDBRANCH   4   6
BRANCH   3  27
ATOM     27  C   UNL     1      -7.321  -6.391 -11.142  1.00  0.00     0.171 C 
BRANCH  27  28
ATOM     28  N   UNL     1      -8.563  -5.650 -11.337  1.00  0.00    -0.342 N 
ATOM     29  C   UNL     1      -9.077  -5.368 -12.583  1.00  0.00     0.245 C 
ATOM     30  O   UNL     1      -8.535  -5.734 -13.625  1.00  0.00    -0.273 OA
ATOM     31  H   UNL     1      -9.126  -5.414 -10.521  1.00  0.00     0.164 HD
BRANCH  29  32
ATOM     32  C   UNL     1     -10.463  -4.690 -12.586  1.00  0.00     0.200 C 
BRANCH  32  33
ATOM     33  N   UNL     1     -11.490  -5.739 -12.628  1.00  0.00    -0.340 N 
ATOM     34  C   UNL     1     -12.002  -6.192 -13.826  1.00  0.00     0.243 CG0
ATOM     35  O   UNL     1     -11.672  -5.698 -14.902  1.00  0.00    -0.273 OA
ATOM     36  H   UNL     1     -11.804  -6.144 -11.754  1.00  0.00     0.164 HD
ATOM     37  G   UNL     1     -13.165  -7.191 -13.718  1.00  0.00     0.000 G0
ENDBRANCH  32  33
BRANCH  32  38
ATOM     38  C   UNL     1     -10.628  -3.733 -11.383  1.00  0.00     0.143 C 
ATOM     39  C   UNL     1      -9.797  -2.459 -11.483  1.00  0.00     0.041 C 
BRANCH  38  40
ATOM     40  O   UNL     1     -12.014  -3.376 -11.222  1.00  0.00    -0.391 OA
ATOM     41  H   UNL     1     -12.537  -4.116 -11.585  1.00  0.00     0.211 HD
ENDBRANCH  38  40
ENDBRANCH  32  38
ENDBRANCH  29  32
ENDBRANCH  27  28
BRANCH  27  42
ATOM     42  C   UNL     1      -6.157  -5.454 -10.738  1.00  0.00     0.015 C 
ATOM     43  C   UNL     1      -5.257  -4.985 -11.887  1.00  0.00     0.010 C 
ATOM     44  C   UNL     1      -6.645  -4.253  -9.921  1.00  0.00     0.010 C 
ENDBRANCH  27  42
ENDBRANCH   3  27
TORSDOF 5
ENDMDL
