MODEL 1
REMARK VINA RESULT:    -6.691      0.000      0.000
REMARK INTER + INTRA:         -16.503
REMARK INTER:                 -13.535
REMARK INTRA:                  -2.968
REMARK UNBOUND:                -2.968
REMARK SMILES CC[C@@H](C)[C@@H](NC(=O)[C@@H](O)Cc1ccc(O)c(Cl)c1)C(=O)N1[C@H](C(=O)NCCCCN=C(N)N)C[C@H]2CC[C@H](OS(=O)(=O)O)C[C@@H]21
REMARK SMILES IDX 22 1 36 2 46 3 35 4 23 5 45 6 37 7 39 8 38 9 20 10 21 11
REMARK SMILES IDX 5 12 6 13 7 14 8 15 9 17 11 18 12 19 17 20 19 21 15 22 14 23
REMARK SMILES IDX 13 24 18 25 16 26 10 28 3 30 4 31 2 32 1 33 24 34 25 35
REMARK SMILES IDX 26 36 27 38 28 39 29 40 30 41 31 42 32 43 33 44 34 45 40 50
REMARK SMILES IDX 41 51 42 52 43 53 44 54
REMARK H PARENT 6 16 16 27 10 29 26 37 33 46 33 47 34 48 34 49 44 55
ROOT
ATOM      1  N   UNL     1     -13.407   1.222  -3.791  1.00  0.00    -0.326 N 
ATOM      2  C   UNL     1     -14.403   1.647  -5.881  1.00  0.00     0.014 C 
ATOM      3  C   UNL     1     -13.078   1.747  -5.120  1.00  0.00     0.091 C 
ATOM      4  C   UNL     1     -15.433   1.931  -4.799  1.00  0.00     0.041 C 
ATOM      5  C   UNL     1     -14.876   1.062  -3.657  1.00  0.00     0.175 C 
ATOM      6  C   UNL     1     -11.999   1.035  -5.933  1.00  0.00     0.059 C 
ATOM      7  C   UNL     1     -14.377   2.509  -7.128  1.00  0.00     0.008 C 
ATOM      8  C   UNL     1     -12.218   1.113  -7.460  1.00  0.00     0.143 C 
ATOM      9  C   UNL     1     -13.030   2.360  -7.865  1.00  0.00     0.034 C 
ENDROOT
BRANCH   1  10
ATOM     10  C   UNL     1     -12.608   1.083  -2.669  1.00  0.00     0.246 C 
ATOM     11  O   UNL     1     -12.190  -0.038  -2.363  1.00  0.00    -0.272 OA
BRANCH  10  12
ATOM     12  C   UNL     1     -12.219   2.345  -1.844  1.00  0.00     0.174 C 
BRANCH  12  13
ATOM     13  N   UNL     1     -11.450   3.268  -2.678  1.00  0.00    -0.342 N 
ATOM     14  C   UNL     1     -11.896   4.495  -3.116  1.00  0.00     0.249 C 
ATOM     15  O   UNL     1     -12.989   4.967  -2.827  1.00  0.00    -0.272 OA
ATOM     16  H   UNL     1     -10.593   2.950  -3.124  1.00  0.00     0.164 HD
BRANCH  14  17
ATOM     17  C   UNL     1     -10.859   5.227  -3.994  1.00  0.00     0.207 C 
BRANCH  17  18
ATOM     18  C   UNL     1     -10.424   4.337  -5.163  1.00  0.00     0.077 C 
BRANCH  18  19
ATOM     19  C   UNL     1     -10.481   5.073  -6.482  1.00  0.00    -0.043 A 
ATOM     20  C   UNL     1     -10.007   5.168  -8.859  1.00  0.00     0.083 A 
ATOM     21  C   UNL     1      -9.998   4.467  -7.653  1.00  0.00     0.028 A 
ATOM     22  C   UNL     1     -10.496   6.474  -8.904  1.00  0.00     0.134 A 
ATOM     23  C   UNL     1     -10.977   7.086  -7.753  1.00  0.00     0.048 A 
ATOM     24  C   UNL     1     -10.967   6.388  -6.543  1.00  0.00     0.008 A 
ATOM     25  Cl  UNL     1      -9.409   4.407 -10.287  1.00  0.00    -0.080 Cl
BRANCH  22  26
ATOM     26  O   UNL     1     -10.515   7.205 -10.062  1.00  0.00    -0.506 OA
ATOM     27  H   UNL     1     -10.763   8.115  -9.815  1.00  0.00     0.293 HD
ENDBRANCH  22  26
ENDBRANCH  18  19
ENDBRANCH  17  18
BRANCH  17  28
ATOM     28  O   UNL     1      -9.705   5.604  -3.227  1.00  0.00    -0.383 OA
ATOM     29  H   UNL     1      -8.937   5.537  -3.839  1.00  0.00     0.211 HD
ENDBRANCH  17  28
ENDBRANCH  14  17
ENDBRANCH  12  13
BRANCH  12  30
ATOM     30  C   UNL     1     -11.487   1.994  -0.521  1.00  0.00     0.018 C 
ATOM     31  C   UNL     1     -12.229   2.587   0.687  1.00  0.00     0.010 C 
BRANCH  30  32
ATOM     32  C   UNL     1     -10.001   2.428  -0.498  1.00  0.00     0.002 C 
ATOM     33  C   UNL     1      -9.291   2.248   0.838  1.00  0.00     0.004 C 
ENDBRANCH  30  32
ENDBRANCH  12  30
ENDBRANCH  10  12
ENDBRANCH   1  10
BRANCH   5  34
ATOM     34  C   UNL     1     -15.285  -0.426  -3.819  1.00  0.00     0.242 C 
ATOM     35  O   UNL     1     -14.557  -1.253  -4.368  1.00  0.00    -0.273 OA
ATOM     36  N   UNL     1     -16.542  -0.742  -3.353  1.00  0.00    -0.354 N 
ATOM     37  H   UNL     1     -17.145   0.010  -3.017  1.00  0.00     0.163 HD
BRANCH  36  38
ATOM     38  C   UNL     1     -16.998  -2.110  -3.226  1.00  0.00     0.116 C 
BRANCH  38  39
ATOM     39  C   UNL     1     -18.173  -2.354  -4.170  1.00  0.00     0.023 C 
BRANCH  39  40
ATOM     40  C   UNL     1     -17.722  -2.741  -5.575  1.00  0.00     0.026 C 
BRANCH  40  41
ATOM     41  C   UNL     1     -17.802  -4.255  -5.772  1.00  0.00     0.146 C 
BRANCH  41  42
ATOM     42  N   UNL     1     -18.014  -4.557  -7.181  1.00  0.00    -0.254 NA
ATOM     43  C   UNL     1     -18.255  -5.762  -7.541  1.00  0.00     0.185 C 
ATOM     44  N   UNL     1     -18.356  -6.882  -6.802  1.00  0.00    -0.370 N 
ATOM     45  N   UNL     1     -18.444  -6.020  -8.846  1.00  0.00    -0.370 N 
ATOM     46  H   UNL     1     -18.305  -7.788  -7.235  1.00  0.00     0.159 HD
ATOM     47  H   UNL     1     -18.254  -6.865  -5.792  1.00  0.00     0.159 HD
ATOM     48  H   UNL     1     -18.393  -5.228  -9.472  1.00  0.00     0.159 HD
ATOM     49  H   UNL     1     -18.863  -6.871  -9.176  1.00  0.00     0.159 HD
ENDBRANCH  41  42
ENDBRANCH  40  41
ENDBRANCH  39  40
ENDBRANCH  38  39
ENDBRANCH  36  38
ENDBRANCH   5  34
BRANCH   8  50
ATOM     50  O   UNL     1     -12.914  -0.048  -7.915  1.00  0.00    -0.245 OA
BRANCH  50  51
ATOM     51  S   UNL     1     -13.073  -0.315  -9.511  1.00  0.00     0.397 S 
ATOM     52  O   UNL     1     -11.819   0.024 -10.147  1.00  0.00    -0.169 OA
ATOM     53  O   UNL     1     -14.331   0.233  -9.973  1.00  0.00    -0.169 OA
BRANCH  51  54
ATOM     54  O   UNL     1     -13.177  -1.918  -9.575  1.00  0.00    -0.264 OA
ATOM     55  H   UNL     1     -13.885  -2.146 -10.212  1.00  0.00     0.236 HD
ENDBRANCH  51  54
ENDBRANCH  50  51
ENDBRANCH   8  50
TORSDOF 19
ENDMDL
MODEL 2
REMARK VINA RESULT:    -6.627      7.811     10.343
REMARK INTER + INTRA:         -16.375
REMARK INTER:                 -13.093
REMARK INTRA:                  -3.282
REMARK UNBOUND:                -2.968
REMARK SMILES CC[C@@H](C)[C@@H](NC(=O)[C@@H](O)Cc1ccc(O)c(Cl)c1)C(=O)N1[C@H](C(=O)NCCCCN=C(N)N)C[C@H]2CC[C@H](OS(=O)(=O)O)C[C@@H]21
REMARK SMILES IDX 22 1 36 2 46 3 35 4 23 5 45 6 37 7 39 8 38 9 20 10 21 11
REMARK SMILES IDX 5 12 6 13 7 14 8 15 9 17 11 18 12 19 17 20 19 21 15 22 14 23
REMARK SMILES IDX 13 24 18 25 16 26 10 28 3 30 4 31 2 32 1 33 24 34 25 35
REMARK SMILES IDX 26 36 27 38 28 39 29 40 30 41 31 42 32 43 33 44 34 45 40 50
REMARK SMILES IDX 41 51 42 52 43 53 44 54
REMARK H PARENT 6 16 16 27 10 29 26 37 33 46 33 47 34 48 34 49 44 55
ROOT
ATOM      1  N   UNL     1      -5.182   1.742  -5.900  1.00  0.00    -0.326 N 
ATOM      2  C   UNL     1      -5.010   3.920  -5.024  1.00  0.00     0.014 C 
ATOM      3  C   UNL     1      -5.070   3.137  -6.338  1.00  0.00     0.091 C 
ATOM      4  C   UNL     1      -4.242   2.980  -4.108  1.00  0.00     0.041 C 
ATOM      5  C   UNL     1      -4.939   1.647  -4.440  1.00  0.00     0.175 C 
ATOM      6  C   UNL     1      -6.192   3.718  -7.197  1.00  0.00     0.059 C 
ATOM      7  C   UNL     1      -4.488   5.325  -5.254  1.00  0.00     0.008 C 
ATOM      8  C   UNL     1      -6.411   5.233  -6.990  1.00  0.00     0.143 C 
ATOM      9  C   UNL     1      -5.128   5.944  -6.514  1.00  0.00     0.034 C 
ENDROOT
BRANCH   1  10
ATOM     10  C   UNL     1      -5.255   0.580  -6.649  1.00  0.00     0.246 C 
ATOM     11  O   UNL     1      -6.100   0.495  -7.546  1.00  0.00    -0.272 OA
BRANCH  10  12
ATOM     12  C   UNL     1      -4.246  -0.573  -6.375  1.00  0.00     0.174 C 
BRANCH  12  13
ATOM     13  N   UNL     1      -2.987  -0.311  -7.072  1.00  0.00    -0.342 N 
ATOM     14  C   UNL     1      -1.857   0.216  -6.489  1.00  0.00     0.249 C 
ATOM     15  O   UNL     1      -1.772   0.501  -5.301  1.00  0.00    -0.272 OA
ATOM     16  H   UNL     1      -2.956  -0.350  -8.088  1.00  0.00     0.164 HD
BRANCH  14  17
ATOM     17  C   UNL     1      -0.696   0.391  -7.492  1.00  0.00     0.207 C 
BRANCH  17  18
ATOM     18  C   UNL     1      -1.071   1.410  -8.573  1.00  0.00     0.077 C 
BRANCH  18  19
ATOM     19  C   UNL     1       0.085   2.326  -8.906  1.00  0.00    -0.043 A 
ATOM     20  C   UNL     1       1.198   3.832 -10.448  1.00  0.00     0.083 A 
ATOM     21  C   UNL     1       0.106   3.026 -10.123  1.00  0.00     0.028 A 
ATOM     22  C   UNL     1       2.272   3.943  -9.565  1.00  0.00     0.134 A 
ATOM     23  C   UNL     1       2.264   3.256  -8.357  1.00  0.00     0.048 A 
ATOM     24  C   UNL     1       1.174   2.447  -8.029  1.00  0.00     0.008 A 
ATOM     25  Cl  UNL     1       1.206   4.683 -11.948  1.00  0.00    -0.080 Cl
BRANCH  22  26
ATOM     26  O   UNL     1       3.369   4.712  -9.846  1.00  0.00    -0.506 OA
ATOM     27  H   UNL     1       3.194   5.148 -10.701  1.00  0.00     0.293 HD
ENDBRANCH  22  26
ENDBRANCH  18  19
ENDBRANCH  17  18
BRANCH  17  28
ATOM     28  O   UNL     1      -0.357  -0.859  -8.113  1.00  0.00    -0.383 OA
ATOM     29  H   UNL     1      -0.242  -1.505  -7.380  1.00  0.00     0.211 HD
ENDBRANCH  17  28
ENDBRANCH  14  17
ENDBRANCH  12  13
BRANCH  12  30
ATOM     30  C   UNL     1      -4.829  -1.972  -6.712  1.00  0.00     0.018 C 
ATOM     31  C   UNL     1      -4.574  -2.961  -5.563  1.00  0.00     0.010 C 
BRANCH  30  32
ATOM     32  C   UNL     1      -4.306  -2.559  -8.045  1.00  0.00     0.002 C 
ATOM     33  C   UNL     1      -5.354  -2.732  -9.136  1.00  0.00     0.004 C 
ENDBRANCH  30  32
ENDBRANCH  12  30
ENDBRANCH  10  12
ENDBRANCH   1  10
BRANCH   5  34
ATOM     34  C   UNL     1      -6.277   1.494  -3.668  1.00  0.00     0.242 C 
ATOM     35  O   UNL     1      -7.329   1.993  -4.069  1.00  0.00    -0.273 OA
ATOM     36  N   UNL     1      -6.192   0.806  -2.478  1.00  0.00    -0.354 N 
ATOM     37  H   UNL     1      -5.272   0.521  -2.141  1.00  0.00     0.163 HD
BRANCH  36  38
ATOM     38  C   UNL     1      -7.366   0.386  -1.742  1.00  0.00     0.116 C 
BRANCH  38  39
ATOM     39  C   UNL     1      -7.339  -1.128  -1.543  1.00  0.00     0.023 C 
BRANCH  39  40
ATOM     40  C   UNL     1      -8.290  -1.857  -2.486  1.00  0.00     0.026 C 
BRANCH  40  41
ATOM     41  C   UNL     1      -7.594  -2.191  -3.806  1.00  0.00     0.146 C 
BRANCH  41  42
ATOM     42  N   UNL     1      -8.024  -1.257  -4.839  1.00  0.00    -0.254 NA
ATOM     43  C   UNL     1      -8.410  -1.704  -5.974  1.00  0.00     0.185 C 
ATOM     44  N   UNL     1      -8.500  -2.970  -6.422  1.00  0.00    -0.370 N 
ATOM     45  N   UNL     1      -8.797  -0.826  -6.915  1.00  0.00    -0.370 N 
ATOM     46  H   UNL     1      -8.584  -3.161  -7.405  1.00  0.00     0.159 HD
ATOM     47  H   UNL     1      -8.259  -3.761  -5.833  1.00  0.00     0.159 HD
ATOM     48  H   UNL     1      -8.768   0.150  -6.656  1.00  0.00     0.159 HD
ATOM     49  H   UNL     1      -9.327  -1.096  -7.725  1.00  0.00     0.159 HD
ENDBRANCH  41  42
ENDBRANCH  40  41
ENDBRANCH  39  40
ENDBRANCH  38  39
ENDBRANCH  36  38
ENDBRANCH   5  34
BRANCH   8  50
ATOM     50  O   UNL     1      -7.436   5.452  -6.021  1.00  0.00    -0.245 OA
BRANCH  50  51
ATOM     51  S   UNL     1      -8.996   5.283  -6.450  1.00  0.00     0.397 S 
ATOM     52  O   UNL     1      -9.391   3.921  -6.169  1.00  0.00    -0.169 OA
ATOM     53  O   UNL     1      -9.210   5.882  -7.750  1.00  0.00    -0.169 OA
BRANCH  51  54
ATOM     54  O   UNL     1      -9.746   6.191  -5.355  1.00  0.00    -0.264 OA
ATOM     55  H   UNL     1      -9.067   6.725  -4.895  1.00  0.00     0.236 HD
ENDBRANCH  51  54
ENDBRANCH  50  51
ENDBRANCH   8  50
TORSDOF 19
ENDMDL
MODEL 3
REMARK VINA RESULT:    -6.544      5.660      8.536
REMARK INTER + INTRA:         -16.206
REMARK INTER:                 -12.490
REMARK INTRA:                  -3.716
REMARK UNBOUND:                -2.968
REMARK SMILES CC[C@@H](C)[C@@H](NC(=O)[C@@H](O)Cc1ccc(O)c(Cl)c1)C(=O)N1[C@H](C(=O)NCCCCN=C(N)N)C[C@H]2CC[C@H](OS(=O)(=O)O)C[C@@H]21
REMARK SMILES IDX 22 1 36 2 46 3 35 4 23 5 45 6 37 7 39 8 38 9 20 10 21 11
REMARK SMILES IDX 5 12 6 13 7 14 8 15 9 17 11 18 12 19 17 20 19 21 15 22 14 23
REMARK SMILES IDX 13 24 18 25 16 26 10 28 3 30 4 31 2 32 1 33 24 34 25 35
REMARK SMILES IDX 26 36 27 38 28 39 29 40 30 41 31 42 32 43 33 44 34 45 40 50
REMARK SMILES IDX 41 51 42 52 43 53 44 54
REMARK H PARENT 6 16 16 27 10 29 26 37 33 46 33 47 34 48 34 49 44 55
ROOT
ATOM      1  N   UNL     1      -6.711   1.664  -5.989  1.00  0.00    -0.326 N 
ATOM      2  C   UNL     1      -4.513   1.532  -5.156  1.00  0.00     0.014 C 
ATOM      3  C   UNL     1      -5.387   2.264  -6.178  1.00  0.00     0.091 C 
ATOM      4  C   UNL     1      -5.107   0.131  -5.150  1.00  0.00     0.041 C 
ATOM      5  C   UNL     1      -6.608   0.472  -5.112  1.00  0.00     0.175 C 
ATOM      6  C   UNL     1      -5.234   3.768  -5.955  1.00  0.00     0.059 C 
ATOM      7  C   UNL     1      -3.042   1.714  -5.472  1.00  0.00     0.008 C 
ATOM      8  C   UNL     1      -3.839   4.180  -5.439  1.00  0.00     0.143 C 
ATOM      9  C   UNL     1      -2.745   3.178  -5.860  1.00  0.00     0.034 C 
ENDROOT
BRANCH   1  10
ATOM     10  C   UNL     1      -7.902   1.915  -6.649  1.00  0.00     0.246 C 
ATOM     11  O   UNL     1      -8.825   1.099  -6.556  1.00  0.00    -0.272 OA
BRANCH  10  12
ATOM     12  C   UNL     1      -8.068   3.235  -7.456  1.00  0.00     0.174 C 
BRANCH  12  13
ATOM     13  N   UNL     1      -9.279   3.933  -7.027  1.00  0.00    -0.342 N 
ATOM     14  C   UNL     1      -9.333   4.885  -6.034  1.00  0.00     0.249 C 
ATOM     15  O   UNL     1      -8.354   5.276  -5.411  1.00  0.00    -0.272 OA
ATOM     16  H   UNL     1     -10.189   3.604  -7.342  1.00  0.00     0.164 HD
BRANCH  14  17
ATOM     17  C   UNL     1     -10.761   5.424  -5.801  1.00  0.00     0.207 C 
BRANCH  17  18
ATOM     18  C   UNL     1     -10.976   6.724  -6.582  1.00  0.00     0.077 C 
BRANCH  18  19
ATOM     19  C   UNL     1     -11.520   6.464  -7.969  1.00  0.00    -0.043 A 
ATOM     20  C   UNL     1     -12.812   5.094  -9.498  1.00  0.00     0.083 A 
ATOM     21  C   UNL     1     -12.352   5.359  -8.207  1.00  0.00     0.028 A 
ATOM     22  C   UNL     1     -12.444   5.927 -10.555  1.00  0.00     0.134 A 
ATOM     23  C   UNL     1     -11.621   7.025 -10.333  1.00  0.00     0.048 A 
ATOM     24  C   UNL     1     -11.157   7.292  -9.043  1.00  0.00     0.008 A 
ATOM     25  Cl  UNL     1     -13.833   3.732  -9.771  1.00  0.00    -0.080 Cl
BRANCH  22  26
ATOM     26  O   UNL     1     -12.862   5.701 -11.839  1.00  0.00    -0.506 OA
ATOM     27  H   UNL     1     -13.249   6.537 -12.159  1.00  0.00     0.293 HD
ENDBRANCH  22  26
ENDBRANCH  18  19
ENDBRANCH  17  18
BRANCH  17  28
ATOM     28  O   UNL     1     -11.004   5.660  -4.405  1.00  0.00    -0.383 OA
ATOM     29  H   UNL     1     -10.546   6.503  -4.188  1.00  0.00     0.211 HD
ENDBRANCH  17  28
ENDBRANCH  14  17
ENDBRANCH  12  13
BRANCH  12  30
ATOM     30  C   UNL     1      -8.028   3.008  -8.992  1.00  0.00     0.018 C 
ATOM     31  C   UNL     1      -6.591   3.131  -9.524  1.00  0.00     0.010 C 
BRANCH  30  32
ATOM     32  C   UNL     1      -8.971   3.947  -9.784  1.00  0.00     0.002 C 
ATOM     33  C   UNL     1      -8.316   5.198 -10.354  1.00  0.00     0.004 C 
ENDBRANCH  30  32
ENDBRANCH  12  30
ENDBRANCH  10  12
ENDBRANCH   1  10
BRANCH   5  34
ATOM     34  C   UNL     1      -7.082   0.805  -3.672  1.00  0.00     0.242 C 
ATOM     35  O   UNL     1      -7.712   1.829  -3.407  1.00  0.00    -0.273 OA
ATOM     36  N   UNL     1      -6.701  -0.099  -2.706  1.00  0.00    -0.354 N 
ATOM     37  H   UNL     1      -6.078  -0.864  -2.967  1.00  0.00     0.163 HD
BRANCH  36  38
ATOM     38  C   UNL     1      -7.232  -0.061  -1.359  1.00  0.00     0.116 C 
BRANCH  38  39
ATOM     39  C   UNL     1      -7.563  -1.477  -0.893  1.00  0.00     0.023 C 
BRANCH  39  40
ATOM     40  C   UNL     1      -8.858  -2.004  -1.503  1.00  0.00     0.026 C 
BRANCH  40  41
ATOM     41  C   UNL     1      -8.569  -3.117  -2.510  1.00  0.00     0.146 C 
BRANCH  41  42
ATOM     42  N   UNL     1      -8.394  -2.545  -3.839  1.00  0.00    -0.254 NA
ATOM     43  C   UNL     1      -9.381  -2.521  -4.654  1.00  0.00     0.185 C 
ATOM     44  N   UNL     1     -10.643  -2.960  -4.496  1.00  0.00    -0.370 N 
ATOM     45  N   UNL     1      -9.197  -1.994  -5.875  1.00  0.00    -0.370 N 
ATOM     46  H   UNL     1     -11.240  -3.101  -5.293  1.00  0.00     0.159 HD
ATOM     47  H   UNL     1     -10.958  -3.376  -3.625  1.00  0.00     0.159 HD
ATOM     48  H   UNL     1      -8.274  -1.632  -6.073  1.00  0.00     0.159 HD
ATOM     49  H   UNL     1      -9.959  -1.725  -6.472  1.00  0.00     0.159 HD
ENDBRANCH  41  42
ENDBRANCH  40  41
ENDBRANCH  39  40
ENDBRANCH  38  39
ENDBRANCH  36  38
ENDBRANCH   5  34
BRANCH   8  50
ATOM     50  O   UNL     1      -3.850   4.267  -4.013  1.00  0.00    -0.245 OA
BRANCH  50  51
ATOM     51  S   UNL     1      -3.652   5.713  -3.295  1.00  0.00     0.397 S 
ATOM     52  O   UNL     1      -2.979   6.587  -4.230  1.00  0.00    -0.169 OA
ATOM     53  O   UNL     1      -3.161   5.522  -1.946  1.00  0.00    -0.169 OA
BRANCH  51  54
ATOM     54  O   UNL     1      -5.164   6.252  -3.202  1.00  0.00    -0.264 OA
ATOM     55  H   UNL     1      -5.128   7.223  -3.083  1.00  0.00     0.236 HD
ENDBRANCH  51  54
ENDBRANCH  50  51
ENDBRANCH   8  50
TORSDOF 19
ENDMDL
MODEL 4
REMARK VINA RESULT:    -6.487      7.771     11.640
REMARK INTER + INTRA:         -16.091
REMARK INTER:                 -13.452
REMARK INTRA:                  -2.639
REMARK UNBOUND:                -2.968
REMARK SMILES CC[C@@H](C)[C@@H](NC(=O)[C@@H](O)Cc1ccc(O)c(Cl)c1)C(=O)N1[C@H](C(=O)NCCCCN=C(N)N)C[C@H]2CC[C@H](OS(=O)(=O)O)C[C@@H]21
REMARK SMILES IDX 22 1 36 2 46 3 35 4 23 5 45 6 37 7 39 8 38 9 20 10 21 11
REMARK SMILES IDX 5 12 6 13 7 14 8 15 9 17 11 18 12 19 17 20 19 21 15 22 14 23
REMARK SMILES IDX 13 24 18 25 16 26 10 28 3 30 4 31 2 32 1 33 24 34 25 35
REMARK SMILES IDX 26 36 27 38 28 39 29 40 30 41 31 42 32 43 33 44 34 45 40 50
REMARK SMILES IDX 41 51 42 52 43 53 44 54
REMARK H PARENT 6 16 16 27 10 29 26 37 33 46 33 47 34 48 34 49 44 55
ROOT
ATOM      1  N   UNL     1      -5.696   2.667  -8.187  1.00  0.00    -0.326 N 
ATOM      2  C   UNL     1      -3.943   2.411  -6.637  1.00  0.00     0.014 C 
ATOM      3  C   UNL     1      -5.468   2.479  -6.751  1.00  0.00     0.091 C 
ATOM      4  C   UNL     1      -3.483   3.379  -7.717  1.00  0.00     0.041 C 
ATOM      5  C   UNL     1      -4.413   2.962  -8.871  1.00  0.00     0.175 C 
ATOM      6  C   UNL     1      -6.058   1.240  -6.081  1.00  0.00     0.059 C 
ATOM      7  C   UNL     1      -3.496   2.628  -5.205  1.00  0.00     0.008 C 
ATOM      8  C   UNL     1      -5.222   0.720  -4.891  1.00  0.00     0.143 C 
ATOM      9  C   UNL     1      -4.397   1.842  -4.229  1.00  0.00     0.034 C 
ENDROOT
BRANCH   1  10
ATOM     10  C   UNL     1      -6.883   2.815  -8.885  1.00  0.00     0.246 C 
ATOM     11  O   UNL     1      -7.578   1.818  -9.107  1.00  0.00    -0.272 OA
BRANCH  10  12
ATOM     12  C   UNL     1      -7.335   4.234  -9.337  1.00  0.00     0.174 C 
BRANCH  12  13
ATOM     13  N   UNL     1      -8.435   4.699  -8.493  1.00  0.00    -0.342 N 
ATOM     14  C   UNL     1      -8.287   5.411  -7.324  1.00  0.00     0.249 C 
ATOM     15  O   UNL     1      -7.205   5.761  -6.870  1.00  0.00    -0.272 OA
ATOM     16  H   UNL     1      -9.377   4.352  -8.656  1.00  0.00     0.164 HD
BRANCH  14  17
ATOM     17  C   UNL     1      -9.638   5.740  -6.652  1.00  0.00     0.207 C 
BRANCH  17  18
ATOM     18  C   UNL     1     -10.291   6.949  -7.329  1.00  0.00     0.077 C 
BRANCH  18  19
ATOM     19  C   UNL     1     -11.597   6.582  -7.998  1.00  0.00    -0.043 A 
ATOM     20  C   UNL     1     -13.680   5.340  -8.002  1.00  0.00     0.083 A 
ATOM     21  C   UNL     1     -12.500   5.716  -7.361  1.00  0.00     0.028 A 
ATOM     22  C   UNL     1     -13.965   5.822  -9.280  1.00  0.00     0.134 A 
ATOM     23  C   UNL     1     -13.080   6.680  -9.922  1.00  0.00     0.048 A 
ATOM     24  C   UNL     1     -11.896   7.057  -9.284  1.00  0.00     0.008 A 
ATOM     25  Cl  UNL     1     -14.778   4.276  -7.204  1.00  0.00    -0.080 Cl
BRANCH  22  26
ATOM     26  O   UNL     1     -15.105   5.473  -9.953  1.00  0.00    -0.506 OA
ATOM     27  H   UNL     1     -14.933   5.636 -10.899  1.00  0.00     0.293 HD
ENDBRANCH  22  26
ENDBRANCH  18  19
ENDBRANCH  17  18
BRANCH  17  28
ATOM     28  O   UNL     1      -9.467   6.012  -5.252  1.00  0.00    -0.383 OA
ATOM     29  H   UNL     1      -9.988   6.826  -5.067  1.00  0.00     0.211 HD
ENDBRANCH  17  28
ENDBRANCH  14  17
ENDBRANCH  12  13
BRANCH  12  30
ATOM     30  C   UNL     1      -7.680   4.301 -10.849  1.00  0.00     0.018 C 
ATOM     31  C   UNL     1      -6.479   3.864 -11.703  1.00  0.00     0.010 C 
BRANCH  30  32
ATOM     32  C   UNL     1      -8.183   5.690 -11.311  1.00  0.00     0.002 C 
ATOM     33  C   UNL     1      -9.635   5.737 -11.770  1.00  0.00     0.004 C 
ENDBRANCH  30  32
ENDBRANCH  12  30
ENDBRANCH  10  12
ENDBRANCH   1  10
BRANCH   5  34
ATOM     34  C   UNL     1      -3.881   1.705  -9.609  1.00  0.00     0.242 C 
ATOM     35  O   UNL     1      -4.454   0.617  -9.552  1.00  0.00    -0.273 OA
ATOM     36  N   UNL     1      -2.694   1.881 -10.285  1.00  0.00    -0.354 N 
ATOM     37  H   UNL     1      -2.205   2.773 -10.195  1.00  0.00     0.163 HD
BRANCH  36  38
ATOM     38  C   UNL     1      -2.169   0.886 -11.197  1.00  0.00     0.116 C 
BRANCH  38  39
ATOM     39  C   UNL     1      -0.755   0.493 -10.776  1.00  0.00     0.023 C 
BRANCH  39  40
ATOM     40  C   UNL     1       0.306   1.007 -11.743  1.00  0.00     0.026 C 
BRANCH  40  41
ATOM     41  C   UNL     1       1.710   0.724 -11.209  1.00  0.00     0.146 C 
BRANCH  41  42
ATOM     42  N   UNL     1       2.214  -0.516 -11.785  1.00  0.00    -0.254 NA
ATOM     43  C   UNL     1       2.260  -1.575 -11.067  1.00  0.00     0.185 C 
ATOM     44  N   UNL     1       1.900  -1.767  -9.785  1.00  0.00    -0.370 N 
ATOM     45  N   UNL     1       2.733  -2.706 -11.615  1.00  0.00    -0.370 N 
ATOM     46  H   UNL     1       2.215  -2.578  -9.280  1.00  0.00     0.159 HD
ATOM     47  H   UNL     1       1.508  -1.018  -9.223  1.00  0.00     0.159 HD
ATOM     48  H   UNL     1       3.019  -2.650 -12.583  1.00  0.00     0.159 HD
ATOM     49  H   UNL     1       2.582  -3.612 -11.208  1.00  0.00     0.159 HD
ENDBRANCH  41  42
ENDBRANCH  40  41
ENDBRANCH  39  40
ENDBRANCH  38  39
ENDBRANCH  36  38
ENDBRANCH   5  34
BRANCH   8  50
ATOM     50  O   UNL     1      -4.328  -0.303  -5.329  1.00  0.00    -0.245 OA
BRANCH  50  51
ATOM     51  S   UNL     1      -4.847  -1.843  -5.410  1.00  0.00     0.397 S 
ATOM     52  O   UNL     1      -4.801  -2.257  -6.794  1.00  0.00    -0.169 OA
ATOM     53  O   UNL     1      -6.045  -1.994  -4.611  1.00  0.00    -0.169 OA
BRANCH  51  54
ATOM     54  O   UNL     1      -3.657  -2.636  -4.675  1.00  0.00    -0.264 OA
ATOM     55  H   UNL     1      -4.063  -3.310  -4.092  1.00  0.00     0.236 HD
ENDBRANCH  51  54
ENDBRANCH  50  51
ENDBRANCH   8  50
TORSDOF 19
ENDMDL
MODEL 5
REMARK VINA RESULT:    -6.479      9.781     13.994
REMARK INTER + INTRA:         -16.076
REMARK INTER:                 -13.673
REMARK INTRA:                  -2.402
REMARK UNBOUND:                -2.968
REMARK SMILES CC[C@@H](C)[C@@H](NC(=O)[C@@H](O)Cc1ccc(O)c(Cl)c1)C(=O)N1[C@H](C(=O)NCCCCN=C(N)N)C[C@H]2CC[C@H](OS(=O)(=O)O)C[C@@H]21
REMARK SMILES IDX 22 1 36 2 46 3 35 4 23 5 45 6 37 7 39 8 38 9 20 10 21 11
REMARK SMILES IDX 5 12 6 13 7 14 8 15 9 17 11 18 12 19 17 20 19 21 15 22 14 23
REMARK SMILES IDX 13 24 18 25 16 26 10 28 3 30 4 31 2 32 1 33 24 34 25 35
REMARK SMILES IDX 26 36 27 38 28 39 29 40 30 41 31 42 32 43 33 44 34 45 40 50
REMARK SMILES IDX 41 51 42 52 43 53 44 54
REMARK H PARENT 6 16 16 27 10 29 26 37 33 46 33 47 34 48 34 49 44 55
ROOT
ATOM      1  N   UNL     1      -2.073   0.943  -9.171  1.00  0.00    -0.326 N 
ATOM      2  C   UNL     1       0.268   0.858  -8.937  1.00  0.00     0.014 C 
ATOM      3  C   UNL     1      -0.849   0.992  -9.976  1.00  0.00     0.091 C 
ATOM      4  C   UNL     1      -0.345  -0.076  -7.905  1.00  0.00     0.041 C 
ATOM      5  C   UNL     1      -1.750   0.541  -7.780  1.00  0.00     0.175 C 
ATOM      6  C   UNL     1      -0.582   2.242 -10.813  1.00  0.00     0.059 C 
ATOM      7  C   UNL     1       1.579   0.479  -9.597  1.00  0.00     0.008 C 
ATOM      8  C   UNL     1       0.918   2.560 -10.994  1.00  0.00     0.143 C 
ATOM      9  C   UNL     1       1.795   1.297 -10.888  1.00  0.00     0.034 C 
ENDROOT
BRANCH   1  10
ATOM     10  C   UNL     1      -3.399   0.999  -9.567  1.00  0.00     0.246 C 
ATOM     11  O   UNL     1      -3.959   2.098  -9.638  1.00  0.00    -0.272 OA
BRANCH  10  12
ATOM     12  C   UNL     1      -4.140  -0.314  -9.955  1.00  0.00     0.174 C 
BRANCH  12  13
ATOM     13  N   UNL     1      -4.115  -1.250  -8.831  1.00  0.00    -0.342 N 
ATOM     14  C   UNL     1      -5.035  -1.279  -7.807  1.00  0.00     0.249 C 
ATOM     15  O   UNL     1      -6.003  -0.532  -7.738  1.00  0.00    -0.272 OA
ATOM     16  H   UNL     1      -3.290  -1.823  -8.671  1.00  0.00     0.164 HD
BRANCH  14  17
ATOM     17  C   UNL     1      -4.727  -2.372  -6.762  1.00  0.00     0.207 C 
BRANCH  17  18
ATOM     18  C   UNL     1      -6.010  -2.802  -6.042  1.00  0.00     0.077 C 
BRANCH  18  19
ATOM     19  C   UNL     1      -5.816  -4.086  -5.267  1.00  0.00    -0.043 A 
ATOM     20  C   UNL     1      -5.776  -5.283  -3.158  1.00  0.00     0.083 A 
ATOM     21  C   UNL     1      -6.003  -4.108  -3.876  1.00  0.00     0.028 A 
ATOM     22  C   UNL     1      -5.361  -6.438  -3.821  1.00  0.00     0.134 A 
ATOM     23  C   UNL     1      -5.172  -6.430  -5.198  1.00  0.00     0.048 A 
ATOM     24  C   UNL     1      -5.397  -5.255  -5.920  1.00  0.00     0.008 A 
ATOM     25  Cl  UNL     1      -6.010  -5.291  -1.449  1.00  0.00    -0.080 Cl
BRANCH  22  26
ATOM     26  O   UNL     1      -5.115  -7.610  -3.158  1.00  0.00    -0.506 OA
ATOM     27  H   UNL     1      -5.686  -8.287  -3.566  1.00  0.00     0.293 HD
ENDBRANCH  22  26
ENDBRANCH  18  19
ENDBRANCH  17  18
BRANCH  17  28
ATOM     28  O   UNL     1      -3.770  -1.909  -5.795  1.00  0.00    -0.383 OA
ATOM     29  H   UNL     1      -3.212  -2.688  -5.570  1.00  0.00     0.211 HD
ENDBRANCH  17  28
ENDBRANCH  14  17
ENDBRANCH  12  13
BRANCH  12  30
ATOM     30  C   UNL     1      -3.596  -0.945 -11.264  1.00  0.00     0.018 C 
ATOM     31  C   UNL     1      -4.686  -0.981 -12.347  1.00  0.00     0.010 C 
BRANCH  30  32
ATOM     32  C   UNL     1      -2.993  -2.358 -11.069  1.00  0.00     0.002 C 
ATOM     33  C   UNL     1      -3.584  -3.446 -11.955  1.00  0.00     0.004 C 
ENDBRANCH  30  32
ENDBRANCH  12  30
ENDBRANCH  10  12
ENDBRANCH   1  10
BRANCH   5  34
ATOM     34  C   UNL     1      -1.752   1.773  -6.836  1.00  0.00     0.242 C 
ATOM     35  O   UNL     1      -0.779   2.073  -6.145  1.00  0.00    -0.273 OA
ATOM     36  N   UNL     1      -2.937   2.472  -6.788  1.00  0.00    -0.354 N 
ATOM     37  H   UNL     1      -3.745   2.104  -7.292  1.00  0.00     0.163 HD
BRANCH  36  38
ATOM     38  C   UNL     1      -3.049   3.759  -6.135  1.00  0.00     0.116 C 
BRANCH  38  39
ATOM     39  C   UNL     1      -3.587   4.795  -7.119  1.00  0.00     0.023 C 
BRANCH  39  40
ATOM     40  C   UNL     1      -5.024   5.201  -6.811  1.00  0.00     0.026 C 
BRANCH  40  41
ATOM     41  C   UNL     1      -5.246   5.308  -5.302  1.00  0.00     0.146 C 
BRANCH  41  42
ATOM     42  N   UNL     1      -6.608   4.906  -4.975  1.00  0.00    -0.254 NA
ATOM     43  C   UNL     1      -6.823   3.748  -4.475  1.00  0.00     0.185 C 
ATOM     44  N   UNL     1      -5.960   2.761  -4.172  1.00  0.00    -0.370 N 
ATOM     45  N   UNL     1      -8.087   3.395  -4.184  1.00  0.00    -0.370 N 
ATOM     46  H   UNL     1      -6.287   1.823  -4.017  1.00  0.00     0.159 HD
ATOM     47  H   UNL     1      -4.960   2.865  -4.316  1.00  0.00     0.159 HD
ATOM     48  H   UNL     1      -8.800   4.086  -4.373  1.00  0.00     0.159 HD
ATOM     49  H   UNL     1      -8.311   2.622  -3.584  1.00  0.00     0.159 HD
ENDBRANCH  41  42
ENDBRANCH  40  41
ENDBRANCH  39  40
ENDBRANCH  38  39
ENDBRANCH  36  38
ENDBRANCH   5  34
BRANCH   8  50
ATOM     50  O   UNL     1       1.344   3.493  -9.999  1.00  0.00    -0.245 OA
BRANCH  50  51
ATOM     51  S   UNL     1       2.829   4.148 -10.097  1.00  0.00     0.397 S 
ATOM     52  O   UNL     1       3.173   4.268 -11.496  1.00  0.00    -0.169 OA
ATOM     53  O   UNL     1       3.711   3.496  -9.151  1.00  0.00    -0.169 OA
BRANCH  51  54
ATOM     54  O   UNL     1       2.569   5.648  -9.579  1.00  0.00    -0.264 OA
ATOM     55  H   UNL     1       2.941   6.262 -10.245  1.00  0.00     0.236 HD
ENDBRANCH  51  54
ENDBRANCH  50  51
ENDBRANCH   8  50
TORSDOF 19
ENDMDL
MODEL 6
REMARK VINA RESULT:    -6.414      9.021     12.923
REMARK INTER + INTRA:         -15.943
REMARK INTER:                 -11.295
REMARK INTRA:                  -4.648
REMARK UNBOUND:                -2.968
REMARK SMILES CC[C@@H](C)[C@@H](NC(=O)[C@@H](O)Cc1ccc(O)c(Cl)c1)C(=O)N1[C@H](C(=O)NCCCCN=C(N)N)C[C@H]2CC[C@H](OS(=O)(=O)O)C[C@@H]21
REMARK SMILES IDX 22 1 36 2 46 3 35 4 23 5 45 6 37 7 39 8 38 9 20 10 21 11
REMARK SMILES IDX 5 12 6 13 7 14 8 15 9 17 11 18 12 19 17 20 19 21 15 22 14 23
REMARK SMILES IDX 13 24 18 25 16 26 10 28 3 30 4 31 2 32 1 33 24 34 25 35
REMARK SMILES IDX 26 36 27 38 28 39 29 40 30 41 31 42 32 43 33 44 34 45 40 50
REMARK SMILES IDX 41 51 42 52 43 53 44 54
REMARK H PARENT 6 16 16 27 10 29 26 37 33 46 33 47 34 48 34 49 44 55
ROOT
ATOM      1  N   UNL     1     -18.177   0.277   5.314  1.00  0.00    -0.326 N 
ATOM      2  C   UNL     1     -16.348   1.754   5.188  1.00  0.00     0.014 C 
ATOM      3  C   UNL     1     -17.260   0.867   4.335  1.00  0.00     0.091 C 
ATOM      4  C   UNL     1     -16.232   0.967   6.484  1.00  0.00     0.041 C 
ATOM      5  C   UNL     1     -17.704   0.564   6.691  1.00  0.00     0.175 C 
ATOM      6  C   UNL     1     -17.849   1.719   3.212  1.00  0.00     0.059 C 
ATOM      7  C   UNL     1     -15.090   2.127   4.429  1.00  0.00     0.008 C 
ATOM      8  C   UNL     1     -16.911   2.847   2.731  1.00  0.00     0.143 C 
ATOM      9  C   UNL     1     -15.426   2.510   2.972  1.00  0.00     0.034 C 
ENDROOT
BRANCH   1  10
ATOM     10  C   UNL     1     -19.211  -0.625   5.130  1.00  0.00     0.246 C 
ATOM     11  O   UNL     1     -20.377  -0.240   5.273  1.00  0.00    -0.272 OA
BRANCH  10  12
ATOM     12  C   UNL     1     -18.888  -2.087   4.708  1.00  0.00     0.174 C 
BRANCH  12  13
ATOM     13  N   UNL     1     -17.440  -2.267   4.603  1.00  0.00    -0.342 N 
ATOM     14  C   UNL     1     -16.627  -2.732   5.612  1.00  0.00     0.249 C 
ATOM     15  O   UNL     1     -17.036  -3.077   6.714  1.00  0.00    -0.272 OA
ATOM     16  H   UNL     1     -16.941  -1.878   3.808  1.00  0.00     0.164 HD
BRANCH  14  17
ATOM     17  C   UNL     1     -15.141  -2.794   5.198  1.00  0.00     0.207 C 
BRANCH  17  18
ATOM     18  C   UNL     1     -15.013  -3.120   3.707  1.00  0.00     0.077 C 
BRANCH  18  19
ATOM     19  C   UNL     1     -14.166  -2.102   2.979  1.00  0.00    -0.043 A 
ATOM     20  C   UNL     1     -12.024  -1.021   2.617  1.00  0.00     0.083 A 
ATOM     21  C   UNL     1     -12.793  -1.995   3.255  1.00  0.00     0.028 A 
ATOM     22  C   UNL     1     -12.618  -0.148   1.705  1.00  0.00     0.134 A 
ATOM     23  C   UNL     1     -13.976  -0.243   1.423  1.00  0.00     0.048 A 
ATOM     24  C   UNL     1     -14.749  -1.216   2.060  1.00  0.00     0.008 A 
ATOM     25  Cl  UNL     1     -10.340  -0.906   2.969  1.00  0.00    -0.080 Cl
BRANCH  22  26
ATOM     26  O   UNL     1     -11.907   0.829   1.063  1.00  0.00    -0.506 OA
ATOM     27  H   UNL     1     -12.311   1.680   1.316  1.00  0.00     0.293 HD
ENDBRANCH  22  26
ENDBRANCH  18  19
ENDBRANCH  17  18
BRANCH  17  28
ATOM     28  O   UNL     1     -14.431  -3.780   5.965  1.00  0.00    -0.383 OA
ATOM     29  H   UNL     1     -15.032  -4.036   6.701  1.00  0.00     0.211 HD
ENDBRANCH  17  28
ENDBRANCH  14  17
ENDBRANCH  12  13
BRANCH  12  30
ATOM     30  C   UNL     1     -19.634  -2.517   3.416  1.00  0.00     0.018 C 
ATOM     31  C   UNL     1     -19.086  -3.853   2.888  1.00  0.00     0.010 C 
BRANCH  30  32
ATOM     32  C   UNL     1     -19.602  -1.450   2.296  1.00  0.00     0.002 C 
ATOM     33  C   UNL     1     -18.391  -1.508   1.374  1.00  0.00     0.004 C 
ENDBRANCH  30  32
ENDBRANCH  12  30
ENDBRANCH  10  12
ENDBRANCH   1  10
BRANCH   5  34
ATOM     34  C   UNL     1     -18.528   1.714   7.328  1.00  0.00     0.242 C 
ATOM     35  O   UNL     1     -18.475   1.974   8.530  1.00  0.00    -0.273 OA
ATOM     36  N   UNL     1     -19.361   2.387   6.462  1.00  0.00    -0.354 N 
ATOM     37  H   UNL     1     -19.450   2.048   5.503  1.00  0.00     0.163 HD
BRANCH  36  38
ATOM     38  C   UNL     1     -20.033   3.615   6.834  1.00  0.00     0.116 C 
BRANCH  38  39
ATOM     39  C   UNL     1     -19.481   4.777   6.013  1.00  0.00     0.023 C 
BRANCH  39  40
ATOM     40  C   UNL     1     -18.685   5.763   6.861  1.00  0.00     0.026 C 
BRANCH  40  41
ATOM     41  C   UNL     1     -17.343   5.160   7.277  1.00  0.00     0.146 C 
BRANCH  41  42
ATOM     42  N   UNL     1     -16.303   5.583   6.348  1.00  0.00    -0.254 NA
ATOM     43  C   UNL     1     -15.100   5.182   6.520  1.00  0.00     0.185 C 
ATOM     44  N   UNL     1     -14.581   4.381   7.469  1.00  0.00    -0.370 N 
ATOM     45  N   UNL     1     -14.155   5.586   5.655  1.00  0.00    -0.370 N 
ATOM     46  H   UNL     1     -13.588   4.348   7.626  1.00  0.00     0.159 HD
ATOM     47  H   UNL     1     -15.160   3.974   8.197  1.00  0.00     0.159 HD
ATOM     48  H   UNL     1     -14.464   6.186   4.902  1.00  0.00     0.159 HD
ATOM     49  H   UNL     1     -13.259   5.138   5.579  1.00  0.00     0.159 HD
ENDBRANCH  41  42
ENDBRANCH  40  41
ENDBRANCH  39  40
ENDBRANCH  38  39
ENDBRANCH  36  38
ENDBRANCH   5  34
BRANCH   8  50
ATOM     50  O   UNL     1     -17.217   4.063   3.415  1.00  0.00    -0.245 OA
BRANCH  50  51
ATOM     51  S   UNL     1     -17.050   5.484   2.641  1.00  0.00     0.397 S 
ATOM     52  O   UNL     1     -18.032   6.401   3.175  1.00  0.00    -0.169 OA
ATOM     53  O   UNL     1     -16.923   5.250   1.218  1.00  0.00    -0.169 OA
BRANCH  51  54
ATOM     54  O   UNL     1     -15.628   5.998   3.188  1.00  0.00    -0.264 OA
ATOM     55  H   UNL     1     -15.567   5.758   4.135  1.00  0.00     0.236 HD
ENDBRANCH  51  54
ENDBRANCH  50  51
ENDBRANCH   8  50
TORSDOF 19
ENDMDL
MODEL 7
REMARK VINA RESULT:    -6.397     12.954     17.362
REMARK INTER + INTRA:         -15.909
REMARK INTER:                 -11.880
REMARK INTRA:                  -4.029
REMARK UNBOUND:                -2.968
REMARK SMILES CC[C@@H](C)[C@@H](NC(=O)[C@@H](O)Cc1ccc(O)c(Cl)c1)C(=O)N1[C@H](C(=O)NCCCCN=C(N)N)C[C@H]2CC[C@H](OS(=O)(=O)O)C[C@@H]21
REMARK SMILES IDX 22 1 36 2 46 3 35 4 23 5 45 6 37 7 39 8 38 9 20 10 21 11
REMARK SMILES IDX 5 12 6 13 7 14 8 15 9 17 11 18 12 19 17 20 19 21 15 22 14 23
REMARK SMILES IDX 13 24 18 25 16 26 10 28 3 30 4 31 2 32 1 33 24 34 25 35
REMARK SMILES IDX 26 36 27 38 28 39 29 40 30 41 31 42 32 43 33 44 34 45 40 50
REMARK SMILES IDX 41 51 42 52 43 53 44 54
REMARK H PARENT 6 16 16 27 10 29 26 37 33 46 33 47 34 48 34 49 44 55
ROOT
ATOM      1  N   UNL     1     -11.757  -5.029  12.084  1.00  0.00    -0.326 N 
ATOM      2  C   UNL     1     -10.766  -4.261  14.076  1.00  0.00     0.014 C 
ATOM      3  C   UNL     1     -10.442  -4.872  12.710  1.00  0.00     0.091 C 
ATOM      4  C   UNL     1     -12.093  -4.916  14.430  1.00  0.00     0.041 C 
ATOM      5  C   UNL     1     -12.828  -4.786  13.083  1.00  0.00     0.175 C 
ATOM      6  C   UNL     1      -9.410  -3.984  12.017  1.00  0.00     0.059 C 
ATOM      7  C   UNL     1      -9.592  -4.400  15.026  1.00  0.00     0.008 C 
ATOM      8  C   UNL     1      -8.440  -3.280  12.991  1.00  0.00     0.143 C 
ATOM      9  C   UNL     1      -8.268  -4.067  14.306  1.00  0.00     0.034 C 
ENDROOT
BRANCH   1  10
ATOM     10  C   UNL     1     -12.095  -5.549  10.846  1.00  0.00     0.246 C 
ATOM     11  O   UNL     1     -12.688  -6.632  10.791  1.00  0.00    -0.272 OA
BRANCH  10  12
ATOM     12  C   UNL     1     -11.760  -4.743   9.558  1.00  0.00     0.174 C 
BRANCH  12  13
ATOM     13  N   UNL     1     -12.892  -3.892   9.193  1.00  0.00    -0.342 N 
ATOM     14  C   UNL     1     -12.843  -2.522   9.072  1.00  0.00     0.249 C 
ATOM     15  O   UNL     1     -11.826  -1.859   9.231  1.00  0.00    -0.272 OA
ATOM     16  H   UNL     1     -13.832  -4.281   9.185  1.00  0.00     0.164 HD
BRANCH  14  17
ATOM     17  C   UNL     1     -14.208  -1.909   8.692  1.00  0.00     0.207 C 
BRANCH  17  18
ATOM     18  C   UNL     1     -14.029  -0.822   7.627  1.00  0.00     0.077 C 
BRANCH  18  19
ATOM     19  C   UNL     1     -14.089  -1.392   6.227  1.00  0.00    -0.043 A 
ATOM     20  C   UNL     1     -15.260  -2.658   4.521  1.00  0.00     0.083 A 
ATOM     21  C   UNL     1     -15.227  -2.091   5.795  1.00  0.00     0.028 A 
ATOM     22  C   UNL     1     -14.159  -2.533   3.673  1.00  0.00     0.134 A 
ATOM     23  C   UNL     1     -13.025  -1.844   4.088  1.00  0.00     0.048 A 
ATOM     24  C   UNL     1     -12.989  -1.276   5.363  1.00  0.00     0.008 A 
ATOM     25  Cl  UNL     1     -16.667  -3.513   4.008  1.00  0.00    -0.080 Cl
BRANCH  22  26
ATOM     26  O   UNL     1     -14.140  -3.081   2.419  1.00  0.00    -0.506 OA
ATOM     27  H   UNL     1     -13.265  -2.880   2.038  1.00  0.00     0.293 HD
ENDBRANCH  22  26
ENDBRANCH  18  19
ENDBRANCH  17  18
BRANCH  17  28
ATOM     28  O   UNL     1     -14.861  -1.346   9.842  1.00  0.00    -0.383 OA
ATOM     29  H   UNL     1     -14.181  -0.801  10.300  1.00  0.00     0.211 HD
ENDBRANCH  17  28
ENDBRANCH  14  17
ENDBRANCH  12  13
BRANCH  12  30
ATOM     30  C   UNL     1     -11.300  -5.651   8.385  1.00  0.00     0.018 C 
ATOM     31  C   UNL     1      -9.811  -6.006   8.521  1.00  0.00     0.010 C 
BRANCH  30  32
ATOM     32  C   UNL     1     -11.577  -5.047   6.987  1.00  0.00     0.002 C 
ATOM     33  C   UNL     1     -10.579  -3.994   6.522  1.00  0.00     0.004 C 
ENDBRANCH  30  32
ENDBRANCH  12  30
ENDBRANCH  10  12
ENDBRANCH   1  10
BRANCH   5  34
ATOM     34  C   UNL     1     -13.441  -3.373  12.900  1.00  0.00     0.242 C 
ATOM     35  O   UNL     1     -12.899  -2.503  12.218  1.00  0.00    -0.273 OA
ATOM     36  N   UNL     1     -14.606  -3.145  13.598  1.00  0.00    -0.354 N 
ATOM     37  H   UNL     1     -14.942  -3.864  14.241  1.00  0.00     0.163 HD
BRANCH  36  38
ATOM     38  C   UNL     1     -15.423  -1.970  13.377  1.00  0.00     0.116 C 
BRANCH  38  39
ATOM     39  C   UNL     1     -16.752  -2.374  12.743  1.00  0.00     0.023 C 
BRANCH  39  40
ATOM     40  C   UNL     1     -17.797  -1.267  12.825  1.00  0.00     0.026 C 
BRANCH  40  41
ATOM     41  C   UNL     1     -18.612  -1.194  11.534  1.00  0.00     0.146 C 
BRANCH  41  42
ATOM     42  N   UNL     1     -17.801  -1.649  10.412  1.00  0.00    -0.254 NA
ATOM     43  C   UNL     1     -18.370  -2.139   9.376  1.00  0.00     0.185 C 
ATOM     44  N   UNL     1     -19.677  -2.322   9.112  1.00  0.00    -0.370 N 
ATOM     45  N   UNL     1     -17.604  -2.557   8.355  1.00  0.00    -0.370 N 
ATOM     46  H   UNL     1     -19.969  -2.936   8.371  1.00  0.00     0.159 HD
ATOM     47  H   UNL     1     -20.398  -2.048   9.772  1.00  0.00     0.159 HD
ATOM     48  H   UNL     1     -16.606  -2.446   8.469  1.00  0.00     0.159 HD
ATOM     49  H   UNL     1     -17.969  -2.725   7.434  1.00  0.00     0.159 HD
ENDBRANCH  41  42
ENDBRANCH  40  41
ENDBRANCH  39  40
ENDBRANCH  38  39
ENDBRANCH  36  38
ENDBRANCH   5  34
BRANCH   8  50
ATOM     50  O   UNL     1      -8.922  -1.974  13.304  1.00  0.00    -0.245 OA
BRANCH  50  51
ATOM     51  S   UNL     1      -8.836  -0.796  12.186  1.00  0.00     0.397 S 
ATOM     52  O   UNL     1      -8.211  -1.347  11.005  1.00  0.00    -0.169 OA
ATOM     53  O   UNL     1      -8.355   0.424  12.800  1.00  0.00    -0.169 OA
BRANCH  51  54
ATOM     54  O   UNL     1     -10.383  -0.582  11.803  1.00  0.00    -0.264 OA
ATOM     55  H   UNL     1     -10.676  -1.367  11.296  1.00  0.00     0.236 HD
ENDBRANCH  51  54
ENDBRANCH  50  51
ENDBRANCH   8  50
TORSDOF 19
ENDMDL
MODEL 8
REMARK VINA RESULT:    -6.381      7.586     11.076
REMARK INTER + INTRA:         -15.876
REMARK INTER:                 -12.430
REMARK INTRA:                  -3.446
REMARK UNBOUND:                -2.968
REMARK SMILES CC[C@@H](C)[C@@H](NC(=O)[C@@H](O)Cc1ccc(O)c(Cl)c1)C(=O)N1[C@H](C(=O)NCCCCN=C(N)N)C[C@H]2CC[C@H](OS(=O)(=O)O)C[C@@H]21
REMARK SMILES IDX 22 1 36 2 46 3 35 4 23 5 45 6 37 7 39 8 38 9 20 10 21 11
REMARK SMILES IDX 5 12 6 13 7 14 8 15 9 17 11 18 12 19 17 20 19 21 15 22 14 23
REMARK SMILES IDX 13 24 18 25 16 26 10 28 3 30 4 31 2 32 1 33 24 34 25 35
REMARK SMILES IDX 26 36 27 38 28 39 29 40 30 41 31 42 32 43 33 44 34 45 40 50
REMARK SMILES IDX 41 51 42 52 43 53 44 54
REMARK H PARENT 6 16 16 27 10 29 26 37 33 46 33 47 34 48 34 49 44 55
ROOT
ATOM      1  N   UNL     1      -5.973   1.071  -7.878  1.00  0.00    -0.326 N 
ATOM      2  C   UNL     1      -5.885  -0.965  -6.699  1.00  0.00     0.014 C 
ATOM      3  C   UNL     1      -6.362  -0.336  -8.012  1.00  0.00     0.091 C 
ATOM      4  C   UNL     1      -6.101   0.155  -5.693  1.00  0.00     0.041 C 
ATOM      5  C   UNL     1      -5.535   1.347  -6.487  1.00  0.00     0.175 C 
ATOM      6  C   UNL     1      -5.780  -1.140  -9.173  1.00  0.00     0.059 C 
ATOM      7  C   UNL     1      -6.549  -2.308  -6.470  1.00  0.00     0.008 C 
ATOM      8  C   UNL     1      -5.595  -2.641  -8.858  1.00  0.00     0.143 C 
ATOM      9  C   UNL     1      -6.579  -3.131  -7.776  1.00  0.00     0.034 C 
ENDROOT
BRANCH   1  10
ATOM     10  C   UNL     1      -6.162   2.131  -8.748  1.00  0.00     0.246 C 
ATOM     11  O   UNL     1      -5.216   2.512  -9.446  1.00  0.00    -0.272 OA
BRANCH  10  12
ATOM     12  C   UNL     1      -7.567   2.790  -8.861  1.00  0.00     0.174 C 
BRANCH  12  13
ATOM     13  N   UNL     1      -7.675   3.522 -10.123  1.00  0.00    -0.342 N 
ATOM     14  C   UNL     1      -8.543   3.211 -11.145  1.00  0.00     0.249 C 
ATOM     15  O   UNL     1      -9.350   2.291 -11.099  1.00  0.00    -0.272 OA
ATOM     16  H   UNL     1      -6.966   4.209 -10.368  1.00  0.00     0.164 HD
BRANCH  14  17
ATOM     17  C   UNL     1      -8.405   4.162 -12.353  1.00  0.00     0.207 C 
BRANCH  17  18
ATOM     18  C   UNL     1      -9.633   5.070 -12.463  1.00  0.00     0.077 C 
BRANCH  18  19
ATOM     19  C   UNL     1      -9.852   5.874 -11.201  1.00  0.00    -0.043 A 
ATOM     20  C   UNL     1     -11.221   6.442  -9.281  1.00  0.00     0.083 A 
ATOM     21  C   UNL     1     -10.998   5.665 -10.418  1.00  0.00     0.028 A 
ATOM     22  C   UNL     1     -10.306   7.432  -8.921  1.00  0.00     0.134 A 
ATOM     23  C   UNL     1      -9.167   7.650  -9.688  1.00  0.00     0.048 A 
ATOM     24  C   UNL     1      -8.942   6.875 -10.827  1.00  0.00     0.008 A 
ATOM     25  Cl  UNL     1     -12.635   6.170  -8.332  1.00  0.00    -0.080 Cl
BRANCH  22  26
ATOM     26  O   UNL     1     -10.488   8.226  -7.821  1.00  0.00    -0.506 OA
ATOM     27  H   UNL     1     -10.890   7.664  -7.134  1.00  0.00     0.293 HD
ENDBRANCH  22  26
ENDBRANCH  18  19
ENDBRANCH  17  18
BRANCH  17  28
ATOM     28  O   UNL     1      -8.246   3.424 -13.576  1.00  0.00    -0.383 OA
ATOM     29  H   UNL     1      -7.335   3.618 -13.895  1.00  0.00     0.211 HD
ENDBRANCH  17  28
ENDBRANCH  14  17
ENDBRANCH  12  13
BRANCH  12  30
ATOM     30  C   UNL     1      -7.917   3.672  -7.632  1.00  0.00     0.018 C 
ATOM     31  C   UNL     1      -9.439   3.777  -7.450  1.00  0.00     0.010 C 
BRANCH  30  32
ATOM     32  C   UNL     1      -7.288   5.086  -7.684  1.00  0.00     0.002 C 
ATOM     33  C   UNL     1      -6.100   5.305  -6.757  1.00  0.00     0.004 C 
ENDBRANCH  30  32
ENDBRANCH  12  30
ENDBRANCH  10  12
ENDBRANCH   1  10
BRANCH   5  34
ATOM     34  C   UNL     1      -3.987   1.409  -6.400  1.00  0.00     0.242 C 
ATOM     35  O   UNL     1      -3.358   0.878  -5.485  1.00  0.00    -0.273 OA
ATOM     36  N   UNL     1      -3.374   2.146  -7.388  1.00  0.00    -0.354 N 
ATOM     37  H   UNL     1      -3.956   2.662  -8.049  1.00  0.00     0.163 HD
BRANCH  36  38
ATOM     38  C   UNL     1      -1.939   2.133  -7.585  1.00  0.00     0.116 C 
BRANCH  38  39
ATOM     39  C   UNL     1      -1.621   2.068  -9.077  1.00  0.00     0.023 C 
BRANCH  39  40
ATOM     40  C   UNL     1      -0.251   2.652  -9.407  1.00  0.00     0.026 C 
BRANCH  40  41
ATOM     41  C   UNL     1       0.749   1.540  -9.725  1.00  0.00     0.146 C 
BRANCH  41  42
ATOM     42  N   UNL     1       0.202   0.665 -10.753  1.00  0.00    -0.254 NA
ATOM     43  C   UNL     1       0.260  -0.605 -10.600  1.00  0.00     0.185 C 
ATOM     44  N   UNL     1       0.770  -1.333  -9.590  1.00  0.00    -0.370 N 
ATOM     45  N   UNL     1      -0.246  -1.395 -11.562  1.00  0.00    -0.370 N 
ATOM     46  H   UNL     1       0.969  -2.311  -9.712  1.00  0.00     0.159 HD
ATOM     47  H   UNL     1       1.182  -0.894  -8.773  1.00  0.00     0.159 HD
ATOM     48  H   UNL     1      -0.659  -0.925 -12.356  1.00  0.00     0.159 HD
ATOM     49  H   UNL     1      -0.452  -2.367 -11.415  1.00  0.00     0.159 HD
ENDBRANCH  41  42
ENDBRANCH  40  41
ENDBRANCH  39  40
ENDBRANCH  38  39
ENDBRANCH  36  38
ENDBRANCH   5  34
BRANCH   8  50
ATOM     50  O   UNL     1      -4.263  -2.886  -8.404  1.00  0.00    -0.245 OA
BRANCH  50  51
ATOM     51  S   UNL     1      -3.238  -3.728  -9.344  1.00  0.00     0.397 S 
ATOM     52  O   UNL     1      -3.744  -3.697 -10.698  1.00  0.00    -0.169 OA
ATOM     53  O   UNL     1      -2.892  -4.974  -8.692  1.00  0.00    -0.169 OA
BRANCH  51  54
ATOM     54  O   UNL     1      -1.933  -2.789  -9.343  1.00  0.00    -0.264 OA
ATOM     55  H   UNL     1      -1.224  -3.262  -9.825  1.00  0.00     0.236 HD
ENDBRANCH  51  54
ENDBRANCH  50  51
ENDBRANCH   8  50
TORSDOF 19
ENDMDL
MODEL 9
REMARK VINA RESULT:    -6.280      8.067     12.791
REMARK INTER + INTRA:         -15.672
REMARK INTER:                 -11.771
REMARK INTRA:                  -3.901
REMARK UNBOUND:                -2.968
REMARK SMILES CC[C@@H](C)[C@@H](NC(=O)[C@@H](O)Cc1ccc(O)c(Cl)c1)C(=O)N1[C@H](C(=O)NCCCCN=C(N)N)C[C@H]2CC[C@H](OS(=O)(=O)O)C[C@@H]21
REMARK SMILES IDX 22 1 36 2 46 3 35 4 23 5 45 6 37 7 39 8 38 9 20 10 21 11
REMARK SMILES IDX 5 12 6 13 7 14 8 15 9 17 11 18 12 19 17 20 19 21 15 22 14 23
REMARK SMILES IDX 13 24 18 25 16 26 10 28 3 30 4 31 2 32 1 33 24 34 25 35
REMARK SMILES IDX 26 36 27 38 28 39 29 40 30 41 31 42 32 43 33 44 34 45 40 50
REMARK SMILES IDX 41 51 42 52 43 53 44 54
REMARK H PARENT 6 16 16 27 10 29 26 37 33 46 33 47 34 48 34 49 44 55
ROOT
ATOM      1  N   UNL     1      -8.469  -2.951   1.827  1.00  0.00    -0.326 N 
ATOM      2  C   UNL     1      -8.294  -0.603   1.811  1.00  0.00     0.014 C 
ATOM      3  C   UNL     1      -7.839  -1.864   1.071  1.00  0.00     0.091 C 
ATOM      4  C   UNL     1      -8.343  -1.064   3.259  1.00  0.00     0.041 C 
ATOM      5  C   UNL     1      -9.045  -2.424   3.089  1.00  0.00     0.175 C 
ATOM      6  C   UNL     1      -8.193  -1.711  -0.408  1.00  0.00     0.059 C 
ATOM      7  C   UNL     1      -7.430   0.586   1.437  1.00  0.00     0.008 C 
ATOM      8  C   UNL     1      -8.143  -0.252  -0.910  1.00  0.00     0.143 C 
ATOM      9  C   UNL     1      -7.170   0.613  -0.084  1.00  0.00     0.034 C 
ENDROOT
BRANCH   1  10
ATOM     10  C   UNL     1      -8.401  -4.320   1.636  1.00  0.00     0.246 C 
ATOM     11  O   UNL     1      -9.338  -4.896   1.071  1.00  0.00    -0.272 OA
BRANCH  10  12
ATOM     12  C   UNL     1      -7.134  -5.097   2.097  1.00  0.00     0.174 C 
BRANCH  12  13
ATOM     13  N   UNL     1      -7.258  -5.463   3.507  1.00  0.00    -0.342 N 
ATOM     14  C   UNL     1      -7.806  -6.636   3.974  1.00  0.00     0.249 C 
ATOM     15  O   UNL     1      -8.229  -7.527   3.248  1.00  0.00    -0.272 OA
ATOM     16  H   UNL     1      -7.095  -4.761   4.226  1.00  0.00     0.164 HD
BRANCH  14  17
ATOM     17  C   UNL     1      -7.810  -6.720   5.515  1.00  0.00     0.207 C 
BRANCH  17  18
ATOM     18  C   UNL     1      -8.133  -5.352   6.125  1.00  0.00     0.077 C 
BRANCH  18  19
ATOM     19  C   UNL     1      -9.284  -5.430   7.102  1.00  0.00    -0.043 A 
ATOM     20  C   UNL     1     -11.461  -4.667   7.853  1.00  0.00     0.083 A 
ATOM     21  C   UNL     1     -10.422  -4.628   6.922  1.00  0.00     0.028 A 
ATOM     22  C   UNL     1     -11.370  -5.502   8.966  1.00  0.00     0.134 A 
ATOM     23  C   UNL     1     -10.249  -6.302   9.157  1.00  0.00     0.048 A 
ATOM     24  C   UNL     1      -9.207  -6.264   8.228  1.00  0.00     0.008 A 
ATOM     25  Cl  UNL     1     -12.850  -3.674   7.614  1.00  0.00    -0.080 Cl
BRANCH  22  26
ATOM     26  O   UNL     1     -12.359  -5.566   9.911  1.00  0.00    -0.506 OA
ATOM     27  H   UNL     1     -12.998  -6.236   9.603  1.00  0.00     0.293 HD
ENDBRANCH  22  26
ENDBRANCH  18  19
ENDBRANCH  17  18
BRANCH  17  28
ATOM     28  O   UNL     1      -6.541  -7.176   6.012  1.00  0.00    -0.383 OA
ATOM     29  H   UNL     1      -6.290  -6.551   6.730  1.00  0.00     0.211 HD
ENDBRANCH  17  28
ENDBRANCH  14  17
ENDBRANCH  12  13
BRANCH  12  30
ATOM     30  C   UNL     1      -5.818  -4.329   1.797  1.00  0.00     0.018 C 
ATOM     31  C   UNL     1      -4.829  -5.219   1.028  1.00  0.00     0.010 C 
BRANCH  30  32
ATOM     32  C   UNL     1      -5.138  -3.746   3.060  1.00  0.00     0.002 C 
ATOM     33  C   UNL     1      -3.718  -4.234   3.318  1.00  0.00     0.004 C 
ENDBRANCH  30  32
ENDBRANCH  12  30
ENDBRANCH  10  12
ENDBRANCH   1  10
BRANCH   5  34
ATOM     34  C   UNL     1     -10.583  -2.262   2.967  1.00  0.00     0.242 C 
ATOM     35  O   UNL     1     -11.147  -2.136   1.880  1.00  0.00    -0.273 OA
ATOM     36  N   UNL     1     -11.264  -2.215   4.163  1.00  0.00    -0.354 N 
ATOM     37  H   UNL     1     -10.730  -2.204   5.032  1.00  0.00     0.163 HD
BRANCH  36  38
ATOM     38  C   UNL     1     -12.709  -2.285   4.233  1.00  0.00     0.116 C 
BRANCH  38  39
ATOM     39  C   UNL     1     -13.276  -0.918   4.612  1.00  0.00     0.023 C 
BRANCH  39  40
ATOM     40  C   UNL     1     -13.920  -0.206   3.427  1.00  0.00     0.026 C 
BRANCH  40  41
ATOM     41  C   UNL     1     -13.362   1.209   3.277  1.00  0.00     0.146 C 
BRANCH  41  42
ATOM     42  N   UNL     1     -13.706   1.737   1.963  1.00  0.00    -0.254 NA
ATOM     43  C   UNL     1     -12.784   1.921   1.094  1.00  0.00     0.185 C 
ATOM     44  N   UNL     1     -11.459   1.699   1.177  1.00  0.00    -0.370 N 
ATOM     45  N   UNL     1     -13.120   2.413  -0.110  1.00  0.00    -0.370 N 
ATOM     46  H   UNL     1     -10.827   2.114   0.514  1.00  0.00     0.159 HD
ATOM     47  H   UNL     1     -11.035   1.314   2.016  1.00  0.00     0.159 HD
ATOM     48  H   UNL     1     -14.103   2.600  -0.259  1.00  0.00     0.159 HD
ATOM     49  H   UNL     1     -12.512   2.362  -0.907  1.00  0.00     0.159 HD
ENDBRANCH  41  42
ENDBRANCH  40  41
ENDBRANCH  39  40
ENDBRANCH  38  39
ENDBRANCH  36  38
ENDBRANCH   5  34
BRANCH   8  50
ATOM     50  O   UNL     1      -9.443   0.336  -0.840  1.00  0.00    -0.245 OA
BRANCH  50  51
ATOM     51  S   UNL     1      -9.816   1.579  -1.821  1.00  0.00     0.397 S 
ATOM     52  O   UNL     1      -9.130   1.378  -3.077  1.00  0.00    -0.169 OA
ATOM     53  O   UNL     1      -9.711   2.824  -1.089  1.00  0.00    -0.169 OA
BRANCH  51  54
ATOM     54  O   UNL     1     -11.372   1.312  -2.124  1.00  0.00    -0.264 OA
ATOM     55  H   UNL     1     -11.497   1.343  -3.094  1.00  0.00     0.236 HD
ENDBRANCH  51  54
ENDBRANCH  50  51
ENDBRANCH   8  50
TORSDOF 19
ENDMDL
MODEL 10
REMARK VINA RESULT:    -6.201     14.376     17.907
REMARK INTER + INTRA:         -15.512
REMARK INTER:                 -12.288
REMARK INTRA:                  -3.224
REMARK UNBOUND:                -2.968
REMARK SMILES CC[C@@H](C)[C@@H](NC(=O)[C@@H](O)Cc1ccc(O)c(Cl)c1)C(=O)N1[C@H](C(=O)NCCCCN=C(N)N)C[C@H]2CC[C@H](OS(=O)(=O)O)C[C@@H]21
REMARK SMILES IDX 22 1 36 2 46 3 35 4 23 5 45 6 37 7 39 8 38 9 20 10 21 11
REMARK SMILES IDX 5 12 6 13 7 14 8 15 9 17 11 18 12 19 17 20 19 21 15 22 14 23
REMARK SMILES IDX 13 24 18 25 16 26 10 28 3 30 4 31 2 32 1 33 24 34 25 35
REMARK SMILES IDX 26 36 27 38 28 39 29 40 30 41 31 42 32 43 33 44 34 45 40 50
REMARK SMILES IDX 41 51 42 52 43 53 44 54
REMARK H PARENT 6 16 16 27 10 29 26 37 33 46 33 47 34 48 34 49 44 55
ROOT
ATOM      1  N   UNL     1     -11.214  -3.120  11.525  1.00  0.00    -0.326 N 
ATOM      2  C   UNL     1     -12.884  -4.376  12.609  1.00  0.00     0.014 C 
ATOM      3  C   UNL     1     -12.299  -2.965  12.498  1.00  0.00     0.091 C 
ATOM      4  C   UNL     1     -11.659  -5.261  12.445  1.00  0.00     0.041 C 
ATOM      5  C   UNL     1     -10.973  -4.560  11.258  1.00  0.00     0.175 C 
ATOM      6  C   UNL     1     -13.433  -1.996  12.171  1.00  0.00     0.059 C 
ATOM      7  C   UNL     1     -13.738  -4.512  13.854  1.00  0.00     0.008 C 
ATOM      8  C   UNL     1     -14.795  -2.408  12.769  1.00  0.00     0.143 C 
ATOM      9  C   UNL     1     -14.633  -3.268  14.039  1.00  0.00     0.034 C 
ENDROOT
BRANCH   1  10
ATOM     10  C   UNL     1     -10.316  -2.185  11.040  1.00  0.00     0.246 C 
ATOM     11  O   UNL     1     -10.622  -1.516  10.047  1.00  0.00    -0.272 OA
BRANCH  10  12
ATOM     12  C   UNL     1      -8.963  -1.966  11.777  1.00  0.00     0.174 C 
BRANCH  12  13
ATOM     13  N   UNL     1      -8.349  -0.716  11.331  1.00  0.00    -0.342 N 
ATOM     14  C   UNL     1      -7.886   0.279  12.163  1.00  0.00     0.249 C 
ATOM     15  O   UNL     1      -7.914   0.213  13.386  1.00  0.00    -0.272 OA
ATOM     16  H   UNL     1      -8.399  -0.452  10.350  1.00  0.00     0.164 HD
BRANCH  14  17
ATOM     17  C   UNL     1      -7.307   1.482  11.389  1.00  0.00     0.207 C 
BRANCH  17  18
ATOM     18  C   UNL     1      -8.200   2.714  11.568  1.00  0.00     0.077 C 
BRANCH  18  19
ATOM     19  C   UNL     1      -7.467   3.843  12.257  1.00  0.00    -0.043 A 
ATOM     20  C   UNL     1      -7.419   6.122  13.087  1.00  0.00     0.083 A 
ATOM     21  C   UNL     1      -8.113   5.066  12.496  1.00  0.00     0.028 A 
ATOM     22  C   UNL     1      -6.079   5.966  13.441  1.00  0.00     0.134 A 
ATOM     23  C   UNL     1      -5.426   4.760  13.211  1.00  0.00     0.048 A 
ATOM     24  C   UNL     1      -6.118   3.701  12.618  1.00  0.00     0.008 A 
ATOM     25  Cl  UNL     1      -8.231   7.617  13.371  1.00  0.00    -0.080 Cl
BRANCH  22  26
ATOM     26  O   UNL     1      -5.354   6.976  14.013  1.00  0.00    -0.506 OA
ATOM     27  H   UNL     1      -5.943   7.752  14.058  1.00  0.00     0.293 HD
ENDBRANCH  22  26
ENDBRANCH  18  19
ENDBRANCH  17  18
BRANCH  17  28
ATOM     28  O   UNL     1      -7.182   1.184   9.989  1.00  0.00    -0.383 OA
ATOM     29  H   UNL     1      -8.022   0.743   9.728  1.00  0.00     0.211 HD
ENDBRANCH  17  28
ENDBRANCH  14  17
ENDBRANCH  12  13
BRANCH  12  30
ATOM     30  C   UNL     1      -8.004  -3.179  11.643  1.00  0.00     0.018 C 
ATOM     31  C   UNL     1      -7.214  -3.397  12.944  1.00  0.00     0.010 C 
BRANCH  30  32
ATOM     32  C   UNL     1      -7.032  -3.073  10.443  1.00  0.00     0.002 C 
ATOM     33  C   UNL     1      -6.636  -4.399   9.807  1.00  0.00     0.004 C 
ENDBRANCH  30  32
ENDBRANCH  12  30
ENDBRANCH  10  12
ENDBRANCH   1  10
BRANCH   5  34
ATOM     34  C   UNL     1     -11.603  -4.981   9.903  1.00  0.00     0.242 C 
ATOM     35  O   UNL     1     -11.969  -6.135   9.679  1.00  0.00    -0.273 OA
ATOM     36  N   UNL     1     -11.672  -3.986   8.955  1.00  0.00    -0.354 N 
ATOM     37  H   UNL     1     -11.243  -3.082   9.159  1.00  0.00     0.163 HD
BRANCH  36  38
ATOM     38  C   UNL     1     -12.418  -4.141   7.724  1.00  0.00     0.116 C 
BRANCH  38  39
ATOM     39  C   UNL     1     -11.779  -3.301   6.620  1.00  0.00     0.023 C 
BRANCH  39  40
ATOM     40  C   UNL     1     -12.801  -2.465   5.858  1.00  0.00     0.026 C 
BRANCH  40  41
ATOM     41  C   UNL     1     -13.370  -1.360   6.749  1.00  0.00     0.146 C 
BRANCH  41  42
ATOM     42  N   UNL     1     -14.826  -1.398   6.712  1.00  0.00    -0.254 NA
ATOM     43  C   UNL     1     -15.477  -1.747   7.757  1.00  0.00     0.185 C 
ATOM     44  N   UNL     1     -15.030  -2.112   8.973  1.00  0.00    -0.370 N 
ATOM     45  N   UNL     1     -16.818  -1.780   7.701  1.00  0.00    -0.370 N 
ATOM     46  H   UNL     1     -15.634  -2.593   9.618  1.00  0.00     0.159 HD
ATOM     47  H   UNL     1     -14.039  -2.130   9.194  1.00  0.00     0.159 HD
ATOM     48  H   UNL     1     -17.237  -1.510   6.821  1.00  0.00     0.159 HD
ATOM     49  H   UNL     1     -17.396  -1.809   8.522  1.00  0.00     0.159 HD
ENDBRANCH  41  42
ENDBRANCH  40  41
ENDBRANCH  39  40
ENDBRANCH  38  39
ENDBRANCH  36  38
ENDBRANCH   5  34
BRANCH   8  50
ATOM     50  O   UNL     1     -15.547  -3.152  11.810  1.00  0.00    -0.245 OA
BRANCH  50  51
ATOM     51  S   UNL     1     -17.168  -3.206  11.929  1.00  0.00     0.397 S 
ATOM     52  O   UNL     1     -17.600  -2.050  12.681  1.00  0.00    -0.169 OA
ATOM     53  O   UNL     1     -17.585  -4.546  12.290  1.00  0.00    -0.169 OA
BRANCH  51  54
ATOM     54  O   UNL     1     -17.625  -2.937  10.411  1.00  0.00    -0.264 OA
ATOM     55  H   UNL     1     -17.998  -2.033  10.367  1.00  0.00     0.236 HD
ENDBRANCH  51  54
ENDBRANCH  50  51
ENDBRANCH   8  50
TORSDOF 19
ENDMDL
