MODEL 1
REMARK VINA RESULT:    -6.905      0.000      0.000
REMARK INTER + INTRA:         -25.902
REMARK INTER:                 -19.824
REMARK INTRA:                  -6.078
REMARK UNBOUND:                -6.078
REMARK SMILES CCCCCC(=O)N[C@H](CC(=O)O)C(=O)N[C@H]1C(=O)N[C@H](CCCN=C(N)N)C(=O)N[C@@H]2CC[C@H](O)N(C2=O)[C@@H](CC(C)C)C(=O)N(C)[C@@H](Cc2ccccc2)C(=O)N[C@H](C(C)C)C(=O)O[C@@H]1C
REMARK SMILES IDX 30 1 31 2 29 3 32 5 35 6 37 7 34 8 38 9 33 10 39 11 36 12
REMARK SMILES IDX 40 14 41 15 42 16 43 17 44 18 45 19 46 20 47 21 48 22 49 23
REMARK SMILES IDX 50 24 51 25 52 26 56 27 53 28 55 29 54 30 57 31 58 32 59 33
REMARK SMILES IDX 60 35 61 36 62 37 63 38 64 39 65 40 66 41 67 42 68 43 21 45
REMARK SMILES IDX 20 46 18 47 19 48 17 50 16 52 14 53 15 54 9 56 8 57 6 58
REMARK SMILES IDX 7 59 5 61 4 62 3 63 2 64 1 65 10 66 11 67 12 68 13 69 22 71
REMARK SMILES IDX 23 72 24 73 25 74 26 75 27 76 28 77
REMARK H PARENT 31 4 36 13 59 34 20 49 16 55 8 60 13 70 27 78 27 79 28 80
REMARK H PARENT 28 81
REMARK Flexibility Score:  259.900
ROOT
ATOM      1  O   UNL     1      -8.057  -6.134  -3.168  1.00  0.00    -0.273 OA
ATOM      2  N   UNL     1      -7.370  -4.442  -1.791  1.00  0.00    -0.343 N 
ATOM      3  C   UNL     1      -7.241  -5.252  -2.898  1.00  0.00     0.243 C 
ATOM      4  H   UNL     1      -6.687  -3.718  -1.608  1.00  0.00     0.164 HD
ENDROOT
BRANCH   2   5
ATOM      5  C   UNL     1      -8.430  -4.680  -0.817  1.00  0.00     0.171 C 
ATOM      6  C   UNL     1      -9.114  -3.401   1.693  1.00  0.00     0.214 C 
ATOM      7  N   UNL     1      -8.221  -4.536   1.695  1.00  0.00    -0.303 N 
ATOM      8  C   UNL     1     -10.125  -3.432   0.559  1.00  0.00     0.057 C 
ATOM      9  C   UNL     1      -7.814  -5.162   0.527  1.00  0.00     0.247 C 
ATOM     10  C   UNL     1      -9.404  -3.503  -0.769  1.00  0.00     0.040 C 
ATOM     11  O   UNL     1      -6.981  -6.078   0.530  1.00  0.00    -0.272 OA
BRANCH   6  12
ATOM     12  O   UNL     1      -8.327  -2.235   1.620  1.00  0.00    -0.373 OA
ATOM     13  H   UNL     1      -7.804  -2.293   0.792  1.00  0.00     0.213 HD
ENDBRANCH   6  12
BRANCH   7  14
ATOM     14  C   UNL     1      -7.632  -4.925   2.993  1.00  0.00     0.177 C 
BRANCH  14  15
ATOM     15  C   UNL     1      -6.627  -3.917   3.585  1.00  0.00     0.038 C 
BRANCH  15  16
ATOM     16  C   UNL     1      -5.117  -4.246   3.563  1.00  0.00    -0.015 C 
ATOM     17  C   UNL     1      -4.847  -5.738   3.346  1.00  0.00     0.007 C 
ATOM     18  C   UNL     1      -4.476  -3.829   4.892  1.00  0.00     0.007 C 
ENDBRANCH  15  16
ENDBRANCH  14  15
BRANCH  14  19
ATOM     19  C   UNL     1      -8.654  -5.779   3.821  1.00  0.00     0.245 C 
ATOM     20  O   UNL     1      -8.565  -7.013   3.715  1.00  0.00    -0.272 OA
BRANCH  19  21
ATOM     21  N   UNL     1      -9.695  -5.238   4.554  1.00  0.00    -0.332 N 
ATOM     22  C   UNL     1     -11.050  -5.038   4.073  1.00  0.00     0.147 C 
BRANCH  21  23
ATOM     23  C   UNL     1      -9.413  -4.811   5.953  1.00  0.00     0.178 C 
BRANCH  23  24
ATOM     24  C   UNL     1      -9.233  -3.291   6.140  1.00  0.00     0.070 C 
BRANCH  24  25
ATOM     25  C   UNL     1      -7.962  -2.825   6.811  1.00  0.00    -0.045 A 
ATOM     26  C   UNL     1      -7.301  -1.670   6.375  1.00  0.00     0.004 A 
ATOM     27  C   UNL     1      -7.422  -3.551   7.884  1.00  0.00     0.004 A 
ATOM     28  C   UNL     1      -6.118  -1.256   6.990  1.00  0.00     0.000 A 
ATOM     29  C   UNL     1      -6.240  -3.135   8.498  1.00  0.00     0.000 A 
ATOM     30  C   UNL     1      -5.587  -1.989   8.049  1.00  0.00     0.000 A 
ENDBRANCH  24  25
ENDBRANCH  23  24
BRANCH  23  31
ATOM     31  C   UNL     1     -10.339  -5.490   6.989  1.00  0.00     0.243 C 
ATOM     32  O   UNL     1     -10.527  -6.703   7.053  1.00  0.00    -0.273 OA
ATOM     33  N   UNL     1     -11.090  -4.594   7.731  1.00  0.00    -0.341 N 
ATOM     34  H   UNL     1     -10.892  -3.595   7.631  1.00  0.00     0.164 HD
BRANCH  33  35
ATOM     35  C   UNL     1     -12.118  -5.013   8.687  1.00  0.00     0.194 C 
BRANCH  35  36
ATOM     36  C   UNL     1     -13.493  -4.314   8.489  1.00  0.00     0.017 C 
ATOM     37  C   UNL     1     -14.464  -4.655   9.632  1.00  0.00     0.010 C 
ATOM     38  C   UNL     1     -14.181  -4.697   7.173  1.00  0.00     0.010 C 
ENDBRANCH  35  36
BRANCH  35  39
ATOM     39  C   UNL     1     -11.633  -4.931  10.162  1.00  0.00     0.329 C 
ATOM     40  O   UNL     1     -11.380  -3.882  10.743  1.00  0.00    -0.250 OA
BRANCH  39  41
ATOM     41  O   UNL     1     -11.601  -6.156  10.768  1.00  0.00    -0.458 OA
BRANCH  41  42
ATOM     42  C   UNL     1     -10.514  -6.384  11.697  1.00  0.00     0.205 CG0
ATOM     43  C   UNL     1      -9.985  -7.793  11.439  1.00  0.00     0.056 C 
ATOM     44  G   UNL     1     -11.049  -6.208  13.132  1.00  0.00     0.000 G0
ENDBRANCH  41  42
ENDBRANCH  39  41
ENDBRANCH  35  39
ENDBRANCH  33  35
ENDBRANCH  23  31
ENDBRANCH  21  23
ENDBRANCH  19  21
ENDBRANCH  14  19
ENDBRANCH   7  14
ENDBRANCH   2   5
BRANCH   3  45
ATOM     45  C   UNL     1      -6.020  -4.965  -3.783  1.00  0.00     0.171 C 
BRANCH  45  46
ATOM     46  N   UNL     1      -6.555  -4.652  -5.102  1.00  0.00    -0.342 N 
ATOM     47  C   UNL     1      -6.208  -3.514  -5.786  1.00  0.00     0.247 C 
ATOM     48  O   UNL     1      -5.367  -2.715  -5.371  1.00  0.00    -0.273 OA
ATOM     49  H   UNL     1      -7.212  -5.316  -5.508  1.00  0.00     0.164 HD
BRANCH  47  50
ATOM     50  C   UNL     1      -6.965  -3.290  -7.102  1.00  0.00     0.212 CG0
ATOM     51  G   UNL     1      -6.677  -1.849  -7.569  1.00  0.00     0.000 G0
BRANCH  50  52
ATOM     52  N   UNL     1      -6.459  -4.306  -8.021  1.00  0.00    -0.339 N 
ATOM     53  C   UNL     1      -7.203  -4.834  -9.048  1.00  0.00     0.243 C 
ATOM     54  O   UNL     1      -8.376  -4.528  -9.242  1.00  0.00    -0.273 OA
ATOM     55  H   UNL     1      -5.530  -4.682  -7.844  1.00  0.00     0.164 HD
BRANCH  53  56
ATOM     56  C   UNL     1      -6.487  -5.954  -9.830  1.00  0.00     0.182 C 
BRANCH  56  57
ATOM     57  N   UNL     1      -5.497  -6.634  -8.988  1.00  0.00    -0.344 N 
ATOM     58  C   UNL     1      -5.754  -7.836  -8.376  1.00  0.00     0.220 C 
ATOM     59  O   UNL     1      -6.848  -8.388  -8.429  1.00  0.00    -0.275 OA
ATOM     60  H   UNL     1      -4.550  -6.264  -9.001  1.00  0.00     0.164 HD
BRANCH  58  61
ATOM     61  C   UNL     1      -4.567  -8.383  -7.603  1.00  0.00     0.100 C 
BRANCH  61  62
ATOM     62  C   UNL     1      -3.305  -7.529  -7.726  1.00  0.00     0.010 C 
BRANCH  62  63
ATOM     63  C   UNL     1      -2.610  -7.241  -6.389  1.00  0.00     0.000 C 
BRANCH  63  64
ATOM     64  C   UNL     1      -1.997  -8.472  -5.723  1.00  0.00    -0.003 C 
ATOM     65  C   UNL     1      -0.932  -9.107  -6.605  1.00  0.00     0.004 C 
ENDBRANCH  63  64
ENDBRANCH  62  63
ENDBRANCH  61  62
ENDBRANCH  58  61
ENDBRANCH  56  57
BRANCH  56  66
ATOM     66  C   UNL     1      -5.876  -5.429 -11.128  1.00  0.00     0.157 C 
BRANCH  66  67
ATOM     67  C   UNL     1      -5.032  -4.212 -10.879  1.00  0.00     0.305 C 
ATOM     68  O   UNL     1      -4.022  -4.148 -10.194  1.00  0.00    -0.252 OA
BRANCH  67  69
ATOM     69  O   UNL     1      -5.477  -3.134 -11.552  1.00  0.00    -0.481 OA
ATOM     70  H   UNL     1      -6.444  -3.272 -11.634  1.00  0.00     0.296 HD
ENDBRANCH  67  69
ENDBRANCH  66  67
ENDBRANCH  56  66
ENDBRANCH  53  56
ENDBRANCH  50  52
ENDBRANCH  47  50
ENDBRANCH  45  46
BRANCH  45  71
ATOM     71  C   UNL     1      -5.092  -6.184  -3.825  1.00  0.00     0.037 C 
BRANCH  71  72
ATOM     72  C   UNL     1      -3.928  -6.055  -2.840  1.00  0.00     0.026 C 
BRANCH  72  73
ATOM     73  C   UNL     1      -3.493  -7.418  -2.304  1.00  0.00     0.146 C 
BRANCH  73  74
ATOM     74  N   UNL     1      -4.696  -8.213  -2.078  1.00  0.00    -0.254 NA
ATOM     75  C   UNL     1      -5.127  -8.320  -0.876  1.00  0.00     0.185 C 
ATOM     76  N   UNL     1      -6.232  -9.044  -0.636  1.00  0.00    -0.370 N 
ATOM     77  N   UNL     1      -4.621  -7.791   0.253  1.00  0.00    -0.370 N 
ATOM     78  H   UNL     1      -6.672  -9.484  -1.432  1.00  0.00     0.159 HD
ATOM     79  H   UNL     1      -6.543  -9.291   0.287  1.00  0.00     0.159 HD
ATOM     80  H   UNL     1      -3.792  -7.218   0.225  1.00  0.00     0.159 HD
ATOM     81  H   UNL     1      -5.113  -7.848   1.129  1.00  0.00     0.159 HD
ENDBRANCH  73  74
ENDBRANCH  72  73
ENDBRANCH  71  72
ENDBRANCH  45  71
ENDBRANCH   3  45
TORSDOF 20
ENDMDL
MODEL 2
REMARK VINA RESULT:    -6.845      2.625      5.090
REMARK INTER + INTRA:         -25.729
REMARK INTER:                 -19.835
REMARK INTRA:                  -5.894
REMARK UNBOUND:                -6.078
REMARK SMILES CCCCCC(=O)N[C@H](CC(=O)O)C(=O)N[C@H]1C(=O)N[C@H](CCCN=C(N)N)C(=O)N[C@@H]2CC[C@H](O)N(C2=O)[C@@H](CC(C)C)C(=O)N(C)[C@@H](Cc2ccccc2)C(=O)N[C@H](C(C)C)C(=O)O[C@@H]1C
REMARK SMILES IDX 30 1 31 2 29 3 32 5 35 6 37 7 34 8 38 9 33 10 39 11 36 12
REMARK SMILES IDX 40 14 41 15 42 16 43 17 44 18 45 19 46 20 47 21 48 22 49 23
REMARK SMILES IDX 50 24 51 25 52 26 56 27 53 28 55 29 54 30 57 31 58 32 59 33
REMARK SMILES IDX 60 35 61 36 62 37 63 38 64 39 65 40 66 41 67 42 68 43 21 45
REMARK SMILES IDX 20 46 18 47 19 48 17 50 16 52 14 53 15 54 9 56 8 57 6 58
REMARK SMILES IDX 7 59 5 61 4 62 3 63 2 64 1 65 10 66 11 67 12 68 13 69 22 71
REMARK SMILES IDX 23 72 24 73 25 74 26 75 27 76 28 77
REMARK H PARENT 31 4 36 13 59 34 20 49 16 55 8 60 13 70 27 78 27 79 28 80
REMARK H PARENT 28 81
REMARK Flexibility Score:  259.900
ROOT
ATOM      1  O   UNL     1      -5.307  -4.548  -3.271  1.00  0.00    -0.273 OA
ATOM      2  N   UNL     1      -7.395  -5.438  -2.991  1.00  0.00    -0.343 N 
ATOM      3  C   UNL     1      -6.451  -4.719  -3.693  1.00  0.00     0.243 C 
ATOM      4  H   UNL     1      -8.322  -5.570  -3.376  1.00  0.00     0.164 HD
ENDROOT
BRANCH   2   5
ATOM      5  C   UNL     1      -7.106  -5.931  -1.649  1.00  0.00     0.171 C 
ATOM      6  C   UNL     1      -8.741  -7.234   0.359  1.00  0.00     0.214 C 
ATOM      7  N   UNL     1      -8.627  -5.794   0.361  1.00  0.00    -0.303 N 
ATOM      8  C   UNL     1      -7.505  -7.935  -0.183  1.00  0.00     0.057 C 
ATOM      9  C   UNL     1      -7.904  -5.106  -0.600  1.00  0.00     0.247 C 
ATOM     10  C   UNL     1      -7.218  -7.454  -1.589  1.00  0.00     0.040 C 
ATOM     11  O   UNL     1      -7.883  -3.869  -0.643  1.00  0.00    -0.272 OA
BRANCH   6  12
ATOM     12  O   UNL     1      -9.875  -7.576  -0.403  1.00  0.00    -0.373 OA
ATOM     13  H   UNL     1      -9.606  -7.548  -1.346  1.00  0.00     0.213 HD
ENDBRANCH   6  12
BRANCH   7  14
ATOM     14  C   UNL     1      -9.440  -5.058   1.352  1.00  0.00     0.177 C 
BRANCH  14  15
ATOM     15  C   UNL     1     -10.949  -4.995   1.045  1.00  0.00     0.038 C 
BRANCH  15  16
ATOM     16  C   UNL     1     -11.584  -3.651   0.625  1.00  0.00    -0.015 C 
ATOM     17  C   UNL     1     -10.535  -2.578   0.320  1.00  0.00     0.007 C 
ATOM     18  C   UNL     1     -12.489  -3.131   1.750  1.00  0.00     0.007 C 
ENDBRANCH  15  16
ENDBRANCH  14  15
BRANCH  14  19
ATOM     19  C   UNL     1      -8.810  -5.195   2.781  1.00  0.00     0.245 C 
ATOM     20  O   UNL     1      -7.726  -4.618   2.971  1.00  0.00    -0.272 OA
BRANCH  19  21
ATOM     21  N   UNL     1      -9.331  -5.998   3.780  1.00  0.00    -0.332 N 
ATOM     22  C   UNL     1      -9.098  -7.424   3.921  1.00  0.00     0.147 C 
BRANCH  21  23
ATOM     23  C   UNL     1     -10.215  -5.361   4.795  1.00  0.00     0.178 C 
BRANCH  23  24
ATOM     24  C   UNL     1     -11.712  -5.707   4.655  1.00  0.00     0.070 C 
BRANCH  24  25
ATOM     25  C   UNL     1     -12.698  -4.782   5.330  1.00  0.00    -0.045 A 
ATOM     26  C   UNL     1     -13.758  -5.294   6.089  1.00  0.00     0.004 A 
ATOM     27  C   UNL     1     -12.566  -3.391   5.202  1.00  0.00     0.004 A 
ATOM     28  C   UNL     1     -14.675  -4.433   6.696  1.00  0.00     0.000 A 
ATOM     29  C   UNL     1     -13.482  -2.532   5.810  1.00  0.00     0.000 A 
ATOM     30  C   UNL     1     -14.538  -3.054   6.554  1.00  0.00     0.000 A 
ENDBRANCH  24  25
ENDBRANCH  23  24
BRANCH  23  31
ATOM     31  C   UNL     1      -9.654  -5.464   6.233  1.00  0.00     0.243 C 
ATOM     32  O   UNL     1      -8.592  -4.964   6.594  1.00  0.00    -0.273 OA
ATOM     33  N   UNL     1     -10.367  -6.332   7.043  1.00  0.00    -0.341 N 
ATOM     34  H   UNL     1     -11.242  -6.722   6.685  1.00  0.00     0.164 HD
BRANCH  33  35
ATOM     35  C   UNL     1      -9.950  -6.676   8.406  1.00  0.00     0.194 C 
BRANCH  35  36
ATOM     36  C   UNL     1     -10.245  -8.148   8.807  1.00  0.00     0.017 C 
ATOM     37  C   UNL     1      -9.499  -8.537  10.096  1.00  0.00     0.010 C 
ATOM     38  C   UNL     1      -9.850  -9.160   7.725  1.00  0.00     0.010 C 
ENDBRANCH  35  36
BRANCH  35  39
ATOM     39  C   UNL     1     -10.480  -5.668   9.465  1.00  0.00     0.329 C 
ATOM     40  O   UNL     1      -9.759  -4.975  10.173  1.00  0.00    -0.250 OA
BRANCH  39  41
ATOM     41  O   UNL     1     -11.844  -5.577   9.459  1.00  0.00    -0.458 OA
BRANCH  41  42
ATOM     42  C   UNL     1     -12.479  -5.383  10.746  1.00  0.00     0.205 CG0
ATOM     43  C   UNL     1     -13.936  -5.008  10.481  1.00  0.00     0.056 C 
ATOM     44  G   UNL     1     -11.716  -4.283  11.510  1.00  0.00     0.000 G0
ENDBRANCH  41  42
ENDBRANCH  39  41
ENDBRANCH  35  39
ENDBRANCH  33  35
ENDBRANCH  23  31
ENDBRANCH  21  23
ENDBRANCH  19  21
ENDBRANCH  14  19
ENDBRANCH   7  14
ENDBRANCH   2   5
BRANCH   3  45
ATOM     45  C   UNL     1      -6.919  -4.164  -5.045  1.00  0.00     0.171 C 
BRANCH  45  46
ATOM     46  N   UNL     1      -6.309  -5.019  -6.054  1.00  0.00    -0.342 N 
ATOM     47  C   UNL     1      -6.787  -5.099  -7.338  1.00  0.00     0.247 C 
ATOM     48  O   UNL     1      -7.717  -4.404  -7.749  1.00  0.00    -0.273 OA
ATOM     49  H   UNL     1      -5.501  -5.570  -5.770  1.00  0.00     0.164 HD
BRANCH  47  50
ATOM     50  C   UNL     1      -6.095  -6.144  -8.225  1.00  0.00     0.212 CG0
ATOM     51  G   UNL     1      -5.810  -5.485  -9.588  1.00  0.00     0.000 G0
BRANCH  50  52
ATOM     52  N   UNL     1      -4.884  -6.526  -7.504  1.00  0.00    -0.339 N 
ATOM     53  C   UNL     1      -3.639  -6.026  -7.800  1.00  0.00     0.243 C 
ATOM     54  O   UNL     1      -3.441  -5.254  -8.733  1.00  0.00    -0.273 OA
ATOM     55  H   UNL     1      -4.966  -7.248  -6.790  1.00  0.00     0.164 HD
BRANCH  53  56
ATOM     56  C   UNL     1      -2.500  -6.641  -6.961  1.00  0.00     0.182 C 
BRANCH  56  57
ATOM     57  N   UNL     1      -2.830  -6.625  -5.533  1.00  0.00    -0.344 N 
ATOM     58  C   UNL     1      -2.815  -7.760  -4.761  1.00  0.00     0.220 C 
ATOM     59  O   UNL     1      -2.599  -8.875  -5.224  1.00  0.00    -0.275 OA
ATOM     60  H   UNL     1      -2.915  -5.713  -5.090  1.00  0.00     0.164 HD
BRANCH  58  61
ATOM     61  C   UNL     1      -3.131  -7.499  -3.300  1.00  0.00     0.100 C 
BRANCH  61  62
ATOM     62  C   UNL     1      -3.119  -8.757  -2.432  1.00  0.00     0.010 C 
BRANCH  62  63
ATOM     63  C   UNL     1      -3.115  -8.479  -0.923  1.00  0.00     0.000 C 
BRANCH  63  64
ATOM     64  C   UNL     1      -4.120  -9.312  -0.129  1.00  0.00    -0.003 C 
ATOM     65  C   UNL     1      -4.150  -8.898   1.335  1.00  0.00     0.004 C 
ENDBRANCH  63  64
ENDBRANCH  62  63
ENDBRANCH  61  62
ENDBRANCH  58  61
ENDBRANCH  56  57
BRANCH  56  66
ATOM     66  C   UNL     1      -1.162  -5.964  -7.253  1.00  0.00     0.157 C 
BRANCH  66  67
ATOM     67  C   UNL     1      -0.134  -6.962  -7.703  1.00  0.00     0.305 C 
ATOM     68  O   UNL     1       0.609  -6.864  -8.667  1.00  0.00    -0.252 OA
BRANCH  67  69
ATOM     69  O   UNL     1      -0.056  -8.024  -6.878  1.00  0.00    -0.481 OA
ATOM     70  H   UNL     1      -0.977  -8.176  -6.578  1.00  0.00     0.296 HD
ENDBRANCH  67  69
ENDBRANCH  66  67
ENDBRANCH  56  66
ENDBRANCH  53  56
ENDBRANCH  50  52
ENDBRANCH  47  50
ENDBRANCH  45  46
BRANCH  45  71
ATOM     71  C   UNL     1      -6.483  -2.703  -5.202  1.00  0.00     0.037 C 
BRANCH  71  72
ATOM     72  C   UNL     1      -7.614  -1.726  -4.872  1.00  0.00     0.026 C 
BRANCH  72  73
ATOM     73  C   UNL     1      -7.857  -1.637  -3.367  1.00  0.00     0.146 C 
BRANCH  73  74
ATOM     74  N   UNL     1      -7.044  -0.541  -2.847  1.00  0.00    -0.254 NA
ATOM     75  C   UNL     1      -6.121  -0.827  -2.005  1.00  0.00     0.185 C 
ATOM     76  N   UNL     1      -5.356   0.159  -1.510  1.00  0.00    -0.370 N 
ATOM     77  N   UNL     1      -5.773  -2.027  -1.508  1.00  0.00    -0.370 N 
ATOM     78  H   UNL     1      -5.556   1.097  -1.827  1.00  0.00     0.159 HD
ATOM     79  H   UNL     1      -4.716   0.033  -0.745  1.00  0.00     0.159 HD
ATOM     80  H   UNL     1      -6.261  -2.863  -1.794  1.00  0.00     0.159 HD
ATOM     81  H   UNL     1      -4.952  -2.145  -0.937  1.00  0.00     0.159 HD
ENDBRANCH  73  74
ENDBRANCH  72  73
ENDBRANCH  71  72
ENDBRANCH  45  71
ENDBRANCH   3  45
TORSDOF 20
ENDMDL
MODEL 3
REMARK VINA RESULT:    -6.839      2.856      5.417
REMARK INTER + INTRA:         -25.711
REMARK INTER:                 -19.962
REMARK INTRA:                  -5.749
REMARK UNBOUND:                -6.078
REMARK SMILES CCCCCC(=O)N[C@H](CC(=O)O)C(=O)N[C@H]1C(=O)N[C@H](CCCN=C(N)N)C(=O)N[C@@H]2CC[C@H](O)N(C2=O)[C@@H](CC(C)C)C(=O)N(C)[C@@H](Cc2ccccc2)C(=O)N[C@H](C(C)C)C(=O)O[C@@H]1C
REMARK SMILES IDX 30 1 31 2 29 3 32 5 35 6 37 7 34 8 38 9 33 10 39 11 36 12
REMARK SMILES IDX 40 14 41 15 42 16 43 17 44 18 45 19 46 20 47 21 48 22 49 23
REMARK SMILES IDX 50 24 51 25 52 26 56 27 53 28 55 29 54 30 57 31 58 32 59 33
REMARK SMILES IDX 60 35 61 36 62 37 63 38 64 39 65 40 66 41 67 42 68 43 21 45
REMARK SMILES IDX 20 46 18 47 19 48 17 50 16 52 14 53 15 54 9 56 8 57 6 58
REMARK SMILES IDX 7 59 5 61 4 62 3 63 2 64 1 65 10 66 11 67 12 68 13 69 22 71
REMARK SMILES IDX 23 72 24 73 25 74 26 75 27 76 28 77
REMARK H PARENT 31 4 36 13 59 34 20 49 16 55 8 60 13 70 27 78 27 79 28 80
REMARK H PARENT 28 81
REMARK Flexibility Score:  259.900
ROOT
ATOM      1  O   UNL     1      -5.271  -4.767  -3.413  1.00  0.00    -0.273 OA
ATOM      2  N   UNL     1      -7.487  -5.213  -3.065  1.00  0.00    -0.343 N 
ATOM      3  C   UNL     1      -6.436  -4.722  -3.809  1.00  0.00     0.243 C 
ATOM      4  H   UNL     1      -8.431  -5.172  -3.430  1.00  0.00     0.164 HD
ENDROOT
BRANCH   2   5
ATOM      5  C   UNL     1      -7.270  -5.705  -1.709  1.00  0.00     0.171 C 
ATOM      6  C   UNL     1      -9.054  -6.831   0.280  1.00  0.00     0.214 C 
ATOM      7  N   UNL     1      -8.820  -5.406   0.261  1.00  0.00    -0.303 N 
ATOM      8  C   UNL     1      -7.869  -7.642  -0.221  1.00  0.00     0.057 C 
ATOM      9  C   UNL     1      -8.020  -4.797  -0.693  1.00  0.00     0.247 C 
ATOM     10  C   UNL     1      -7.512  -7.211  -1.627  1.00  0.00     0.040 C 
ATOM     11  O   UNL     1      -7.894  -3.567  -0.755  1.00  0.00    -0.272 OA
BRANCH   6  12
ATOM     12  O   UNL     1     -10.195  -7.090  -0.504  1.00  0.00    -0.373 OA
ATOM     13  H   UNL     1     -10.376  -8.052  -0.440  1.00  0.00     0.213 HD
ENDBRANCH   6  12
BRANCH   7  14
ATOM     14  C   UNL     1      -9.591  -4.587   1.221  1.00  0.00     0.177 C 
BRANCH  14  15
ATOM     15  C   UNL     1     -11.082  -4.403   0.877  1.00  0.00     0.038 C 
BRANCH  15  16
ATOM     16  C   UNL     1     -11.607  -3.001   0.493  1.00  0.00    -0.015 C 
ATOM     17  C   UNL     1     -10.571  -1.901   0.742  1.00  0.00     0.007 C 
ATOM     18  C   UNL     1     -12.861  -2.675   1.314  1.00  0.00     0.007 C 
ENDBRANCH  15  16
ENDBRANCH  14  15
BRANCH  14  19
ATOM     19  C   UNL     1      -9.007  -4.750   2.666  1.00  0.00     0.245 C 
ATOM     20  O   UNL     1      -7.964  -5.416   2.777  1.00  0.00    -0.272 OA
BRANCH  19  21
ATOM     21  N   UNL     1      -9.642  -4.298   3.810  1.00  0.00    -0.332 N 
ATOM     22  C   UNL     1      -9.697  -2.916   4.252  1.00  0.00     0.147 C 
BRANCH  21  23
ATOM     23  C   UNL     1     -10.319  -5.304   4.674  1.00  0.00     0.178 C 
BRANCH  23  24
ATOM     24  C   UNL     1      -9.777  -5.385   6.116  1.00  0.00     0.070 C 
BRANCH  24  25
ATOM     25  C   UNL     1      -9.885  -6.719   6.818  1.00  0.00    -0.045 A 
ATOM     26  C   UNL     1      -9.751  -7.917   6.105  1.00  0.00     0.004 A 
ATOM     27  C   UNL     1     -10.127  -6.775   8.198  1.00  0.00     0.004 A 
ATOM     28  C   UNL     1      -9.869  -9.146   6.758  1.00  0.00     0.000 A 
ATOM     29  C   UNL     1     -10.244  -8.004   8.850  1.00  0.00     0.000 A 
ATOM     30  C   UNL     1     -10.117  -9.189   8.128  1.00  0.00     0.000 A 
ENDBRANCH  24  25
ENDBRANCH  23  24
BRANCH  23  31
ATOM     31  C   UNL     1     -11.861  -5.258   4.559  1.00  0.00     0.243 C 
ATOM     32  O   UNL     1     -12.495  -5.735   3.621  1.00  0.00    -0.273 OA
ATOM     33  N   UNL     1     -12.464  -4.464   5.520  1.00  0.00    -0.341 N 
ATOM     34  H   UNL     1     -11.883  -4.089   6.274  1.00  0.00     0.164 HD
BRANCH  33  35
ATOM     35  C   UNL     1     -13.902  -4.179   5.533  1.00  0.00     0.194 C 
BRANCH  35  36
ATOM     36  C   UNL     1     -14.249  -2.668   5.648  1.00  0.00     0.017 C 
ATOM     37  C   UNL     1     -15.665  -2.377   5.121  1.00  0.00     0.010 C 
ATOM     38  C   UNL     1     -13.278  -1.765   4.877  1.00  0.00     0.010 C 
ENDBRANCH  35  36
BRANCH  35  39
ATOM     39  C   UNL     1     -14.670  -5.032   6.582  1.00  0.00     0.329 C 
ATOM     40  O   UNL     1     -15.657  -5.710   6.323  1.00  0.00    -0.250 OA
BRANCH  39  41
ATOM     41  O   UNL     1     -14.070  -5.010   7.810  1.00  0.00    -0.458 OA
BRANCH  41  42
ATOM     42  C   UNL     1     -14.809  -4.362   8.873  1.00  0.00     0.205 CG0
ATOM     43  C   UNL     1     -14.374  -5.007  10.187  1.00  0.00     0.056 C 
ATOM     44  G   UNL     1     -16.316  -4.536   8.601  1.00  0.00     0.000 G0
ENDBRANCH  41  42
ENDBRANCH  39  41
ENDBRANCH  35  39
ENDBRANCH  33  35
ENDBRANCH  23  31
ENDBRANCH  21  23
ENDBRANCH  19  21
ENDBRANCH  14  19
ENDBRANCH   7  14
ENDBRANCH   2   5
BRANCH   3  45
ATOM     45  C   UNL     1      -6.816  -4.134  -5.175  1.00  0.00     0.171 C 
BRANCH  45  46
ATOM     46  N   UNL     1      -5.929  -4.774  -6.139  1.00  0.00    -0.342 N 
ATOM     47  C   UNL     1      -6.393  -5.357  -7.291  1.00  0.00     0.247 C 
ATOM     48  O   UNL     1      -7.576  -5.321  -7.630  1.00  0.00    -0.273 OA
ATOM     49  H   UNL     1      -4.934  -4.777  -5.925  1.00  0.00     0.164 HD
BRANCH  47  50
ATOM     50  C   UNL     1      -5.330  -6.090  -8.122  1.00  0.00     0.212 CG0
ATOM     51  G   UNL     1      -4.961  -5.183  -9.313  1.00  0.00     0.000 G0
BRANCH  50  52
ATOM     52  N   UNL     1      -4.214  -6.324  -7.208  1.00  0.00    -0.339 N 
ATOM     53  C   UNL     1      -3.892  -7.563  -6.712  1.00  0.00     0.243 C 
ATOM     54  O   UNL     1      -4.553  -8.568  -6.959  1.00  0.00    -0.273 OA
ATOM     55  H   UNL     1      -3.695  -5.513  -6.878  1.00  0.00     0.164 HD
BRANCH  53  56
ATOM     56  C   UNL     1      -2.730  -7.550  -5.698  1.00  0.00     0.182 C 
BRANCH  56  57
ATOM     57  N   UNL     1      -3.211  -7.235  -4.349  1.00  0.00    -0.344 N 
ATOM     58  C   UNL     1      -3.184  -8.151  -3.326  1.00  0.00     0.220 C 
ATOM     59  O   UNL     1      -2.825  -9.313  -3.484  1.00  0.00    -0.275 OA
ATOM     60  H   UNL     1      -3.421  -6.261  -4.151  1.00  0.00     0.164 HD
BRANCH  58  61
ATOM     61  C   UNL     1      -3.676  -7.590  -2.004  1.00  0.00     0.100 C 
BRANCH  61  62
ATOM     62  C   UNL     1      -3.911  -8.655  -0.933  1.00  0.00     0.010 C 
BRANCH  62  63
ATOM     63  C   UNL     1      -4.473  -8.106   0.385  1.00  0.00     0.000 C 
BRANCH  63  64
ATOM     64  C   UNL     1      -4.520  -9.127   1.520  1.00  0.00    -0.003 C 
ATOM     65  C   UNL     1      -5.579  -8.764   2.551  1.00  0.00     0.004 C 
ENDBRANCH  63  64
ENDBRANCH  62  63
ENDBRANCH  61  62
ENDBRANCH  58  61
ENDBRANCH  56  57
BRANCH  56  66
ATOM     66  C   UNL     1      -1.608  -6.613  -6.143  1.00  0.00     0.157 C 
BRANCH  66  67
ATOM     67  C   UNL     1      -0.577  -7.344  -6.953  1.00  0.00     0.305 C 
ATOM     68  O   UNL     1      -0.497  -8.552  -7.119  1.00  0.00    -0.252 OA
BRANCH  67  69
ATOM     69  O   UNL     1       0.283  -6.507  -7.563  1.00  0.00    -0.481 OA
ATOM     70  H   UNL     1       0.655  -7.028  -8.306  1.00  0.00     0.296 HD
ENDBRANCH  67  69
ENDBRANCH  66  67
ENDBRANCH  56  66
ENDBRANCH  53  56
ENDBRANCH  50  52
ENDBRANCH  47  50
ENDBRANCH  45  46
BRANCH  45  71
ATOM     71  C   UNL     1      -6.640  -2.612  -5.169  1.00  0.00     0.037 C 
BRANCH  71  72
ATOM     72  C   UNL     1      -7.983  -1.878  -5.114  1.00  0.00     0.026 C 
BRANCH  72  73
ATOM     73  C   UNL     1      -7.938  -0.700  -4.143  1.00  0.00     0.146 C 
BRANCH  73  74
ATOM     74  N   UNL     1      -6.620  -0.688  -3.515  1.00  0.00    -0.254 NA
ATOM     75  C   UNL     1      -6.567  -0.661  -2.235  1.00  0.00     0.185 C 
ATOM     76  N   UNL     1      -5.369  -0.650  -1.628  1.00  0.00    -0.370 N 
ATOM     77  N   UNL     1      -7.576  -0.640  -1.347  1.00  0.00    -0.370 N 
ATOM     78  H   UNL     1      -4.554  -0.657  -2.225  1.00  0.00     0.159 HD
ATOM     79  H   UNL     1      -5.248  -0.484  -0.645  1.00  0.00     0.159 HD
ATOM     80  H   UNL     1      -8.535  -0.649  -1.660  1.00  0.00     0.159 HD
ATOM     81  H   UNL     1      -7.413  -0.737  -0.359  1.00  0.00     0.159 HD
ENDBRANCH  73  74
ENDBRANCH  72  73
ENDBRANCH  71  72
ENDBRANCH  45  71
ENDBRANCH   3  45
TORSDOF 20
ENDMDL
MODEL 4
REMARK VINA RESULT:    -6.697      2.648      5.001
REMARK INTER + INTRA:         -25.303
REMARK INTER:                 -18.186
REMARK INTRA:                  -7.117
REMARK UNBOUND:                -6.078
REMARK SMILES CCCCCC(=O)N[C@H](CC(=O)O)C(=O)N[C@H]1C(=O)N[C@H](CCCN=C(N)N)C(=O)N[C@@H]2CC[C@H](O)N(C2=O)[C@@H](CC(C)C)C(=O)N(C)[C@@H](Cc2ccccc2)C(=O)N[C@H](C(C)C)C(=O)O[C@@H]1C
REMARK SMILES IDX 30 1 31 2 29 3 32 5 35 6 37 7 34 8 38 9 33 10 39 11 36 12
REMARK SMILES IDX 40 14 41 15 42 16 43 17 44 18 45 19 46 20 47 21 48 22 49 23
REMARK SMILES IDX 50 24 51 25 52 26 56 27 53 28 55 29 54 30 57 31 58 32 59 33
REMARK SMILES IDX 60 35 61 36 62 37 63 38 64 39 65 40 66 41 67 42 68 43 21 45
REMARK SMILES IDX 20 46 18 47 19 48 17 50 16 52 14 53 15 54 9 56 8 57 6 58
REMARK SMILES IDX 7 59 5 61 4 62 3 63 2 64 1 65 10 66 11 67 12 68 13 69 22 71
REMARK SMILES IDX 23 72 24 73 25 74 26 75 27 76 28 77
REMARK H PARENT 31 4 36 13 59 34 20 49 16 55 8 60 13 70 27 78 27 79 28 80
REMARK H PARENT 28 81
REMARK Flexibility Score:  259.900
ROOT
ATOM      1  O   UNL     1      -5.731  -4.569  -3.580  1.00  0.00    -0.273 OA
ATOM      2  N   UNL     1      -7.620  -5.701  -2.963  1.00  0.00    -0.343 N 
ATOM      3  C   UNL     1      -6.889  -4.909  -3.823  1.00  0.00     0.243 C 
ATOM      4  H   UNL     1      -8.565  -5.974  -3.203  1.00  0.00     0.164 HD
ENDROOT
BRANCH   2   5
ATOM      5  C   UNL     1      -7.083  -6.073  -1.659  1.00  0.00     0.171 C 
ATOM      6  C   UNL     1      -8.277  -7.308   0.677  1.00  0.00     0.214 C 
ATOM      7  N   UNL     1      -8.263  -5.868   0.563  1.00  0.00    -0.303 N 
ATOM      8  C   UNL     1      -7.100  -7.977  -0.017  1.00  0.00     0.057 C 
ATOM      9  C   UNL     1      -7.755  -5.216  -0.548  1.00  0.00     0.247 C 
ATOM     10  C   UNL     1      -7.080  -7.590  -1.480  1.00  0.00     0.040 C 
ATOM     11  O   UNL     1      -7.825  -3.986  -0.676  1.00  0.00    -0.272 OA
BRANCH   6  12
ATOM     12  O   UNL     1      -9.494  -7.771   0.138  1.00  0.00    -0.373 OA
ATOM     13  H   UNL     1      -9.299  -8.609  -0.332  1.00  0.00     0.213 HD
ENDBRANCH   6  12
BRANCH   7  14
ATOM     14  C   UNL     1      -8.953  -5.106   1.625  1.00  0.00     0.177 C 
BRANCH  14  15
ATOM     15  C   UNL     1     -10.451  -4.845   1.378  1.00  0.00     0.038 C 
BRANCH  15  16
ATOM     16  C   UNL     1     -11.029  -3.434   1.623  1.00  0.00    -0.015 C 
ATOM     17  C   UNL     1     -12.119  -3.065   0.612  1.00  0.00     0.007 C 
ATOM     18  C   UNL     1      -9.909  -2.390   1.524  1.00  0.00     0.007 C 
ENDBRANCH  15  16
ENDBRANCH  14  15
BRANCH  14  19
ATOM     19  C   UNL     1      -8.302  -5.405   3.020  1.00  0.00     0.245 C 
ATOM     20  O   UNL     1      -7.107  -5.097   3.157  1.00  0.00    -0.272 OA
BRANCH  19  21
ATOM     21  N   UNL     1      -8.945  -6.083   4.041  1.00  0.00    -0.332 N 
ATOM     22  C   UNL     1      -9.117  -7.522   4.119  1.00  0.00     0.147 C 
BRANCH  21  23
ATOM     23  C   UNL     1      -9.522  -5.279   5.153  1.00  0.00     0.178 C 
BRANCH  23  24
ATOM     24  C   UNL     1     -11.056  -5.120   5.106  1.00  0.00     0.070 C 
BRANCH  24  25
ATOM     25  C   UNL     1     -11.598  -3.715   4.974  1.00  0.00    -0.045 A 
ATOM     26  C   UNL     1     -10.766  -2.604   5.165  1.00  0.00     0.004 A 
ATOM     27  C   UNL     1     -12.949  -3.505   4.660  1.00  0.00     0.004 A 
ATOM     28  C   UNL     1     -11.279  -1.310   5.058  1.00  0.00     0.000 A 
ATOM     29  C   UNL     1     -13.460  -2.210   4.552  1.00  0.00     0.000 A 
ATOM     30  C   UNL     1     -12.624  -1.114   4.754  1.00  0.00     0.000 A 
ENDBRANCH  24  25
ENDBRANCH  23  24
BRANCH  23  31
ATOM     31  C   UNL     1      -8.950  -5.666   6.538  1.00  0.00     0.243 C 
ATOM     32  O   UNL     1      -7.751  -5.690   6.803  1.00  0.00    -0.273 OA
ATOM     33  N   UNL     1      -9.903  -6.167   7.409  1.00  0.00    -0.341 N 
ATOM     34  H   UNL     1     -10.886  -6.126   7.130  1.00  0.00     0.164 HD
BRANCH  33  35
ATOM     35  C   UNL     1      -9.571  -6.706   8.731  1.00  0.00     0.194 C 
BRANCH  35  36
ATOM     36  C   UNL     1      -9.858  -8.226   8.888  1.00  0.00     0.017 C 
ATOM     37  C   UNL     1      -8.662  -8.958   9.522  1.00  0.00     0.010 C 
ATOM     38  C   UNL     1     -10.170  -8.922   7.558  1.00  0.00     0.010 C 
ENDBRANCH  35  36
BRANCH  35  39
ATOM     39  C   UNL     1     -10.193  -5.875   9.889  1.00  0.00     0.329 C 
ATOM     40  O   UNL     1     -11.362  -5.965  10.246  1.00  0.00    -0.250 OA
BRANCH  39  41
ATOM     41  O   UNL     1      -9.268  -5.093  10.524  1.00  0.00    -0.458 OA
BRANCH  41  42
ATOM     42  C   UNL     1      -8.426  -5.758  11.495  1.00  0.00     0.205 CG0
ATOM     43  C   UNL     1      -6.976  -5.519  11.079  1.00  0.00     0.056 C 
ATOM     44  G   UNL     1      -8.793  -7.255  11.522  1.00  0.00     0.000 G0
ENDBRANCH  41  42
ENDBRANCH  39  41
ENDBRANCH  35  39
ENDBRANCH  33  35
ENDBRANCH  23  31
ENDBRANCH  21  23
ENDBRANCH  19  21
ENDBRANCH  14  19
ENDBRANCH   7  14
ENDBRANCH   2   5
BRANCH   3  45
ATOM     45  C   UNL     1      -7.610  -4.500  -5.114  1.00  0.00     0.171 C 
BRANCH  45  46
ATOM     46  N   UNL     1      -6.560  -4.266  -6.095  1.00  0.00    -0.342 N 
ATOM     47  C   UNL     1      -6.716  -4.562  -7.426  1.00  0.00     0.247 C 
ATOM     48  O   UNL     1      -7.775  -4.977  -7.899  1.00  0.00    -0.273 OA
ATOM     49  H   UNL     1      -5.685  -3.871  -5.756  1.00  0.00     0.164 HD
BRANCH  47  50
ATOM     50  C   UNL     1      -5.461  -4.365  -8.288  1.00  0.00     0.212 CG0
ATOM     51  G   UNL     1      -5.086  -2.871  -8.233  1.00  0.00     0.000 G0
BRANCH  50  52
ATOM     52  N   UNL     1      -4.446  -5.237  -7.702  1.00  0.00    -0.339 N 
ATOM     53  C   UNL     1      -3.209  -4.794  -7.302  1.00  0.00     0.243 C 
ATOM     54  O   UNL     1      -2.840  -3.633  -7.455  1.00  0.00    -0.273 OA
ATOM     55  H   UNL     1      -4.650  -6.233  -7.651  1.00  0.00     0.164 HD
BRANCH  53  56
ATOM     56  C   UNL     1      -2.276  -5.912  -6.794  1.00  0.00     0.182 C 
BRANCH  56  57
ATOM     57  N   UNL     1      -2.317  -6.008  -5.331  1.00  0.00    -0.344 N 
ATOM     58  C   UNL     1      -3.288  -6.717  -4.668  1.00  0.00     0.220 C 
ATOM     59  O   UNL     1      -4.227  -7.255  -5.244  1.00  0.00    -0.275 OA
ATOM     60  H   UNL     1      -1.506  -5.664  -4.824  1.00  0.00     0.164 HD
BRANCH  58  61
ATOM     61  C   UNL     1      -3.101  -6.729  -3.162  1.00  0.00     0.100 C 
BRANCH  61  62
ATOM     62  C   UNL     1      -3.131  -8.129  -2.548  1.00  0.00     0.010 C 
BRANCH  62  63
ATOM     63  C   UNL     1      -3.610  -8.166  -1.091  1.00  0.00     0.000 C 
BRANCH  63  64
ATOM     64  C   UNL     1      -3.119  -9.377  -0.301  1.00  0.00    -0.003 C 
ATOM     65  C   UNL     1      -3.845  -9.502   1.031  1.00  0.00     0.004 C 
ENDBRANCH  63  64
ENDBRANCH  62  63
ENDBRANCH  61  62
ENDBRANCH  58  61
ENDBRANCH  56  57
BRANCH  56  66
ATOM     66  C   UNL     1      -0.852  -5.735  -7.320  1.00  0.00     0.157 C 
BRANCH  66  67
ATOM     67  C   UNL     1      -0.263  -7.049  -7.747  1.00  0.00     0.305 C 
ATOM     68  O   UNL     1       0.432  -7.256  -8.729  1.00  0.00    -0.252 OA
BRANCH  67  69
ATOM     69  O   UNL     1      -0.539  -8.039  -6.877  1.00  0.00    -0.481 OA
ATOM     70  H   UNL     1      -1.452  -8.320  -7.098  1.00  0.00     0.296 HD
ENDBRANCH  67  69
ENDBRANCH  66  67
ENDBRANCH  56  66
ENDBRANCH  53  56
ENDBRANCH  50  52
ENDBRANCH  47  50
ENDBRANCH  45  46
BRANCH  45  71
ATOM     71  C   UNL     1      -8.454  -3.243  -4.878  1.00  0.00     0.037 C 
BRANCH  71  72
ATOM     72  C   UNL     1      -7.721  -2.210  -4.018  1.00  0.00     0.026 C 
BRANCH  72  73
ATOM     73  C   UNL     1      -7.186  -1.056  -4.862  1.00  0.00     0.146 C 
BRANCH  73  74
ATOM     74  N   UNL     1      -5.744  -1.234  -4.999  1.00  0.00    -0.254 NA
ATOM     75  C   UNL     1      -5.231  -1.094  -6.166  1.00  0.00     0.185 C 
ATOM     76  N   UNL     1      -3.907  -1.250  -6.324  1.00  0.00    -0.370 N 
ATOM     77  N   UNL     1      -5.842  -0.798  -7.327  1.00  0.00    -0.370 N 
ATOM     78  H   UNL     1      -3.372  -1.482  -5.500  1.00  0.00     0.159 HD
ATOM     79  H   UNL     1      -3.459  -1.299  -7.222  1.00  0.00     0.159 HD
ATOM     80  H   UNL     1      -6.839  -0.649  -7.360  1.00  0.00     0.159 HD
ATOM     81  H   UNL     1      -5.318  -0.599  -8.163  1.00  0.00     0.159 HD
ENDBRANCH  73  74
ENDBRANCH  72  73
ENDBRANCH  71  72
ENDBRANCH  45  71
ENDBRANCH   3  45
TORSDOF 20
ENDMDL
MODEL 5
REMARK VINA RESULT:    -6.676      3.435     13.972
REMARK INTER + INTRA:         -25.244
REMARK INTER:                 -16.589
REMARK INTRA:                  -8.656
REMARK UNBOUND:                -6.078
REMARK SMILES CCCCCC(=O)N[C@H](CC(=O)O)C(=O)N[C@H]1C(=O)N[C@H](CCCN=C(N)N)C(=O)N[C@@H]2CC[C@H](O)N(C2=O)[C@@H](CC(C)C)C(=O)N(C)[C@@H](Cc2ccccc2)C(=O)N[C@H](C(C)C)C(=O)O[C@@H]1C
REMARK SMILES IDX 30 1 31 2 29 3 32 5 35 6 37 7 34 8 38 9 33 10 39 11 36 12
REMARK SMILES IDX 40 14 41 15 42 16 43 17 44 18 45 19 46 20 47 21 48 22 49 23
REMARK SMILES IDX 50 24 51 25 52 26 56 27 53 28 55 29 54 30 57 31 58 32 59 33
REMARK SMILES IDX 60 35 61 36 62 37 63 38 64 39 65 40 66 41 67 42 68 43 21 45
REMARK SMILES IDX 20 46 18 47 19 48 17 50 16 52 14 53 15 54 9 56 8 57 6 58
REMARK SMILES IDX 7 59 5 61 4 62 3 63 2 64 1 65 10 66 11 67 12 68 13 69 22 71
REMARK SMILES IDX 23 72 24 73 25 74 26 75 27 76 28 77
REMARK H PARENT 31 4 36 13 59 34 20 49 16 55 8 60 13 70 27 78 27 79 28 80
REMARK H PARENT 28 81
REMARK Flexibility Score:  259.900
ROOT
ATOM      1  O   UNL     1      -6.522  -7.117  -0.563  1.00  0.00    -0.273 OA
ATOM      2  N   UNL     1      -5.952  -5.202   0.550  1.00  0.00    -0.343 N 
ATOM      3  C   UNL     1      -6.135  -6.566   0.468  1.00  0.00     0.243 C 
ATOM      4  H   UNL     1      -5.619  -4.785   1.411  1.00  0.00     0.164 HD
ENDROOT
BRANCH   2   5
ATOM      5  C   UNL     1      -6.328  -4.334  -0.561  1.00  0.00     0.171 C 
ATOM      6  C   UNL     1      -7.415  -4.874  -3.193  1.00  0.00     0.214 C 
ATOM      7  N   UNL     1      -5.983  -4.806  -3.016  1.00  0.00    -0.303 N 
ATOM      8  C   UNL     1      -8.183  -3.991  -2.223  1.00  0.00     0.057 C 
ATOM      9  C   UNL     1      -5.397  -4.603  -1.778  1.00  0.00     0.247 C 
ATOM     10  C   UNL     1      -7.836  -4.372  -0.800  1.00  0.00     0.040 C 
ATOM     11  O   UNL     1      -4.169  -4.633  -1.620  1.00  0.00    -0.272 OA
BRANCH   6  12
ATOM     12  O   UNL     1      -7.804  -6.220  -3.049  1.00  0.00    -0.373 OA
ATOM     13  H   UNL     1      -8.623  -6.226  -2.510  1.00  0.00     0.213 HD
ENDBRANCH   6  12
BRANCH   7  14
ATOM     14  C   UNL     1      -5.146  -5.112  -4.196  1.00  0.00     0.177 C 
BRANCH  14  15
ATOM     15  C   UNL     1      -4.753  -6.593  -4.356  1.00  0.00     0.038 C 
BRANCH  15  16
ATOM     16  C   UNL     1      -3.293  -7.025  -4.090  1.00  0.00    -0.015 C 
ATOM     17  C   UNL     1      -3.119  -7.679  -2.716  1.00  0.00     0.007 C 
ATOM     18  C   UNL     1      -2.369  -5.803  -4.162  1.00  0.00     0.007 C 
ENDBRANCH  15  16
ENDBRANCH  14  15
BRANCH  14  19
ATOM     19  C   UNL     1      -5.486  -4.132  -5.372  1.00  0.00     0.245 C 
ATOM     20  O   UNL     1      -5.744  -2.956  -5.064  1.00  0.00    -0.272 OA
BRANCH  19  21
ATOM     21  N   UNL     1      -5.622  -4.528  -6.691  1.00  0.00    -0.332 N 
ATOM     22  C   UNL     1      -6.879  -4.792  -7.367  1.00  0.00     0.147 C 
BRANCH  21  23
ATOM     23  C   UNL     1      -4.380  -4.712  -7.493  1.00  0.00     0.178 C 
BRANCH  23  24
ATOM     24  C   UNL     1      -4.320  -6.028  -8.296  1.00  0.00     0.070 C 
BRANCH  24  25
ATOM     25  C   UNL     1      -3.368  -7.092  -7.802  1.00  0.00    -0.045 A 
ATOM     26  C   UNL     1      -3.825  -8.383  -7.507  1.00  0.00     0.004 A 
ATOM     27  C   UNL     1      -2.007  -6.798  -7.628  1.00  0.00     0.004 A 
ATOM     28  C   UNL     1      -2.941  -9.356  -7.036  1.00  0.00     0.000 A 
ATOM     29  C   UNL     1      -1.125  -7.772  -7.158  1.00  0.00     0.000 A 
ATOM     30  C   UNL     1      -1.594  -9.050  -6.859  1.00  0.00     0.000 A 
ENDBRANCH  24  25
ENDBRANCH  23  24
BRANCH  23  31
ATOM     31  C   UNL     1      -3.980  -3.446  -8.286  1.00  0.00     0.243 C 
ATOM     32  O   UNL     1      -3.659  -2.381  -7.765  1.00  0.00    -0.273 OA
ATOM     33  N   UNL     1      -4.194  -3.557  -9.650  1.00  0.00    -0.341 N 
ATOM     34  H   UNL     1      -4.467  -4.468 -10.025  1.00  0.00     0.164 HD
BRANCH  33  35
ATOM     35  C   UNL     1      -3.999  -2.444 -10.582  1.00  0.00     0.194 C 
BRANCH  35  36
ATOM     36  C   UNL     1      -5.267  -2.071 -11.401  1.00  0.00     0.017 C 
ATOM     37  C   UNL     1      -5.623  -0.583 -11.234  1.00  0.00     0.010 C 
ATOM     38  C   UNL     1      -6.504  -2.886 -11.003  1.00  0.00     0.010 C 
ENDBRANCH  35  36
BRANCH  35  39
ATOM     39  C   UNL     1      -2.756  -2.639 -11.495  1.00  0.00     0.329 C 
ATOM     40  O   UNL     1      -2.748  -3.335 -12.504  1.00  0.00    -0.250 OA
BRANCH  39  41
ATOM     41  O   UNL     1      -1.693  -1.878 -11.096  1.00  0.00    -0.458 OA
BRANCH  41  42
ATOM     42  C   UNL     1      -1.332  -0.776 -11.962  1.00  0.00     0.205 CG0
ATOM     43  C   UNL     1      -1.913   0.495 -11.346  1.00  0.00     0.056 C 
ATOM     44  G   UNL     1      -1.889  -1.056 -13.372  1.00  0.00     0.000 G0
ENDBRANCH  41  42
ENDBRANCH  39  41
ENDBRANCH  35  39
ENDBRANCH  33  35
ENDBRANCH  23  31
ENDBRANCH  21  23
ENDBRANCH  19  21
ENDBRANCH  14  19
ENDBRANCH   7  14
ENDBRANCH   2   5
BRANCH   3  45
ATOM     45  C   UNL     1      -5.803  -7.351   1.744  1.00  0.00     0.171 C 
BRANCH  45  46
ATOM     46  N   UNL     1      -7.015  -7.319   2.553  1.00  0.00    -0.342 N 
ATOM     47  C   UNL     1      -7.424  -8.388   3.310  1.00  0.00     0.247 C 
ATOM     48  O   UNL     1      -6.763  -9.421   3.419  1.00  0.00    -0.273 OA
ATOM     49  H   UNL     1      -7.563  -6.461   2.536  1.00  0.00     0.164 HD
BRANCH  47  50
ATOM     50  C   UNL     1      -8.787  -8.216   3.995  1.00  0.00     0.212 CG0
ATOM     51  G   UNL     1      -8.589  -8.482   5.501  1.00  0.00     0.000 G0
BRANCH  50  52
ATOM     52  N   UNL     1      -9.201  -6.847   3.700  1.00  0.00    -0.339 N 
ATOM     53  C   UNL     1      -9.567  -5.943   4.668  1.00  0.00     0.243 C 
ATOM     54  O   UNL     1      -9.625  -6.236   5.859  1.00  0.00    -0.273 OA
ATOM     55  H   UNL     1      -9.280  -6.577   2.722  1.00  0.00     0.164 HD
BRANCH  53  56
ATOM     56  C   UNL     1     -10.049  -4.588   4.111  1.00  0.00     0.182 C 
BRANCH  56  57
ATOM     57  N   UNL     1     -10.405  -4.699   2.693  1.00  0.00    -0.344 N 
ATOM     58  C   UNL     1     -11.528  -4.107   2.168  1.00  0.00     0.220 C 
ATOM     59  O   UNL     1     -12.347  -3.510   2.858  1.00  0.00    -0.275 OA
ATOM     60  H   UNL     1      -9.705  -5.095   2.072  1.00  0.00     0.164 HD
BRANCH  58  61
ATOM     61  C   UNL     1     -11.667  -4.303   0.670  1.00  0.00     0.100 C 
BRANCH  61  62
ATOM     62  C   UNL     1     -11.618  -3.001  -0.129  1.00  0.00     0.010 C 
BRANCH  62  63
ATOM     63  C   UNL     1     -10.654  -1.951   0.439  1.00  0.00     0.000 C 
BRANCH  63  64
ATOM     64  C   UNL     1      -9.966  -1.093  -0.621  1.00  0.00    -0.003 C 
ATOM     65  C   UNL     1     -10.680  -1.189  -1.962  1.00  0.00     0.004 C 
ENDBRANCH  63  64
ENDBRANCH  62  63
ENDBRANCH  61  62
ENDBRANCH  58  61
ENDBRANCH  56  57
BRANCH  56  66
ATOM     66  C   UNL     1      -9.025  -3.483   4.364  1.00  0.00     0.157 C 
BRANCH  66  67
ATOM     67  C   UNL     1      -7.931  -3.509   3.336  1.00  0.00     0.305 C 
ATOM     68  O   UNL     1      -7.059  -4.357   3.215  1.00  0.00    -0.252 OA
BRANCH  67  69
ATOM     69  O   UNL     1      -8.019  -2.484   2.468  1.00  0.00    -0.481 OA
ATOM     70  H   UNL     1      -7.097  -2.166   2.361  1.00  0.00     0.296 HD
ENDBRANCH  67  69
ENDBRANCH  66  67
ENDBRANCH  56  66
ENDBRANCH  53  56
ENDBRANCH  50  52
ENDBRANCH  47  50
ENDBRANCH  45  46
BRANCH  45  71
ATOM     71  C   UNL     1      -4.619  -6.708   2.474  1.00  0.00     0.037 C 
BRANCH  71  72
ATOM     72  C   UNL     1      -3.790  -7.738   3.245  1.00  0.00     0.026 C 
BRANCH  72  73
ATOM     73  C   UNL     1      -4.025  -7.633   4.751  1.00  0.00     0.146 C 
BRANCH  73  74
ATOM     74  N   UNL     1      -4.831  -6.441   4.995  1.00  0.00    -0.254 NA
ATOM     75  C   UNL     1      -5.760  -6.516   5.875  1.00  0.00     0.185 C 
ATOM     76  N   UNL     1      -6.518  -5.435   6.122  1.00  0.00    -0.370 N 
ATOM     77  N   UNL     1      -6.120  -7.564   6.636  1.00  0.00    -0.370 N 
ATOM     78  H   UNL     1      -6.318  -4.603   5.586  1.00  0.00     0.159 HD
ATOM     79  H   UNL     1      -7.349  -5.460   6.686  1.00  0.00     0.159 HD
ATOM     80  H   UNL     1      -5.634  -8.445   6.560  1.00  0.00     0.159 HD
ATOM     81  H   UNL     1      -6.793  -7.471   7.378  1.00  0.00     0.159 HD
ENDBRANCH  73  74
ENDBRANCH  72  73
ENDBRANCH  71  72
ENDBRANCH  45  71
ENDBRANCH   3  45
TORSDOF 20
ENDMDL
MODEL 6
REMARK VINA RESULT:    -6.654      2.810      5.527
REMARK INTER + INTRA:         -25.181
REMARK INTER:                 -19.063
REMARK INTRA:                  -6.117
REMARK UNBOUND:                -6.078
REMARK SMILES CCCCCC(=O)N[C@H](CC(=O)O)C(=O)N[C@H]1C(=O)N[C@H](CCCN=C(N)N)C(=O)N[C@@H]2CC[C@H](O)N(C2=O)[C@@H](CC(C)C)C(=O)N(C)[C@@H](Cc2ccccc2)C(=O)N[C@H](C(C)C)C(=O)O[C@@H]1C
REMARK SMILES IDX 30 1 31 2 29 3 32 5 35 6 37 7 34 8 38 9 33 10 39 11 36 12
REMARK SMILES IDX 40 14 41 15 42 16 43 17 44 18 45 19 46 20 47 21 48 22 49 23
REMARK SMILES IDX 50 24 51 25 52 26 56 27 53 28 55 29 54 30 57 31 58 32 59 33
REMARK SMILES IDX 60 35 61 36 62 37 63 38 64 39 65 40 66 41 67 42 68 43 21 45
REMARK SMILES IDX 20 46 18 47 19 48 17 50 16 52 14 53 15 54 9 56 8 57 6 58
REMARK SMILES IDX 7 59 5 61 4 62 3 63 2 64 1 65 10 66 11 67 12 68 13 69 22 71
REMARK SMILES IDX 23 72 24 73 25 74 26 75 27 76 28 77
REMARK H PARENT 31 4 36 13 59 34 20 49 16 55 8 60 13 70 27 78 27 79 28 80
REMARK H PARENT 28 81
REMARK Flexibility Score:  259.900
ROOT
ATOM      1  O   UNL     1      -5.343  -4.766  -3.755  1.00  0.00    -0.273 OA
ATOM      2  N   UNL     1      -7.523  -5.291  -3.305  1.00  0.00    -0.343 N 
ATOM      3  C   UNL     1      -6.524  -4.780  -4.105  1.00  0.00     0.243 C 
ATOM      4  H   UNL     1      -8.481  -5.299  -3.631  1.00  0.00     0.164 HD
ENDROOT
BRANCH   2   5
ATOM      5  C   UNL     1      -7.232  -5.733  -1.945  1.00  0.00     0.171 C 
ATOM      6  C   UNL     1      -8.920  -6.659   0.222  1.00  0.00     0.214 C 
ATOM      7  N   UNL     1      -8.609  -5.253   0.116  1.00  0.00    -0.303 N 
ATOM      8  C   UNL     1      -7.825  -7.561  -0.323  1.00  0.00     0.057 C 
ATOM      9  C   UNL     1      -7.851  -4.737  -0.923  1.00  0.00     0.247 C 
ATOM     10  C   UNL     1      -7.552  -7.217  -1.771  1.00  0.00     0.040 C 
ATOM     11  O   UNL     1      -7.660  -3.521  -1.055  1.00  0.00    -0.272 OA
BRANCH   6  12
ATOM     12  O   UNL     1     -10.131  -6.884  -0.463  1.00  0.00    -0.373 OA
ATOM     13  H   UNL     1     -10.269  -7.855  -0.491  1.00  0.00     0.213 HD
ENDBRANCH   6  12
BRANCH   7  14
ATOM     14  C   UNL     1      -9.257  -4.347   1.087  1.00  0.00     0.177 C 
BRANCH  14  15
ATOM     15  C   UNL     1     -10.734  -4.661   1.393  1.00  0.00     0.038 C 
BRANCH  15  16
ATOM     16  C   UNL     1     -11.820  -3.615   1.058  1.00  0.00    -0.015 C 
ATOM     17  C   UNL     1     -11.443  -2.746  -0.146  1.00  0.00     0.007 C 
ATOM     18  C   UNL     1     -12.043  -2.694   2.264  1.00  0.00     0.007 C 
ENDBRANCH  15  16
ENDBRANCH  14  15
BRANCH  14  19
ATOM     19  C   UNL     1      -8.207  -3.823   2.127  1.00  0.00     0.245 C 
ATOM     20  O   UNL     1      -8.001  -2.598   2.146  1.00  0.00    -0.272 OA
BRANCH  19  21
ATOM     21  N   UNL     1      -7.436  -4.649   2.926  1.00  0.00    -0.332 N 
ATOM     22  C   UNL     1      -6.084  -5.087   2.628  1.00  0.00     0.147 C 
BRANCH  21  23
ATOM     23  C   UNL     1      -8.035  -5.145   4.196  1.00  0.00     0.178 C 
BRANCH  23  24
ATOM     24  C   UNL     1      -8.530  -6.605   4.149  1.00  0.00     0.070 C 
BRANCH  24  25
ATOM     25  C   UNL     1      -9.162  -7.158   5.405  1.00  0.00    -0.045 A 
ATOM     26  C   UNL     1     -10.431  -6.733   5.818  1.00  0.00     0.004 A 
ATOM     27  C   UNL     1      -8.479  -8.106   6.182  1.00  0.00     0.004 A 
ATOM     28  C   UNL     1     -11.000  -7.237   6.989  1.00  0.00     0.000 A 
ATOM     29  C   UNL     1      -9.049  -8.609   7.352  1.00  0.00     0.000 A 
ATOM     30  C   UNL     1     -10.309  -8.172   7.756  1.00  0.00     0.000 A 
ENDBRANCH  24  25
ENDBRANCH  23  24
BRANCH  23  31
ATOM     31  C   UNL     1      -7.192  -4.783   5.443  1.00  0.00     0.243 C 
ATOM     32  O   UNL     1      -6.115  -5.305   5.719  1.00  0.00    -0.273 OA
ATOM     33  N   UNL     1      -7.847  -3.945   6.329  1.00  0.00    -0.341 N 
ATOM     34  H   UNL     1      -8.746  -3.545   6.045  1.00  0.00     0.164 HD
BRANCH  33  35
ATOM     35  C   UNL     1      -7.290  -3.565   7.630  1.00  0.00     0.194 C 
BRANCH  35  36
ATOM     36  C   UNL     1      -8.024  -4.200   8.845  1.00  0.00     0.017 C 
ATOM     37  C   UNL     1      -7.433  -5.575   9.199  1.00  0.00     0.010 C 
ATOM     38  C   UNL     1      -9.527  -4.394   8.609  1.00  0.00     0.010 C 
ENDBRANCH  35  36
BRANCH  35  39
ATOM     39  C   UNL     1      -7.132  -2.027   7.787  1.00  0.00     0.329 C 
ATOM     40  O   UNL     1      -6.942  -1.258   6.852  1.00  0.00    -0.250 OA
BRANCH  39  41
ATOM     41  O   UNL     1      -7.317  -1.614   9.077  1.00  0.00    -0.458 OA
BRANCH  41  42
ATOM     42  C   UNL     1      -6.248  -0.830   9.658  1.00  0.00     0.205 CG0
ATOM     43  C   UNL     1      -5.192  -1.808  10.169  1.00  0.00     0.056 C 
ATOM     44  G   UNL     1      -6.835   0.044  10.785  1.00  0.00     0.000 G0
ENDBRANCH  41  42
ENDBRANCH  39  41
ENDBRANCH  35  39
ENDBRANCH  33  35
ENDBRANCH  23  31
ENDBRANCH  21  23
ENDBRANCH  19  21
ENDBRANCH  14  19
ENDBRANCH   7  14
ENDBRANCH   2   5
BRANCH   3  45
ATOM     45  C   UNL     1      -6.982  -4.249  -5.470  1.00  0.00     0.171 C 
BRANCH  45  46
ATOM     46  N   UNL     1      -6.318  -5.086  -6.461  1.00  0.00    -0.342 N 
ATOM     47  C   UNL     1      -6.895  -5.400  -7.665  1.00  0.00     0.247 C 
ATOM     48  O   UNL     1      -7.979  -4.941  -8.027  1.00  0.00    -0.273 OA
ATOM     49  H   UNL     1      -5.393  -5.442  -6.225  1.00  0.00     0.164 HD
BRANCH  47  50
ATOM     50  C   UNL     1      -6.103  -6.393  -8.527  1.00  0.00     0.212 CG0
ATOM     51  G   UNL     1      -5.566  -5.625  -9.752  1.00  0.00     0.000 G0
BRANCH  50  52
ATOM     52  N   UNL     1      -5.046  -6.905  -7.659  1.00  0.00    -0.339 N 
ATOM     53  C   UNL     1      -3.833  -6.281  -7.495  1.00  0.00     0.243 C 
ATOM     54  O   UNL     1      -3.523  -5.265  -8.112  1.00  0.00    -0.273 OA
ATOM     55  H   UNL     1      -5.200  -7.803  -7.206  1.00  0.00     0.164 HD
BRANCH  53  56
ATOM     56  C   UNL     1      -2.846  -7.053  -6.597  1.00  0.00     0.182 C 
BRANCH  56  57
ATOM     57  N   UNL     1      -3.113  -6.797  -5.179  1.00  0.00    -0.344 N 
ATOM     58  C   UNL     1      -3.001  -7.774  -4.220  1.00  0.00     0.220 C 
ATOM     59  O   UNL     1      -2.742  -8.942  -4.491  1.00  0.00    -0.275 OA
ATOM     60  H   UNL     1      -3.230  -5.826  -4.900  1.00  0.00     0.164 HD
BRANCH  58  61
ATOM     61  C   UNL     1      -3.267  -7.271  -2.814  1.00  0.00     0.100 C 
BRANCH  61  62
ATOM     62  C   UNL     1      -3.176  -8.358  -1.742  1.00  0.00     0.010 C 
BRANCH  62  63
ATOM     63  C   UNL     1      -4.280  -8.286  -0.680  1.00  0.00     0.000 C 
BRANCH  63  64
ATOM     64  C   UNL     1      -4.346  -9.505   0.238  1.00  0.00    -0.003 C 
ATOM     65  C   UNL     1      -3.611  -9.255   1.547  1.00  0.00     0.004 C 
ENDBRANCH  63  64
ENDBRANCH  62  63
ENDBRANCH  61  62
ENDBRANCH  58  61
ENDBRANCH  56  57
BRANCH  56  66
ATOM     66  C   UNL     1      -1.395  -6.755  -6.974  1.00  0.00     0.157 C 
BRANCH  66  67
ATOM     67  C   UNL     1      -0.708  -7.980  -7.503  1.00  0.00     0.305 C 
ATOM     68  O   UNL     1      -0.405  -8.207  -8.665  1.00  0.00    -0.252 OA
BRANCH  67  69
ATOM     69  O   UNL     1      -0.384  -8.847  -6.525  1.00  0.00    -0.481 OA
ATOM     70  H   UNL     1      -0.615  -8.384  -5.693  1.00  0.00     0.296 HD
ENDBRANCH  67  69
ENDBRANCH  66  67
ENDBRANCH  56  66
ENDBRANCH  53  56
ENDBRANCH  50  52
ENDBRANCH  47  50
ENDBRANCH  45  46
BRANCH  45  71
ATOM     71  C   UNL     1      -6.597  -2.774  -5.626  1.00  0.00     0.037 C 
BRANCH  71  72
ATOM     72  C   UNL     1      -7.645  -1.838  -5.019  1.00  0.00     0.026 C 
BRANCH  72  73
ATOM     73  C   UNL     1      -6.996  -0.623  -4.360  1.00  0.00     0.146 C 
BRANCH  73  74
ATOM     74  N   UNL     1      -7.666  -0.396  -3.083  1.00  0.00    -0.254 NA
ATOM     75  C   UNL     1      -7.003  -0.623  -2.010  1.00  0.00     0.185 C 
ATOM     76  N   UNL     1      -7.592  -0.423  -0.820  1.00  0.00    -0.370 N 
ATOM     77  N   UNL     1      -5.737  -1.055  -1.874  1.00  0.00    -0.370 N 
ATOM     78  H   UNL     1      -8.550  -0.104  -0.831  1.00  0.00     0.159 HD
ATOM     79  H   UNL     1      -7.189  -0.715   0.054  1.00  0.00     0.159 HD
ATOM     80  H   UNL     1      -5.169  -1.244  -2.686  1.00  0.00     0.159 HD
ATOM     81  H   UNL     1      -5.283  -1.087  -0.976  1.00  0.00     0.159 HD
ENDBRANCH  73  74
ENDBRANCH  72  73
ENDBRANCH  71  72
ENDBRANCH  45  71
ENDBRANCH   3  45
TORSDOF 20
ENDMDL
MODEL 7
REMARK VINA RESULT:    -6.589      2.504      4.435
REMARK INTER + INTRA:         -24.992
REMARK INTER:                 -17.544
REMARK INTRA:                  -7.448
REMARK UNBOUND:                -6.078
REMARK SMILES CCCCCC(=O)N[C@H](CC(=O)O)C(=O)N[C@H]1C(=O)N[C@H](CCCN=C(N)N)C(=O)N[C@@H]2CC[C@H](O)N(C2=O)[C@@H](CC(C)C)C(=O)N(C)[C@@H](Cc2ccccc2)C(=O)N[C@H](C(C)C)C(=O)O[C@@H]1C
REMARK SMILES IDX 30 1 31 2 29 3 32 5 35 6 37 7 34 8 38 9 33 10 39 11 36 12
REMARK SMILES IDX 40 14 41 15 42 16 43 17 44 18 45 19 46 20 47 21 48 22 49 23
REMARK SMILES IDX 50 24 51 25 52 26 56 27 53 28 55 29 54 30 57 31 58 32 59 33
REMARK SMILES IDX 60 35 61 36 62 37 63 38 64 39 65 40 66 41 67 42 68 43 21 45
REMARK SMILES IDX 20 46 18 47 19 48 17 50 16 52 14 53 15 54 9 56 8 57 6 58
REMARK SMILES IDX 7 59 5 61 4 62 3 63 2 64 1 65 10 66 11 67 12 68 13 69 22 71
REMARK SMILES IDX 23 72 24 73 25 74 26 75 27 76 28 77
REMARK H PARENT 31 4 36 13 59 34 20 49 16 55 8 60 13 70 27 78 27 79 28 80
REMARK H PARENT 28 81
REMARK Flexibility Score:  259.900
ROOT
ATOM      1  O   UNL     1      -5.370  -4.318  -3.671  1.00  0.00    -0.273 OA
ATOM      2  N   UNL     1      -7.371  -5.351  -3.271  1.00  0.00    -0.343 N 
ATOM      3  C   UNL     1      -6.540  -4.523  -3.995  1.00  0.00     0.243 C 
ATOM      4  H   UNL     1      -8.323  -5.508  -3.575  1.00  0.00     0.164 HD
ENDROOT
BRANCH   2   5
ATOM      5  C   UNL     1      -6.924  -5.932  -2.009  1.00  0.00     0.171 C 
ATOM      6  C   UNL     1      -8.333  -7.252   0.153  1.00  0.00     0.214 C 
ATOM      7  N   UNL     1      -8.132  -5.823   0.204  1.00  0.00    -0.303 N 
ATOM      8  C   UNL     1      -7.233  -7.988  -0.595  1.00  0.00     0.057 C 
ATOM      9  C   UNL     1      -7.512  -5.123  -0.818  1.00  0.00     0.247 C 
ATOM     10  C   UNL     1      -7.121  -7.448  -2.004  1.00  0.00     0.040 C 
ATOM     11  O   UNL     1      -7.421  -3.888  -0.807  1.00  0.00    -0.272 OA
BRANCH   6  12
ATOM     12  O   UNL     1      -9.583  -7.489  -0.451  1.00  0.00    -0.373 OA
ATOM     13  H   UNL     1      -9.579  -7.022  -1.313  1.00  0.00     0.213 HD
ENDBRANCH   6  12
BRANCH   7  14
ATOM     14  C   UNL     1      -8.748  -5.099   1.336  1.00  0.00     0.177 C 
BRANCH  14  15
ATOM     15  C   UNL     1     -10.136  -4.493   1.050  1.00  0.00     0.038 C 
BRANCH  15  16
ATOM     16  C   UNL     1     -10.491  -3.101   1.617  1.00  0.00    -0.015 C 
ATOM     17  C   UNL     1      -9.263  -2.195   1.752  1.00  0.00     0.007 C 
ATOM     18  C   UNL     1     -11.131  -3.253   3.003  1.00  0.00     0.007 C 
ENDBRANCH  15  16
ENDBRANCH  14  15
BRANCH  14  19
ATOM     19  C   UNL     1      -8.299  -5.734   2.697  1.00  0.00     0.245 C 
ATOM     20  O   UNL     1      -9.184  -6.276   3.381  1.00  0.00    -0.272 OA
BRANCH  19  21
ATOM     21  N   UNL     1      -7.021  -5.625   3.215  1.00  0.00    -0.332 N 
ATOM     22  C   UNL     1      -5.804  -6.063   2.554  1.00  0.00     0.147 C 
BRANCH  21  23
ATOM     23  C   UNL     1      -6.867  -5.020   4.567  1.00  0.00     0.178 C 
BRANCH  23  24
ATOM     24  C   UNL     1      -7.644  -3.705   4.778  1.00  0.00     0.070 C 
BRANCH  24  25
ATOM     25  C   UNL     1      -7.326  -2.909   6.022  1.00  0.00    -0.045 A 
ATOM     26  C   UNL     1      -8.304  -2.683   6.999  1.00  0.00     0.004 A 
ATOM     27  C   UNL     1      -6.040  -2.381   6.214  1.00  0.00     0.004 A 
ATOM     28  C   UNL     1      -8.006  -1.932   8.138  1.00  0.00     0.000 A 
ATOM     29  C   UNL     1      -5.744  -1.631   7.354  1.00  0.00     0.000 A 
ATOM     30  C   UNL     1      -6.728  -1.405   8.314  1.00  0.00     0.000 A 
ENDBRANCH  24  25
ENDBRANCH  23  24
BRANCH  23  31
ATOM     31  C   UNL     1      -7.010  -6.053   5.710  1.00  0.00     0.243 C 
ATOM     32  O   UNL     1      -6.145  -6.872   6.009  1.00  0.00    -0.273 OA
ATOM     33  N   UNL     1      -8.282  -6.101   6.255  1.00  0.00    -0.341 N 
ATOM     34  H   UNL     1      -8.963  -5.396   5.962  1.00  0.00     0.164 HD
BRANCH  33  35
ATOM     35  C   UNL     1      -8.681  -7.083   7.268  1.00  0.00     0.194 C 
BRANCH  35  36
ATOM     36  C   UNL     1     -10.048  -7.767   6.985  1.00  0.00     0.017 C 
ATOM     37  C   UNL     1      -9.870  -9.046   6.148  1.00  0.00     0.010 C 
ATOM     38  C   UNL     1     -11.034  -6.862   6.236  1.00  0.00     0.010 C 
ENDBRANCH  35  36
BRANCH  35  39
ATOM     39  C   UNL     1      -8.604  -6.516   8.713  1.00  0.00     0.329 C 
ATOM     40  O   UNL     1      -9.122  -5.463   9.066  1.00  0.00    -0.250 OA
BRANCH  39  41
ATOM     41  O   UNL     1      -7.966  -7.367   9.572  1.00  0.00    -0.458 OA
BRANCH  41  42
ATOM     42  C   UNL     1      -6.670  -6.939  10.054  1.00  0.00     0.205 CG0
ATOM     43  C   UNL     1      -5.620  -7.813   9.371  1.00  0.00     0.056 C 
ATOM     44  G   UNL     1      -6.645  -7.079  11.589  1.00  0.00     0.000 G0
ENDBRANCH  41  42
ENDBRANCH  39  41
ENDBRANCH  35  39
ENDBRANCH  33  35
ENDBRANCH  23  31
ENDBRANCH  21  23
ENDBRANCH  19  21
ENDBRANCH  14  19
ENDBRANCH   7  14
ENDBRANCH   2   5
BRANCH   3  45
ATOM     45  C   UNL     1      -7.169  -3.891  -5.244  1.00  0.00     0.171 C 
BRANCH  45  46
ATOM     46  N   UNL     1      -6.644  -4.646  -6.374  1.00  0.00    -0.342 N 
ATOM     47  C   UNL     1      -7.419  -4.990  -7.452  1.00  0.00     0.247 C 
ATOM     48  O   UNL     1      -8.589  -4.626  -7.578  1.00  0.00    -0.273 OA
ATOM     49  H   UNL     1      -5.664  -4.920  -6.336  1.00  0.00     0.164 HD
BRANCH  47  50
ATOM     50  C   UNL     1      -6.731  -5.892  -8.487  1.00  0.00     0.212 CG0
ATOM     51  G   UNL     1      -6.923  -5.245  -9.873  1.00  0.00     0.000 G0
BRANCH  50  52
ATOM     52  N   UNL     1      -5.332  -5.962  -8.072  1.00  0.00    -0.339 N 
ATOM     53  C   UNL     1      -4.526  -7.048  -8.314  1.00  0.00     0.243 C 
ATOM     54  O   UNL     1      -4.937  -8.070  -8.855  1.00  0.00    -0.273 OA
ATOM     55  H   UNL     1      -4.963  -5.190  -7.520  1.00  0.00     0.164 HD
BRANCH  53  56
ATOM     56  C   UNL     1      -3.113  -6.928  -7.707  1.00  0.00     0.182 C 
BRANCH  56  57
ATOM     57  N   UNL     1      -3.125  -7.258  -6.278  1.00  0.00    -0.344 N 
ATOM     58  C   UNL     1      -2.502  -8.374  -5.775  1.00  0.00     0.220 C 
ATOM     59  O   UNL     1      -1.956  -9.208  -6.489  1.00  0.00    -0.275 OA
ATOM     60  H   UNL     1      -3.476  -6.545  -5.644  1.00  0.00     0.164 HD
BRANCH  58  61
ATOM     61  C   UNL     1      -2.593  -8.484  -4.264  1.00  0.00     0.100 C 
BRANCH  61  62
ATOM     62  C   UNL     1      -3.227  -7.264  -3.594  1.00  0.00     0.010 C 
BRANCH  62  63
ATOM     63  C   UNL     1      -3.436  -7.416  -2.082  1.00  0.00     0.000 C 
BRANCH  63  64
ATOM     64  C   UNL     1      -3.726  -8.847  -1.630  1.00  0.00    -0.003 C 
ATOM     65  C   UNL     1      -3.117  -9.132  -0.265  1.00  0.00     0.004 C 
ENDBRANCH  63  64
ENDBRANCH  62  63
ENDBRANCH  61  62
ENDBRANCH  58  61
ENDBRANCH  56  57
BRANCH  56  66
ATOM     66  C   UNL     1      -2.502  -5.555  -7.976  1.00  0.00     0.157 C 
BRANCH  66  67
ATOM     67  C   UNL     1      -2.525  -4.697  -6.743  1.00  0.00     0.305 C 
ATOM     68  O   UNL     1      -3.493  -4.120  -6.271  1.00  0.00    -0.252 OA
BRANCH  67  69
ATOM     69  O   UNL     1      -1.328  -4.651  -6.130  1.00  0.00    -0.481 OA
ATOM     70  H   UNL     1      -0.746  -4.167  -6.753  1.00  0.00     0.296 HD
ENDBRANCH  67  69
ENDBRANCH  66  67
ENDBRANCH  56  66
ENDBRANCH  53  56
ENDBRANCH  50  52
ENDBRANCH  47  50
ENDBRANCH  45  46
BRANCH  45  71
ATOM     71  C   UNL     1      -6.798  -2.406  -5.335  1.00  0.00     0.037 C 
BRANCH  71  72
ATOM     72  C   UNL     1      -7.969  -1.496  -4.956  1.00  0.00     0.026 C 
BRANCH  72  73
ATOM     73  C   UNL     1      -7.531  -0.388  -4.000  1.00  0.00     0.146 C 
BRANCH  73  74
ATOM     74  N   UNL     1      -6.371  -0.871  -3.257  1.00  0.00    -0.254 NA
ATOM     75  C   UNL     1      -6.500  -1.047  -1.994  1.00  0.00     0.185 C 
ATOM     76  N   UNL     1      -5.451  -1.491  -1.283  1.00  0.00    -0.370 N 
ATOM     77  N   UNL     1      -7.579  -0.846  -1.218  1.00  0.00    -0.370 N 
ATOM     78  H   UNL     1      -4.594  -1.661  -1.790  1.00  0.00     0.159 HD
ATOM     79  H   UNL     1      -5.432  -1.514  -0.279  1.00  0.00     0.159 HD
ATOM     80  H   UNL     1      -8.444  -0.515  -1.618  1.00  0.00     0.159 HD
ATOM     81  H   UNL     1      -7.596  -1.129  -0.252  1.00  0.00     0.159 HD
ENDBRANCH  73  74
ENDBRANCH  72  73
ENDBRANCH  71  72
ENDBRANCH  45  71
ENDBRANCH   3  45
TORSDOF 20
ENDMDL
MODEL 8
REMARK VINA RESULT:    -6.584      7.096     11.059
REMARK INTER + INTRA:         -24.978
REMARK INTER:                 -19.110
REMARK INTRA:                  -5.868
REMARK UNBOUND:                -6.078
REMARK SMILES CCCCCC(=O)N[C@H](CC(=O)O)C(=O)N[C@H]1C(=O)N[C@H](CCCN=C(N)N)C(=O)N[C@@H]2CC[C@H](O)N(C2=O)[C@@H](CC(C)C)C(=O)N(C)[C@@H](Cc2ccccc2)C(=O)N[C@H](C(C)C)C(=O)O[C@@H]1C
REMARK SMILES IDX 30 1 31 2 29 3 32 5 35 6 37 7 34 8 38 9 33 10 39 11 36 12
REMARK SMILES IDX 40 14 41 15 42 16 43 17 44 18 45 19 46 20 47 21 48 22 49 23
REMARK SMILES IDX 50 24 51 25 52 26 56 27 53 28 55 29 54 30 57 31 58 32 59 33
REMARK SMILES IDX 60 35 61 36 62 37 63 38 64 39 65 40 66 41 67 42 68 43 21 45
REMARK SMILES IDX 20 46 18 47 19 48 17 50 16 52 14 53 15 54 9 56 8 57 6 58
REMARK SMILES IDX 7 59 5 61 4 62 3 63 2 64 1 65 10 66 11 67 12 68 13 69 22 71
REMARK SMILES IDX 23 72 24 73 25 74 26 75 27 76 28 77
REMARK H PARENT 31 4 36 13 59 34 20 49 16 55 8 60 13 70 27 78 27 79 28 80
REMARK H PARENT 28 81
REMARK Flexibility Score:  259.900
ROOT
ATOM      1  O   UNL     1      -5.805  -3.554  -1.878  1.00  0.00    -0.273 OA
ATOM      2  N   UNL     1      -7.705  -2.990  -3.019  1.00  0.00    -0.343 N 
ATOM      3  C   UNL     1      -6.558  -3.731  -2.836  1.00  0.00     0.243 C 
ATOM      4  H   UNL     1      -8.308  -3.173  -3.811  1.00  0.00     0.164 HD
ENDROOT
BRANCH   2   5
ATOM      5  C   UNL     1      -8.014  -1.870  -2.136  1.00  0.00     0.171 C 
ATOM      6  C   UNL     1     -10.042   0.199  -2.224  1.00  0.00     0.214 C 
ATOM      7  N   UNL     1      -8.758   0.437  -2.841  1.00  0.00    -0.303 N 
ATOM      8  C   UNL     1      -9.972  -0.743  -1.032  1.00  0.00     0.057 C 
ATOM      9  C   UNL     1      -7.763  -0.527  -2.879  1.00  0.00     0.247 C 
ATOM     10  C   UNL     1      -9.370  -2.064  -1.459  1.00  0.00     0.040 C 
ATOM     11  O   UNL     1      -6.699  -0.347  -3.485  1.00  0.00    -0.272 OA
BRANCH   6  12
ATOM     12  O   UNL     1     -10.905  -0.317  -3.210  1.00  0.00    -0.373 OA
ATOM     13  H   UNL     1     -10.937  -1.290  -3.083  1.00  0.00     0.213 HD
ENDBRANCH   6  12
BRANCH   7  14
ATOM     14  C   UNL     1      -8.590   1.712  -3.569  1.00  0.00     0.177 C 
BRANCH  14  15
ATOM     15  C   UNL     1      -9.561   1.928  -4.746  1.00  0.00     0.038 C 
BRANCH  15  16
ATOM     16  C   UNL     1      -9.010   1.984  -6.188  1.00  0.00    -0.015 C 
ATOM     17  C   UNL     1      -7.595   2.567  -6.251  1.00  0.00     0.007 C 
ATOM     18  C   UNL     1      -9.926   2.851  -7.061  1.00  0.00     0.007 C 
ENDBRANCH  15  16
ENDBRANCH  14  15
BRANCH  14  19
ATOM     19  C   UNL     1      -8.080   2.830  -2.597  1.00  0.00     0.245 C 
ATOM     20  O   UNL     1      -6.857   2.867  -2.379  1.00  0.00    -0.272 OA
BRANCH  19  21
ATOM     21  N   UNL     1      -8.914   3.685  -1.899  1.00  0.00    -0.332 N 
ATOM     22  C   UNL     1      -9.784   3.302  -0.800  1.00  0.00     0.147 C 
BRANCH  21  23
ATOM     23  C   UNL     1      -8.941   5.117  -2.305  1.00  0.00     0.178 C 
BRANCH  23  24
ATOM     24  C   UNL     1      -9.307   5.362  -3.783  1.00  0.00     0.070 C 
BRANCH  24  25
ATOM     25  C   UNL     1      -8.208   5.867  -4.689  1.00  0.00    -0.045 A 
ATOM     26  C   UNL     1      -6.877   5.903  -4.252  1.00  0.00     0.004 A 
ATOM     27  C   UNL     1      -8.508   6.312  -5.985  1.00  0.00     0.004 A 
ATOM     28  C   UNL     1      -5.870   6.387  -5.089  1.00  0.00     0.000 A 
ATOM     29  C   UNL     1      -7.500   6.794  -6.822  1.00  0.00     0.000 A 
ATOM     30  C   UNL     1      -6.181   6.834  -6.372  1.00  0.00     0.000 A 
ENDBRANCH  24  25
ENDBRANCH  23  24
BRANCH  23  31
ATOM     31  C   UNL     1      -9.686   6.018  -1.291  1.00  0.00     0.243 C 
ATOM     32  O   UNL     1      -9.312   6.208  -0.137  1.00  0.00    -0.273 OA
ATOM     33  N   UNL     1     -10.923   6.450  -1.740  1.00  0.00    -0.341 N 
ATOM     34  H   UNL     1     -11.181   6.256  -2.711  1.00  0.00     0.164 HD
BRANCH  33  35
ATOM     35  C   UNL     1     -11.853   7.215  -0.905  1.00  0.00     0.194 C 
BRANCH  35  36
ATOM     36  C   UNL     1     -13.117   6.421  -0.472  1.00  0.00     0.017 C 
ATOM     37  C   UNL     1     -14.405   7.194  -0.807  1.00  0.00     0.010 C 
ATOM     38  C   UNL     1     -13.149   6.106   1.028  1.00  0.00     0.010 C 
ENDBRANCH  35  36
BRANCH  35  39
ATOM     39  C   UNL     1     -12.217   8.594  -1.524  1.00  0.00     0.329 C 
ATOM     40  O   UNL     1     -12.490   9.591  -0.867  1.00  0.00    -0.250 OA
BRANCH  39  41
ATOM     41  O   UNL     1     -12.115   8.594  -2.888  1.00  0.00    -0.458 OA
BRANCH  41  42
ATOM     42  C   UNL     1     -13.198   9.226  -3.612  1.00  0.00     0.205 CG0
ATOM     43  C   UNL     1     -12.868   9.126  -5.100  1.00  0.00     0.056 C 
ATOM     44  G   UNL     1     -13.325  10.685  -3.132  1.00  0.00     0.000 G0
ENDBRANCH  41  42
ENDBRANCH  39  41
ENDBRANCH  35  39
ENDBRANCH  33  35
ENDBRANCH  23  31
ENDBRANCH  21  23
ENDBRANCH  19  21
ENDBRANCH  14  19
ENDBRANCH   7  14
ENDBRANCH   2   5
BRANCH   3  45
ATOM     45  C   UNL     1      -6.295  -4.808  -3.898  1.00  0.00     0.171 C 
BRANCH  45  46
ATOM     46  N   UNL     1      -4.897  -5.186  -3.738  1.00  0.00    -0.342 N 
ATOM     47  C   UNL     1      -4.517  -6.386  -3.191  1.00  0.00     0.247 C 
ATOM     48  O   UNL     1      -5.324  -7.256  -2.863  1.00  0.00    -0.273 OA
ATOM     49  H   UNL     1      -4.195  -4.517  -4.049  1.00  0.00     0.164 HD
BRANCH  47  50
ATOM     50  C   UNL     1      -3.005  -6.557  -2.987  1.00  0.00     0.212 CG0
ATOM     51  G   UNL     1      -2.791  -7.808  -2.111  1.00  0.00     0.000 G0
BRANCH  50  52
ATOM     52  N   UNL     1      -2.444  -6.690  -4.329  1.00  0.00    -0.339 N 
ATOM     53  C   UNL     1      -2.381  -7.882  -5.008  1.00  0.00     0.243 C 
ATOM     54  O   UNL     1      -2.746  -8.945  -4.513  1.00  0.00    -0.273 OA
ATOM     55  H   UNL     1      -2.024  -5.863  -4.749  1.00  0.00     0.164 HD
BRANCH  53  56
ATOM     56  C   UNL     1      -1.669  -7.791  -6.372  1.00  0.00     0.182 C 
BRANCH  56  57
ATOM     57  N   UNL     1      -1.911  -6.491  -7.007  1.00  0.00    -0.344 N 
ATOM     58  C   UNL     1      -0.915  -5.778  -7.627  1.00  0.00     0.220 C 
ATOM     59  O   UNL     1       0.257  -6.140  -7.630  1.00  0.00    -0.275 OA
ATOM     60  H   UNL     1      -2.881  -6.205  -7.115  1.00  0.00     0.164 HD
BRANCH  58  61
ATOM     61  C   UNL     1      -1.404  -4.491  -8.265  1.00  0.00     0.100 C 
BRANCH  61  62
ATOM     62  C   UNL     1      -1.580  -3.340  -7.274  1.00  0.00     0.010 C 
BRANCH  62  63
ATOM     63  C   UNL     1      -2.790  -2.442  -7.563  1.00  0.00     0.000 C 
BRANCH  63  64
ATOM     64  C   UNL     1      -3.584  -2.842  -8.805  1.00  0.00    -0.003 C 
ATOM     65  C   UNL     1      -3.628  -1.713  -9.825  1.00  0.00     0.004 C 
ENDBRANCH  63  64
ENDBRANCH  62  63
ENDBRANCH  61  62
ENDBRANCH  58  61
ENDBRANCH  56  57
BRANCH  56  66
ATOM     66  C   UNL     1      -2.050  -8.957  -7.282  1.00  0.00     0.157 C 
BRANCH  66  67
ATOM     67  C   UNL     1      -3.380  -8.722  -7.940  1.00  0.00     0.305 C 
ATOM     68  O   UNL     1      -3.577  -8.210  -9.031  1.00  0.00    -0.252 OA
BRANCH  67  69
ATOM     69  O   UNL     1      -4.404  -9.194  -7.205  1.00  0.00    -0.481 OA
ATOM     70  H   UNL     1      -3.984  -9.766  -6.528  1.00  0.00     0.296 HD
ENDBRANCH  67  69
ENDBRANCH  66  67
ENDBRANCH  56  66
ENDBRANCH  53  56
ENDBRANCH  50  52
ENDBRANCH  47  50
ENDBRANCH  45  46
BRANCH  45  71
ATOM     71  C   UNL     1      -6.574  -4.254  -5.300  1.00  0.00     0.037 C 
BRANCH  71  72
ATOM     72  C   UNL     1      -5.496  -4.665  -6.306  1.00  0.00     0.026 C 
BRANCH  72  73
ATOM     73  C   UNL     1      -5.825  -6.003  -6.964  1.00  0.00     0.146 C 
BRANCH  73  74
ATOM     74  N   UNL     1      -6.320  -5.730  -8.310  1.00  0.00    -0.254 NA
ATOM     75  C   UNL     1      -6.774  -6.715  -8.993  1.00  0.00     0.185 C 
ATOM     76  N   UNL     1      -7.238  -6.495 -10.234  1.00  0.00    -0.370 N 
ATOM     77  N   UNL     1      -6.867  -8.011  -8.647  1.00  0.00    -0.370 N 
ATOM     78  H   UNL     1      -7.198  -5.545 -10.576  1.00  0.00     0.159 HD
ATOM     79  H   UNL     1      -7.472  -7.231 -10.876  1.00  0.00     0.159 HD
ATOM     80  H   UNL     1      -6.559  -8.324  -7.739  1.00  0.00     0.159 HD
ATOM     81  H   UNL     1      -7.350  -8.679  -9.226  1.00  0.00     0.159 HD
ENDBRANCH  73  74
ENDBRANCH  72  73
ENDBRANCH  71  72
ENDBRANCH  45  71
ENDBRANCH   3  45
TORSDOF 20
ENDMDL
MODEL 9
REMARK VINA RESULT:    -6.577      1.776      2.288
REMARK INTER + INTRA:         -24.960
REMARK INTER:                 -19.160
REMARK INTRA:                  -5.800
REMARK UNBOUND:                -6.078
REMARK SMILES CCCCCC(=O)N[C@H](CC(=O)O)C(=O)N[C@H]1C(=O)N[C@H](CCCN=C(N)N)C(=O)N[C@@H]2CC[C@H](O)N(C2=O)[C@@H](CC(C)C)C(=O)N(C)[C@@H](Cc2ccccc2)C(=O)N[C@H](C(C)C)C(=O)O[C@@H]1C
REMARK SMILES IDX 30 1 31 2 29 3 32 5 35 6 37 7 34 8 38 9 33 10 39 11 36 12
REMARK SMILES IDX 40 14 41 15 42 16 43 17 44 18 45 19 46 20 47 21 48 22 49 23
REMARK SMILES IDX 50 24 51 25 52 26 56 27 53 28 55 29 54 30 57 31 58 32 59 33
REMARK SMILES IDX 60 35 61 36 62 37 63 38 64 39 65 40 66 41 67 42 68 43 21 45
REMARK SMILES IDX 20 46 18 47 19 48 17 50 16 52 14 53 15 54 9 56 8 57 6 58
REMARK SMILES IDX 7 59 5 61 4 62 3 63 2 64 1 65 10 66 11 67 12 68 13 69 22 71
REMARK SMILES IDX 23 72 24 73 25 74 26 75 27 76 28 77
REMARK H PARENT 31 4 36 13 59 34 20 49 16 55 8 60 13 70 27 78 27 79 28 80
REMARK H PARENT 28 81
REMARK Flexibility Score:  259.900
ROOT
ATOM      1  O   UNL     1      -8.369  -4.358  -3.397  1.00  0.00    -0.273 OA
ATOM      2  N   UNL     1      -7.482  -4.238  -1.293  1.00  0.00    -0.343 N 
ATOM      3  C   UNL     1      -7.394  -4.456  -2.651  1.00  0.00     0.243 C 
ATOM      4  H   UNL     1      -6.656  -4.313  -0.711  1.00  0.00     0.164 HD
ENDROOT
BRANCH   2   5
ATOM      5  C   UNL     1      -8.775  -3.997  -0.661  1.00  0.00     0.171 C 
ATOM      6  C   UNL     1      -9.553  -2.574   1.742  1.00  0.00     0.214 C 
ATOM      7  N   UNL     1      -9.256  -3.986   1.817  1.00  0.00    -0.303 N 
ATOM      8  C   UNL     1     -10.112  -2.147   0.394  1.00  0.00     0.057 C 
ATOM      9  C   UNL     1      -8.830  -4.714   0.718  1.00  0.00     0.247 C 
ATOM     10  C   UNL     1      -9.138  -2.514  -0.705  1.00  0.00     0.040 C 
ATOM     11  O   UNL     1      -8.495  -5.903   0.809  1.00  0.00    -0.272 OA
BRANCH   6  12
ATOM     12  O   UNL     1      -8.367  -1.870   2.028  1.00  0.00    -0.373 OA
ATOM     13  H   UNL     1      -7.705  -2.136   1.355  1.00  0.00     0.213 HD
ENDBRANCH   6  12
BRANCH   7  14
ATOM     14  C   UNL     1      -9.283  -4.606   3.158  1.00  0.00     0.177 C 
BRANCH  14  15
ATOM     15  C   UNL     1      -7.925  -4.658   3.884  1.00  0.00     0.038 C 
BRANCH  15  16
ATOM     16  C   UNL     1      -7.619  -5.829   4.844  1.00  0.00    -0.015 C 
ATOM     17  C   UNL     1      -6.127  -5.940   5.174  1.00  0.00     0.007 C 
ATOM     18  C   UNL     1      -8.071  -7.151   4.211  1.00  0.00     0.007 C 
ENDBRANCH  15  16
ENDBRANCH  14  15
BRANCH  14  19
ATOM     19  C   UNL     1     -10.670  -4.356   3.845  1.00  0.00     0.245 C 
ATOM     20  O   UNL     1     -11.660  -4.884   3.314  1.00  0.00    -0.272 OA
BRANCH  19  21
ATOM     21  N   UNL     1     -10.855  -3.506   4.921  1.00  0.00    -0.332 N 
ATOM     22  C   UNL     1     -11.447  -2.181   4.855  1.00  0.00     0.147 C 
BRANCH  21  23
ATOM     23  C   UNL     1     -10.405  -3.971   6.262  1.00  0.00     0.178 C 
BRANCH  23  24
ATOM     24  C   UNL     1      -9.731  -2.887   7.128  1.00  0.00     0.070 C 
BRANCH  24  25
ATOM     25  C   UNL     1      -8.221  -2.851   7.133  1.00  0.00    -0.045 A 
ATOM     26  C   UNL     1      -7.520  -2.023   6.247  1.00  0.00     0.004 A 
ATOM     27  C   UNL     1      -7.496  -3.654   8.027  1.00  0.00     0.004 A 
ATOM     28  C   UNL     1      -6.123  -2.008   6.246  1.00  0.00     0.000 A 
ATOM     29  C   UNL     1      -6.101  -3.637   8.025  1.00  0.00     0.000 A 
ATOM     30  C   UNL     1      -5.415  -2.816   7.133  1.00  0.00     0.000 A 
ENDBRANCH  24  25
ENDBRANCH  23  24
BRANCH  23  31
ATOM     31  C   UNL     1     -11.469  -4.822   6.994  1.00  0.00     0.243 C 
ATOM     32  O   UNL     1     -11.688  -6.006   6.752  1.00  0.00    -0.273 OA
ATOM     33  N   UNL     1     -12.292  -4.082   7.827  1.00  0.00    -0.341 N 
ATOM     34  H   UNL     1     -12.063  -3.098   7.985  1.00  0.00     0.164 HD
BRANCH  33  35
ATOM     35  C   UNL     1     -13.442  -4.657   8.530  1.00  0.00     0.194 C 
BRANCH  35  36
ATOM     36  C   UNL     1     -14.818  -4.269   7.918  1.00  0.00     0.017 C 
ATOM     37  C   UNL     1     -15.352  -5.378   6.995  1.00  0.00     0.010 C 
ATOM     38  C   UNL     1     -14.772  -2.973   7.100  1.00  0.00     0.010 C 
ENDBRANCH  35  36
BRANCH  35  39
ATOM     39  C   UNL     1     -13.396  -4.402  10.062  1.00  0.00     0.329 C 
ATOM     40  O   UNL     1     -12.361  -4.260  10.703  1.00  0.00    -0.250 OA
BRANCH  39  41
ATOM     41  O   UNL     1     -14.643  -4.266  10.605  1.00  0.00    -0.458 OA
BRANCH  41  42
ATOM     42  C   UNL     1     -15.090  -5.342  11.463  1.00  0.00     0.205 CG0
ATOM     43  C   UNL     1     -16.240  -6.047  10.746  1.00  0.00     0.056 C 
ATOM     44  G   UNL     1     -15.518  -4.745  12.818  1.00  0.00     0.000 G0
ENDBRANCH  41  42
ENDBRANCH  39  41
ENDBRANCH  35  39
ENDBRANCH  33  35
ENDBRANCH  23  31
ENDBRANCH  21  23
ENDBRANCH  19  21
ENDBRANCH  14  19
ENDBRANCH   7  14
ENDBRANCH   2   5
BRANCH   3  45
ATOM     45  C   UNL     1      -5.994  -4.806  -3.171  1.00  0.00     0.171 C 
BRANCH  45  46
ATOM     46  N   UNL     1      -5.961  -4.346  -4.553  1.00  0.00    -0.342 N 
ATOM     47  C   UNL     1      -4.852  -4.487  -5.350  1.00  0.00     0.247 C 
ATOM     48  O   UNL     1      -3.835  -5.075  -4.981  1.00  0.00    -0.273 OA
ATOM     49  H   UNL     1      -6.803  -3.904  -4.917  1.00  0.00     0.164 HD
BRANCH  47  50
ATOM     50  C   UNL     1      -4.959  -3.833  -6.734  1.00  0.00     0.212 CG0
ATOM     51  G   UNL     1      -3.674  -3.012  -6.964  1.00  0.00     0.000 G0
BRANCH  50  52
ATOM     52  N   UNL     1      -5.114  -4.937  -7.677  1.00  0.00    -0.339 N 
ATOM     53  C   UNL     1      -6.281  -5.647  -7.823  1.00  0.00     0.243 C 
ATOM     54  O   UNL     1      -7.273  -5.440  -7.129  1.00  0.00    -0.273 OA
ATOM     55  H   UNL     1      -4.293  -5.230  -8.202  1.00  0.00     0.164 HD
BRANCH  53  56
ATOM     56  C   UNL     1      -6.180  -6.823  -8.815  1.00  0.00     0.182 C 
BRANCH  56  57
ATOM     57  N   UNL     1      -4.789  -7.256  -8.978  1.00  0.00    -0.344 N 
ATOM     58  C   UNL     1      -4.224  -8.229  -8.190  1.00  0.00     0.220 C 
ATOM     59  O   UNL     1      -4.817  -8.750  -7.252  1.00  0.00    -0.275 OA
ATOM     60  H   UNL     1      -4.297  -6.926  -9.804  1.00  0.00     0.164 HD
BRANCH  58  61
ATOM     61  C   UNL     1      -2.793  -8.559  -8.574  1.00  0.00     0.100 C 
BRANCH  61  62
ATOM     62  C   UNL     1      -1.793  -8.390  -7.430  1.00  0.00     0.010 C 
BRANCH  62  63
ATOM     63  C   UNL     1      -1.705  -6.961  -6.879  1.00  0.00     0.000 C 
BRANCH  63  64
ATOM     64  C   UNL     1      -0.722  -6.061  -7.627  1.00  0.00    -0.003 C 
ATOM     65  C   UNL     1       0.317  -6.879  -8.380  1.00  0.00     0.004 C 
ENDBRANCH  63  64
ENDBRANCH  62  63
ENDBRANCH  61  62
ENDBRANCH  58  61
ENDBRANCH  56  57
BRANCH  56  66
ATOM     66  C   UNL     1      -6.839  -6.486 -10.152  1.00  0.00     0.157 C 
BRANCH  66  67
ATOM     67  C   UNL     1      -6.274  -5.222 -10.734  1.00  0.00     0.305 C 
ATOM     68  O   UNL     1      -6.738  -4.097 -10.631  1.00  0.00    -0.252 OA
BRANCH  67  69
ATOM     69  O   UNL     1      -5.111  -5.432 -11.379  1.00  0.00    -0.481 OA
ATOM     70  H   UNL     1      -4.459  -4.869 -10.910  1.00  0.00     0.296 HD
ENDBRANCH  67  69
ENDBRANCH  66  67
ENDBRANCH  56  66
ENDBRANCH  53  56
ENDBRANCH  50  52
ENDBRANCH  47  50
ENDBRANCH  45  46
BRANCH  45  71
ATOM     71  C   UNL     1      -5.750  -6.316  -3.071  1.00  0.00     0.037 C 
BRANCH  71  72
ATOM     72  C   UNL     1      -4.987  -6.693  -1.799  1.00  0.00     0.026 C 
BRANCH  72  73
ATOM     73  C   UNL     1      -5.870  -7.475  -0.828  1.00  0.00     0.146 C 
BRANCH  73  74
ATOM     74  N   UNL     1      -5.023  -7.948   0.263  1.00  0.00    -0.254 NA
ATOM     75  C   UNL     1      -4.993  -7.257   1.342  1.00  0.00     0.185 C 
ATOM     76  N   UNL     1      -4.225  -7.668   2.364  1.00  0.00    -0.370 N 
ATOM     77  N   UNL     1      -5.646  -6.118   1.634  1.00  0.00    -0.370 N 
ATOM     78  H   UNL     1      -3.693  -8.515   2.224  1.00  0.00     0.159 HD
ATOM     79  H   UNL     1      -4.039  -7.107   3.177  1.00  0.00     0.159 HD
ATOM     80  H   UNL     1      -6.265  -5.693   0.960  1.00  0.00     0.159 HD
ATOM     81  H   UNL     1      -5.633  -5.725   2.560  1.00  0.00     0.159 HD
ENDBRANCH  73  74
ENDBRANCH  72  73
ENDBRANCH  71  72
ENDBRANCH  45  71
ENDBRANCH   3  45
TORSDOF 20
ENDMDL
MODEL 10
REMARK VINA RESULT:    -6.551      3.705     13.106
REMARK INTER + INTRA:         -24.884
REMARK INTER:                 -17.250
REMARK INTRA:                  -7.634
REMARK UNBOUND:                -6.078
REMARK SMILES CCCCCC(=O)N[C@H](CC(=O)O)C(=O)N[C@H]1C(=O)N[C@H](CCCN=C(N)N)C(=O)N[C@@H]2CC[C@H](O)N(C2=O)[C@@H](CC(C)C)C(=O)N(C)[C@@H](Cc2ccccc2)C(=O)N[C@H](C(C)C)C(=O)O[C@@H]1C
REMARK SMILES IDX 30 1 31 2 29 3 32 5 35 6 37 7 34 8 38 9 33 10 39 11 36 12
REMARK SMILES IDX 40 14 41 15 42 16 43 17 44 18 45 19 46 20 47 21 48 22 49 23
REMARK SMILES IDX 50 24 51 25 52 26 56 27 53 28 55 29 54 30 57 31 58 32 59 33
REMARK SMILES IDX 60 35 61 36 62 37 63 38 64 39 65 40 66 41 67 42 68 43 21 45
REMARK SMILES IDX 20 46 18 47 19 48 17 50 16 52 14 53 15 54 9 56 8 57 6 58
REMARK SMILES IDX 7 59 5 61 4 62 3 63 2 64 1 65 10 66 11 67 12 68 13 69 22 71
REMARK SMILES IDX 23 72 24 73 25 74 26 75 27 76 28 77
REMARK H PARENT 31 4 36 13 59 34 20 49 16 55 8 60 13 70 27 78 27 79 28 80
REMARK H PARENT 28 81
REMARK Flexibility Score:  259.900
ROOT
ATOM      1  O   UNL     1     -12.660  -3.006   4.424  1.00  0.00    -0.273 OA
ATOM      2  N   UNL     1     -11.656  -4.969   3.815  1.00  0.00    -0.343 N 
ATOM      3  C   UNL     1     -12.473  -4.207   4.623  1.00  0.00     0.243 C 
ATOM      4  H   UNL     1     -11.537  -5.957   4.000  1.00  0.00     0.164 HD
ENDROOT
BRANCH   2   5
ATOM      5  C   UNL     1     -10.879  -4.347   2.748  1.00  0.00     0.171 C 
ATOM      6  C   UNL     1      -9.958  -5.309   0.173  1.00  0.00     0.214 C 
ATOM      7  N   UNL     1      -9.112  -5.464   1.333  1.00  0.00    -0.303 N 
ATOM      8  C   UNL     1     -10.863  -4.088   0.247  1.00  0.00     0.057 C 
ATOM      9  C   UNL     1      -9.511  -5.074   2.601  1.00  0.00     0.247 C 
ATOM     10  C   UNL     1     -11.724  -4.164   1.489  1.00  0.00     0.040 C 
ATOM     11  O   UNL     1      -8.816  -5.289   3.602  1.00  0.00    -0.272 OA
BRANCH   6  12
ATOM     12  O   UNL     1     -10.725  -6.483   0.038  1.00  0.00    -0.373 OA
ATOM     13  H   UNL     1     -10.207  -7.212   0.440  1.00  0.00     0.213 HD
ENDBRANCH   6  12
BRANCH   7  14
ATOM     14  C   UNL     1      -7.844  -6.199   1.143  1.00  0.00     0.177 C 
BRANCH  14  15
ATOM     15  C   UNL     1      -7.742  -7.539   1.898  1.00  0.00     0.038 C 
BRANCH  15  16
ATOM     16  C   UNL     1      -6.363  -8.035   2.386  1.00  0.00    -0.015 C 
ATOM     17  C   UNL     1      -6.473  -8.983   3.584  1.00  0.00     0.007 C 
ATOM     18  C   UNL     1      -5.497  -6.838   2.799  1.00  0.00     0.007 C 
ENDBRANCH  15  16
ENDBRANCH  14  15
BRANCH  14  19
ATOM     19  C   UNL     1      -7.259  -5.916  -0.284  1.00  0.00     0.245 C 
ATOM     20  O   UNL     1      -7.107  -6.897  -1.031  1.00  0.00    -0.272 OA
BRANCH  19  21
ATOM     21  N   UNL     1      -6.809  -4.676  -0.700  1.00  0.00    -0.332 N 
ATOM     22  C   UNL     1      -5.785  -3.885  -0.040  1.00  0.00     0.147 C 
BRANCH  21  23
ATOM     23  C   UNL     1      -7.425  -4.085  -1.920  1.00  0.00     0.178 C 
BRANCH  23  24
ATOM     24  C   UNL     1      -7.340  -2.548  -2.007  1.00  0.00     0.070 C 
BRANCH  24  25
ATOM     25  C   UNL     1      -8.526  -1.825  -2.603  1.00  0.00    -0.045 A 
ATOM     26  C   UNL     1      -9.654  -1.535  -1.825  1.00  0.00     0.004 A 
ATOM     27  C   UNL     1      -8.514  -1.438  -3.951  1.00  0.00     0.004 A 
ATOM     28  C   UNL     1     -10.753  -0.882  -2.388  1.00  0.00     0.000 A 
ATOM     29  C   UNL     1      -9.613  -0.785  -4.512  1.00  0.00     0.000 A 
ATOM     30  C   UNL     1     -10.733  -0.510  -3.730  1.00  0.00     0.000 A 
ENDBRANCH  24  25
ENDBRANCH  23  24
BRANCH  23  31
ATOM     31  C   UNL     1      -7.035  -4.834  -3.217  1.00  0.00     0.243 C 
ATOM     32  O   UNL     1      -7.841  -5.384  -3.962  1.00  0.00    -0.273 OA
ATOM     33  N   UNL     1      -5.668  -4.994  -3.373  1.00  0.00    -0.341 N 
ATOM     34  H   UNL     1      -5.046  -4.517  -2.716  1.00  0.00     0.164 HD
BRANCH  33  35
ATOM     35  C   UNL     1      -5.074  -5.772  -4.463  1.00  0.00     0.194 C 
BRANCH  35  36
ATOM     36  C   UNL     1      -3.788  -6.549  -4.062  1.00  0.00     0.017 C 
ATOM     37  C   UNL     1      -3.105  -5.907  -2.842  1.00  0.00     0.010 C 
ATOM     38  C   UNL     1      -2.748  -6.618  -5.186  1.00  0.00     0.010 C 
ENDBRANCH  35  36
BRANCH  35  39
ATOM     39  C   UNL     1      -4.865  -4.931  -5.753  1.00  0.00     0.329 C 
ATOM     40  O   UNL     1      -4.234  -3.882  -5.793  1.00  0.00    -0.250 OA
BRANCH  39  41
ATOM     41  O   UNL     1      -5.391  -5.538  -6.860  1.00  0.00    -0.458 OA
BRANCH  41  42
ATOM     42  C   UNL     1      -4.679  -5.331  -8.104  1.00  0.00     0.205 CG0
ATOM     43  C   UNL     1      -5.706  -4.899  -9.148  1.00  0.00     0.056 C 
ATOM     44  G   UNL     1      -3.966  -6.643  -8.486  1.00  0.00     0.000 G0
ENDBRANCH  41  42
ENDBRANCH  39  41
ENDBRANCH  35  39
ENDBRANCH  33  35
ENDBRANCH  23  31
ENDBRANCH  21  23
ENDBRANCH  19  21
ENDBRANCH  14  19
ENDBRANCH   7  14
ENDBRANCH   2   5
BRANCH   3  45
ATOM     45  C   UNL     1     -13.148  -4.964   5.774  1.00  0.00     0.171 C 
BRANCH  45  46
ATOM     46  N   UNL     1     -14.165  -4.060   6.296  1.00  0.00    -0.342 N 
ATOM     47  C   UNL     1     -15.472  -4.441   6.464  1.00  0.00     0.247 C 
ATOM     48  O   UNL     1     -15.866  -5.590   6.256  1.00  0.00    -0.273 OA
ATOM     49  H   UNL     1     -13.870  -3.115   6.535  1.00  0.00     0.164 HD
BRANCH  47  50
ATOM     50  C   UNL     1     -16.424  -3.321   6.906  1.00  0.00     0.212 CG0
ATOM     51  G   UNL     1     -16.128  -3.013   8.387  1.00  0.00     0.000 G0
BRANCH  50  52
ATOM     52  N   UNL     1     -16.144  -2.198   6.016  1.00  0.00    -0.339 N 
ATOM     53  C   UNL     1     -16.776  -2.013   4.810  1.00  0.00     0.243 C 
ATOM     54  O   UNL     1     -17.593  -2.813   4.362  1.00  0.00    -0.273 OA
ATOM     55  H   UNL     1     -15.396  -1.560   6.280  1.00  0.00     0.164 HD
BRANCH  53  56
ATOM     56  C   UNL     1     -16.253  -0.806   4.006  1.00  0.00     0.182 C 
BRANCH  56  57
ATOM     57  N   UNL     1     -15.209  -1.215   3.062  1.00  0.00    -0.344 N 
ATOM     58  C   UNL     1     -15.419  -1.258   1.705  1.00  0.00     0.220 C 
ATOM     59  O   UNL     1     -16.510  -1.030   1.195  1.00  0.00    -0.275 OA
ATOM     60  H   UNL     1     -14.267  -1.313   3.431  1.00  0.00     0.164 HD
BRANCH  58  61
ATOM     61  C   UNL     1     -14.183  -1.652   0.917  1.00  0.00     0.100 C 
BRANCH  61  62
ATOM     62  C   UNL     1     -13.523  -0.486   0.181  1.00  0.00     0.010 C 
BRANCH  62  63
ATOM     63  C   UNL     1     -12.502   0.290   1.023  1.00  0.00     0.000 C 
BRANCH  63  64
ATOM     64  C   UNL     1     -11.761  -0.562   2.052  1.00  0.00    -0.003 C 
ATOM     65  C   UNL     1     -10.278  -0.661   1.727  1.00  0.00     0.004 C 
ENDBRANCH  63  64
ENDBRANCH  62  63
ENDBRANCH  61  62
ENDBRANCH  58  61
ENDBRANCH  56  57
BRANCH  56  66
ATOM     66  C   UNL     1     -15.789   0.322   4.926  1.00  0.00     0.157 C 
BRANCH  66  67
ATOM     67  C   UNL     1     -14.303   0.518   4.839  1.00  0.00     0.305 C 
ATOM     68  O   UNL     1     -13.717   1.440   4.292  1.00  0.00    -0.252 OA
BRANCH  67  69
ATOM     69  O   UNL     1     -13.621  -0.439   5.496  1.00  0.00    -0.481 OA
ATOM     70  H   UNL     1     -12.886  -0.681   4.893  1.00  0.00     0.296 HD
ENDBRANCH  67  69
ENDBRANCH  66  67
ENDBRANCH  56  66
ENDBRANCH  53  56
ENDBRANCH  50  52
ENDBRANCH  47  50
ENDBRANCH  45  46
BRANCH  45  71
ATOM     71  C   UNL     1     -12.118  -5.335   6.846  1.00  0.00     0.037 C 
BRANCH  71  72
ATOM     72  C   UNL     1     -11.715  -4.131   7.701  1.00  0.00     0.026 C 
BRANCH  72  73
ATOM     73  C   UNL     1     -10.200  -3.945   7.729  1.00  0.00     0.146 C 
BRANCH  73  74
ATOM     74  N   UNL     1      -9.754  -3.699   6.361  1.00  0.00    -0.254 NA
ATOM     75  C   UNL     1      -9.106  -2.617   6.129  1.00  0.00     0.185 C 
ATOM     76  N   UNL     1      -8.681  -2.363   4.880  1.00  0.00    -0.370 N 
ATOM     77  N   UNL     1      -8.761  -1.638   6.983  1.00  0.00    -0.370 N 
ATOM     78  H   UNL     1      -8.905  -3.047   4.172  1.00  0.00     0.159 HD
ATOM     79  H   UNL     1      -8.299  -1.479   4.595  1.00  0.00     0.159 HD
ATOM     80  H   UNL     1      -9.011  -1.696   7.959  1.00  0.00     0.159 HD
ATOM     81  H   UNL     1      -8.149  -0.888   6.707  1.00  0.00     0.159 HD
ENDBRANCH  73  74
ENDBRANCH  72  73
ENDBRANCH  71  72
ENDBRANCH  45  71
ENDBRANCH   3  45
TORSDOF 20
ENDMDL
MODEL 11
REMARK VINA RESULT:    -6.470      2.808      4.798
REMARK INTER + INTRA:         -24.652
REMARK INTER:                 -19.462
REMARK INTRA:                  -5.190
REMARK UNBOUND:                -6.078
REMARK SMILES CCCCCC(=O)N[C@H](CC(=O)O)C(=O)N[C@H]1C(=O)N[C@H](CCCN=C(N)N)C(=O)N[C@@H]2CC[C@H](O)N(C2=O)[C@@H](CC(C)C)C(=O)N(C)[C@@H](Cc2ccccc2)C(=O)N[C@H](C(C)C)C(=O)O[C@@H]1C
REMARK SMILES IDX 30 1 31 2 29 3 32 5 35 6 37 7 34 8 38 9 33 10 39 11 36 12
REMARK SMILES IDX 40 14 41 15 42 16 43 17 44 18 45 19 46 20 47 21 48 22 49 23
REMARK SMILES IDX 50 24 51 25 52 26 56 27 53 28 55 29 54 30 57 31 58 32 59 33
REMARK SMILES IDX 60 35 61 36 62 37 63 38 64 39 65 40 66 41 67 42 68 43 21 45
REMARK SMILES IDX 20 46 18 47 19 48 17 50 16 52 14 53 15 54 9 56 8 57 6 58
REMARK SMILES IDX 7 59 5 61 4 62 3 63 2 64 1 65 10 66 11 67 12 68 13 69 22 71
REMARK SMILES IDX 23 72 24 73 25 74 26 75 27 76 28 77
REMARK H PARENT 31 4 36 13 59 34 20 49 16 55 8 60 13 70 27 78 27 79 28 80
REMARK H PARENT 28 81
REMARK Flexibility Score:  259.900
ROOT
ATOM      1  O   UNL     1      -5.533  -4.334  -3.586  1.00  0.00    -0.273 OA
ATOM      2  N   UNL     1      -7.614  -5.182  -3.159  1.00  0.00    -0.343 N 
ATOM      3  C   UNL     1      -6.704  -4.495  -3.933  1.00  0.00     0.243 C 
ATOM      4  H   UNL     1      -8.565  -5.308  -3.484  1.00  0.00     0.164 HD
ENDROOT
BRANCH   2   5
ATOM      5  C   UNL     1      -7.251  -5.651  -1.826  1.00  0.00     0.171 C 
ATOM      6  C   UNL     1      -8.735  -7.048   0.236  1.00  0.00     0.214 C 
ATOM      7  N   UNL     1      -8.714  -5.603   0.231  1.00  0.00    -0.303 N 
ATOM      8  C   UNL     1      -7.474  -7.669  -0.343  1.00  0.00     0.057 C 
ATOM      9  C   UNL     1      -8.068  -4.874  -0.754  1.00  0.00     0.247 C 
ATOM     10  C   UNL     1      -7.264  -7.177  -1.759  1.00  0.00     0.040 C 
ATOM     11  O   UNL     1      -8.128  -3.638  -0.801  1.00  0.00    -0.272 OA
BRANCH   6  12
ATOM     12  O   UNL     1      -9.868  -7.465  -0.489  1.00  0.00    -0.373 OA
ATOM     13  H   UNL     1      -9.684  -8.373  -0.813  1.00  0.00     0.213 HD
ENDBRANCH   6  12
BRANCH   7  14
ATOM     14  C   UNL     1      -9.542  -4.917   1.245  1.00  0.00     0.177 C 
BRANCH  14  15
ATOM     15  C   UNL     1     -10.995  -4.628   0.821  1.00  0.00     0.038 C 
BRANCH  15  16
ATOM     16  C   UNL     1     -11.496  -3.168   0.767  1.00  0.00    -0.015 C 
ATOM     17  C   UNL     1     -10.365  -2.155   0.967  1.00  0.00     0.007 C 
ATOM     18  C   UNL     1     -12.546  -2.939   1.862  1.00  0.00     0.007 C 
ENDBRANCH  15  16
ENDBRANCH  14  15
BRANCH  14  19
ATOM     19  C   UNL     1      -9.082  -5.325   2.688  1.00  0.00     0.245 C 
ATOM     20  O   UNL     1      -8.274  -6.264   2.772  1.00  0.00    -0.272 OA
BRANCH  19  21
ATOM     21  N   UNL     1      -9.606  -4.780   3.847  1.00  0.00    -0.332 N 
ATOM     22  C   UNL     1      -9.452  -3.400   4.273  1.00  0.00     0.147 C 
BRANCH  21  23
ATOM     23  C   UNL     1     -10.385  -5.675   4.746  1.00  0.00     0.178 C 
BRANCH  23  24
ATOM     24  C   UNL     1      -9.928  -5.665   6.220  1.00  0.00     0.070 C 
BRANCH  24  25
ATOM     25  C   UNL     1      -9.988  -6.977   6.967  1.00  0.00    -0.045 A 
ATOM     26  C   UNL     1     -10.200  -7.006   8.351  1.00  0.00     0.004 A 
ATOM     27  C   UNL     1      -9.826  -8.190   6.281  1.00  0.00     0.004 A 
ATOM     28  C   UNL     1     -10.237  -8.222   9.037  1.00  0.00     0.000 A 
ATOM     29  C   UNL     1      -9.864  -9.405   6.968  1.00  0.00     0.000 A 
ATOM     30  C   UNL     1     -10.067  -9.419   8.346  1.00  0.00     0.000 A 
ENDBRANCH  24  25
ENDBRANCH  23  24
BRANCH  23  31
ATOM     31  C   UNL     1     -11.914  -5.558   4.538  1.00  0.00     0.243 C 
ATOM     32  O   UNL     1     -12.495  -5.898   3.510  1.00  0.00    -0.273 OA
ATOM     33  N   UNL     1     -12.558  -4.860   5.546  1.00  0.00    -0.341 N 
ATOM     34  H   UNL     1     -12.019  -4.598   6.375  1.00  0.00     0.164 HD
BRANCH  33  35
ATOM     35  C   UNL     1     -13.984  -4.525   5.500  1.00  0.00     0.194 C 
BRANCH  35  36
ATOM     36  C   UNL     1     -14.274  -3.015   5.273  1.00  0.00     0.017 C 
ATOM     37  C   UNL     1     -13.162  -2.135   5.870  1.00  0.00     0.010 C 
ATOM     38  C   UNL     1     -15.602  -2.556   5.888  1.00  0.00     0.010 C 
ENDBRANCH  35  36
BRANCH  35  39
ATOM     39  C   UNL     1     -14.770  -5.091   6.715  1.00  0.00     0.329 C 
ATOM     40  O   UNL     1     -15.794  -5.758   6.620  1.00  0.00    -0.250 OA
BRANCH  39  41
ATOM     41  O   UNL     1     -14.144  -4.836   7.904  1.00  0.00    -0.458 OA
BRANCH  41  42
ATOM     42  C   UNL     1     -14.970  -4.904   9.091  1.00  0.00     0.205 CG0
ATOM     43  C   UNL     1     -15.258  -3.468   9.526  1.00  0.00     0.056 C 
ATOM     44  G   UNL     1     -14.215  -5.706  10.170  1.00  0.00     0.000 G0
ENDBRANCH  41  42
ENDBRANCH  39  41
ENDBRANCH  35  39
ENDBRANCH  33  35
ENDBRANCH  23  31
ENDBRANCH  21  23
ENDBRANCH  19  21
ENDBRANCH  14  19
ENDBRANCH   7  14
ENDBRANCH   2   5
BRANCH   3  45
ATOM     45  C   UNL     1      -7.245  -3.963  -5.267  1.00  0.00     0.171 C 
BRANCH  45  46
ATOM     46  N   UNL     1      -6.620  -4.779  -6.299  1.00  0.00    -0.342 N 
ATOM     47  C   UNL     1      -7.251  -5.083  -7.479  1.00  0.00     0.247 C 
ATOM     48  O   UNL     1      -8.355  -4.631  -7.783  1.00  0.00    -0.273 OA
ATOM     49  H   UNL     1      -5.682  -5.128  -6.112  1.00  0.00     0.164 HD
BRANCH  47  50
ATOM     50  C   UNL     1      -6.490  -6.056  -8.391  1.00  0.00     0.212 CG0
ATOM     51  G   UNL     1      -7.066  -5.911  -9.813  1.00  0.00     0.000 G0
BRANCH  50  52
ATOM     52  N   UNL     1      -5.086  -5.665  -8.294  1.00  0.00    -0.339 N 
ATOM     53  C   UNL     1      -4.432  -4.950  -9.268  1.00  0.00     0.243 C 
ATOM     54  O   UNL     1      -4.967  -4.630 -10.326  1.00  0.00    -0.273 OA
ATOM     55  H   UNL     1      -4.557  -5.997  -7.490  1.00  0.00     0.164 HD
BRANCH  53  56
ATOM     56  C   UNL     1      -2.932  -4.729  -8.983  1.00  0.00     0.182 C 
BRANCH  56  57
ATOM     57  N   UNL     1      -2.473  -5.587  -7.887  1.00  0.00    -0.344 N 
ATOM     58  C   UNL     1      -1.194  -6.085  -7.829  1.00  0.00     0.220 C 
ATOM     59  O   UNL     1      -0.373  -5.910  -8.722  1.00  0.00    -0.275 OA
ATOM     60  H   UNL     1      -3.086  -5.672  -7.080  1.00  0.00     0.164 HD
BRANCH  58  61
ATOM     61  C   UNL     1      -0.922  -6.899  -6.577  1.00  0.00     0.100 C 
BRANCH  61  62
ATOM     62  C   UNL     1      -0.498  -8.341  -6.859  1.00  0.00     0.010 C 
BRANCH  62  63
ATOM     63  C   UNL     1      -1.631  -9.366  -6.721  1.00  0.00     0.000 C 
BRANCH  63  64
ATOM     64  C   UNL     1      -1.968 -10.106  -8.015  1.00  0.00    -0.003 C 
ATOM     65  C   UNL     1      -1.192  -9.540  -9.196  1.00  0.00     0.004 C 
ENDBRANCH  63  64
ENDBRANCH  62  63
ENDBRANCH  61  62
ENDBRANCH  58  61
ENDBRANCH  56  57
BRANCH  56  66
ATOM     66  C   UNL     1      -2.622  -3.254  -8.731  1.00  0.00     0.157 C 
BRANCH  66  67
ATOM     67  C   UNL     1      -2.550  -2.957  -7.261  1.00  0.00     0.305 C 
ATOM     68  O   UNL     1      -3.479  -2.948  -6.469  1.00  0.00    -0.252 OA
BRANCH  67  69
ATOM     69  O   UNL     1      -1.288  -2.734  -6.845  1.00  0.00    -0.481 OA
ATOM     70  H   UNL     1      -0.852  -2.286  -7.600  1.00  0.00     0.296 HD
ENDBRANCH  67  69
ENDBRANCH  66  67
ENDBRANCH  56  66
ENDBRANCH  53  56
ENDBRANCH  50  52
ENDBRANCH  47  50
ENDBRANCH  45  46
BRANCH  45  71
ATOM     71  C   UNL     1      -6.895  -2.479  -5.431  1.00  0.00     0.037 C 
BRANCH  71  72
ATOM     72  C   UNL     1      -8.008  -1.565  -4.912  1.00  0.00     0.026 C 
BRANCH  72  73
ATOM     73  C   UNL     1      -7.440  -0.320  -4.234  1.00  0.00     0.146 C 
BRANCH  73  74
ATOM     74  N   UNL     1      -6.287  -0.731  -3.438  1.00  0.00    -0.254 NA
ATOM     75  C   UNL     1      -6.457  -0.896  -2.178  1.00  0.00     0.185 C 
ATOM     76  N   UNL     1      -5.415  -1.275  -1.420  1.00  0.00    -0.370 N 
ATOM     77  N   UNL     1      -7.575  -0.741  -1.449  1.00  0.00    -0.370 N 
ATOM     78  H   UNL     1      -4.531  -1.407  -1.891  1.00  0.00     0.159 HD
ATOM     79  H   UNL     1      -5.435  -1.282  -0.416  1.00  0.00     0.159 HD
ATOM     80  H   UNL     1      -8.440  -0.462  -1.887  1.00  0.00     0.159 HD
ATOM     81  H   UNL     1      -7.616  -1.011  -0.480  1.00  0.00     0.159 HD
ENDBRANCH  73  74
ENDBRANCH  72  73
ENDBRANCH  71  72
ENDBRANCH  45  71
ENDBRANCH   3  45
TORSDOF 20
ENDMDL
MODEL 12
REMARK VINA RESULT:    -6.457      5.002      7.877
REMARK INTER + INTRA:         -24.616
REMARK INTER:                 -18.933
REMARK INTRA:                  -5.682
REMARK UNBOUND:                -6.078
REMARK SMILES CCCCCC(=O)N[C@H](CC(=O)O)C(=O)N[C@H]1C(=O)N[C@H](CCCN=C(N)N)C(=O)N[C@@H]2CC[C@H](O)N(C2=O)[C@@H](CC(C)C)C(=O)N(C)[C@@H](Cc2ccccc2)C(=O)N[C@H](C(C)C)C(=O)O[C@@H]1C
REMARK SMILES IDX 30 1 31 2 29 3 32 5 35 6 37 7 34 8 38 9 33 10 39 11 36 12
REMARK SMILES IDX 40 14 41 15 42 16 43 17 44 18 45 19 46 20 47 21 48 22 49 23
REMARK SMILES IDX 50 24 51 25 52 26 56 27 53 28 55 29 54 30 57 31 58 32 59 33
REMARK SMILES IDX 60 35 61 36 62 37 63 38 64 39 65 40 66 41 67 42 68 43 21 45
REMARK SMILES IDX 20 46 18 47 19 48 17 50 16 52 14 53 15 54 9 56 8 57 6 58
REMARK SMILES IDX 7 59 5 61 4 62 3 63 2 64 1 65 10 66 11 67 12 68 13 69 22 71
REMARK SMILES IDX 23 72 24 73 25 74 26 75 27 76 28 77
REMARK H PARENT 31 4 36 13 59 34 20 49 16 55 8 60 13 70 27 78 27 79 28 80
REMARK H PARENT 28 81
REMARK Flexibility Score:  259.900
ROOT
ATOM      1  O   UNL     1      -5.125  -4.263   0.333  1.00  0.00    -0.273 OA
ATOM      2  N   UNL     1      -6.758  -5.069   1.717  1.00  0.00    -0.343 N 
ATOM      3  C   UNL     1      -5.998  -5.100   0.568  1.00  0.00     0.243 C 
ATOM      4  H   UNL     1      -7.457  -5.781   1.884  1.00  0.00     0.164 HD
ENDROOT
BRANCH   2   5
ATOM      5  C   UNL     1      -6.636  -3.960   2.658  1.00  0.00     0.171 C 
ATOM      6  C   UNL     1      -7.860  -3.424   5.231  1.00  0.00     0.214 C 
ATOM      7  N   UNL     1      -8.497  -2.943   4.027  1.00  0.00    -0.303 N 
ATOM      8  C   UNL     1      -6.347  -3.515   5.116  1.00  0.00     0.057 C 
ATOM      9  C   UNL     1      -7.993  -3.207   2.764  1.00  0.00     0.247 C 
ATOM     10  C   UNL     1      -5.974  -4.414   3.958  1.00  0.00     0.040 C 
ATOM     11  O   UNL     1      -8.591  -2.866   1.735  1.00  0.00    -0.272 OA
BRANCH   6  12
ATOM     12  O   UNL     1      -8.407  -4.687   5.532  1.00  0.00    -0.373 OA
ATOM     13  H   UNL     1      -7.669  -5.255   5.840  1.00  0.00     0.213 HD
ENDBRANCH   6  12
BRANCH   7  14
ATOM     14  C   UNL     1      -9.805  -2.272   4.183  1.00  0.00     0.177 C 
BRANCH  14  15
ATOM     15  C   UNL     1     -10.860  -3.067   4.977  1.00  0.00     0.038 C 
BRANCH  15  16
ATOM     16  C   UNL     1     -12.162  -3.513   4.276  1.00  0.00    -0.015 C 
ATOM     17  C   UNL     1     -13.408  -3.222   5.118  1.00  0.00     0.007 C 
ATOM     18  C   UNL     1     -12.112  -5.021   3.998  1.00  0.00     0.007 C 
ENDBRANCH  15  16
ENDBRANCH  14  15
BRANCH  14  19
ATOM     19  C   UNL     1      -9.615  -0.717   4.233  1.00  0.00     0.245 C 
ATOM     20  O   UNL     1      -8.564  -0.297   4.745  1.00  0.00    -0.272 OA
BRANCH  19  21
ATOM     21  N   UNL     1     -10.586   0.191   3.847  1.00  0.00    -0.332 N 
ATOM     22  C   UNL     1     -11.802   0.489   4.583  1.00  0.00     0.147 C 
BRANCH  21  23
ATOM     23  C   UNL     1     -10.384   0.924   2.566  1.00  0.00     0.178 C 
BRANCH  23  24
ATOM     24  C   UNL     1     -10.191   0.022   1.330  1.00  0.00     0.070 C 
BRANCH  24  25
ATOM     25  C   UNL     1      -9.394   0.591   0.180  1.00  0.00    -0.045 A 
ATOM     26  C   UNL     1      -9.862   0.490  -1.137  1.00  0.00     0.004 A 
ATOM     27  C   UNL     1      -8.167   1.228   0.416  1.00  0.00     0.004 A 
ATOM     28  C   UNL     1      -9.111   1.004  -2.196  1.00  0.00     0.000 A 
ATOM     29  C   UNL     1      -7.418   1.742  -0.643  1.00  0.00     0.000 A 
ATOM     30  C   UNL     1      -7.889   1.627  -1.949  1.00  0.00     0.000 A 
ENDBRANCH  24  25
ENDBRANCH  23  24
BRANCH  23  31
ATOM     31  C   UNL     1     -11.383   2.089   2.373  1.00  0.00     0.243 C 
ATOM     32  O   UNL     1     -12.572   1.937   2.104  1.00  0.00    -0.273 OA
ATOM     33  N   UNL     1     -10.781   3.336   2.347  1.00  0.00    -0.341 N 
ATOM     34  H   UNL     1      -9.785   3.398   2.574  1.00  0.00     0.164 HD
BRANCH  33  35
ATOM     35  C   UNL     1     -11.514   4.571   2.059  1.00  0.00     0.194 C 
BRANCH  35  36
ATOM     36  C   UNL     1     -10.944   5.384   0.863  1.00  0.00     0.017 C 
ATOM     37  C   UNL     1     -12.054   5.771  -0.130  1.00  0.00     0.010 C 
ATOM     38  C   UNL     1      -9.868   4.626   0.075  1.00  0.00     0.010 C 
ENDBRANCH  35  36
BRANCH  35  39
ATOM     39  C   UNL     1     -11.711   5.457   3.321  1.00  0.00     0.329 C 
ATOM     40  O   UNL     1     -10.934   5.485   4.268  1.00  0.00    -0.250 OA
BRANCH  39  41
ATOM     41  O   UNL     1     -12.806   6.270   3.219  1.00  0.00    -0.458 OA
BRANCH  41  42
ATOM     42  C   UNL     1     -13.683   6.311   4.371  1.00  0.00     0.205 CG0
ATOM     43  C   UNL     1     -14.511   5.028   4.357  1.00  0.00     0.056 C 
ATOM     44  G   UNL     1     -14.557   7.578   4.278  1.00  0.00     0.000 G0
ENDBRANCH  41  42
ENDBRANCH  39  41
ENDBRANCH  35  39
ENDBRANCH  33  35
ENDBRANCH  23  31
ENDBRANCH  21  23
ENDBRANCH  19  21
ENDBRANCH  14  19
ENDBRANCH   7  14
ENDBRANCH   2   5
BRANCH   3  45
ATOM     45  C   UNL     1      -6.301  -6.260  -0.389  1.00  0.00     0.171 C 
BRANCH  45  46
ATOM     46  N   UNL     1      -5.076  -6.475  -1.148  1.00  0.00    -0.342 N 
ATOM     47  C   UNL     1      -4.615  -7.728  -1.464  1.00  0.00     0.247 C 
ATOM     48  O   UNL     1      -5.237  -8.756  -1.194  1.00  0.00    -0.273 OA
ATOM     49  H   UNL     1      -4.559  -5.648  -1.441  1.00  0.00     0.164 HD
BRANCH  47  50
ATOM     50  C   UNL     1      -3.246  -7.762  -2.158  1.00  0.00     0.212 CG0
ATOM     51  G   UNL     1      -2.909  -9.237  -2.456  1.00  0.00     0.000 G0
BRANCH  50  52
ATOM     52  N   UNL     1      -3.400  -6.951  -3.363  1.00  0.00    -0.339 N 
ATOM     53  C   UNL     1      -3.146  -7.421  -4.628  1.00  0.00     0.243 C 
ATOM     54  O   UNL     1      -2.716  -8.551  -4.840  1.00  0.00    -0.273 OA
ATOM     55  H   UNL     1      -3.647  -5.970  -3.244  1.00  0.00     0.164 HD
BRANCH  53  56
ATOM     56  C   UNL     1      -3.295  -6.357  -5.735  1.00  0.00     0.182 C 
BRANCH  56  57
ATOM     57  N   UNL     1      -3.650  -6.976  -7.016  1.00  0.00    -0.344 N 
ATOM     58  C   UNL     1      -4.932  -6.967  -7.508  1.00  0.00     0.220 C 
ATOM     59  O   UNL     1      -5.880  -6.507  -6.880  1.00  0.00    -0.275 OA
ATOM     60  H   UNL     1      -2.882  -7.276  -7.611  1.00  0.00     0.164 HD
BRANCH  58  61
ATOM     61  C   UNL     1      -5.056  -7.613  -8.875  1.00  0.00     0.100 C 
BRANCH  61  62
ATOM     62  C   UNL     1      -6.494  -7.699  -9.388  1.00  0.00     0.010 C 
BRANCH  62  63
ATOM     63  C   UNL     1      -6.844  -6.655 -10.456  1.00  0.00     0.000 C 
BRANCH  63  64
ATOM     64  C   UNL     1      -7.354  -5.329  -9.894  1.00  0.00    -0.003 C 
ATOM     65  C   UNL     1      -6.312  -4.229 -10.035  1.00  0.00     0.004 C 
ENDBRANCH  63  64
ENDBRANCH  62  63
ENDBRANCH  61  62
ENDBRANCH  58  61
ENDBRANCH  56  57
BRANCH  56  66
ATOM     66  C   UNL     1      -2.047  -5.483  -5.843  1.00  0.00     0.157 C 
BRANCH  66  67
ATOM     67  C   UNL     1      -2.324  -4.235  -6.630  1.00  0.00     0.305 C 
ATOM     68  O   UNL     1      -3.417  -3.817  -6.981  1.00  0.00    -0.252 OA
BRANCH  67  69
ATOM     69  O   UNL     1      -1.202  -3.538  -6.896  1.00  0.00    -0.481 OA
ATOM     70  H   UNL     1      -1.258  -2.746  -6.321  1.00  0.00     0.296 HD
ENDBRANCH  67  69
ENDBRANCH  66  67
ENDBRANCH  56  66
ENDBRANCH  53  56
ENDBRANCH  50  52
ENDBRANCH  47  50
ENDBRANCH  45  46
BRANCH  45  71
ATOM     71  C   UNL     1      -7.478  -5.905  -1.304  1.00  0.00     0.037 C 
BRANCH  71  72
ATOM     72  C   UNL     1      -7.019  -5.223  -2.595  1.00  0.00     0.026 C 
BRANCH  72  73
ATOM     73  C   UNL     1      -7.645  -3.839  -2.751  1.00  0.00     0.146 C 
BRANCH  73  74
ATOM     74  N   UNL     1      -6.567  -2.855  -2.715  1.00  0.00    -0.254 NA
ATOM     75  C   UNL     1      -6.493  -2.085  -1.692  1.00  0.00     0.185 C 
ATOM     76  N   UNL     1      -5.512  -1.170  -1.630  1.00  0.00    -0.370 N 
ATOM     77  N   UNL     1      -7.286  -2.044  -0.607  1.00  0.00    -0.370 N 
ATOM     78  H   UNL     1      -4.874  -1.129  -2.411  1.00  0.00     0.159 HD
ATOM     79  H   UNL     1      -5.477  -0.443  -0.937  1.00  0.00     0.159 HD
ATOM     80  H   UNL     1      -8.064  -2.679  -0.515  1.00  0.00     0.159 HD
ATOM     81  H   UNL     1      -7.060  -1.471   0.190  1.00  0.00     0.159 HD
ENDBRANCH  73  74
ENDBRANCH  72  73
ENDBRANCH  71  72
ENDBRANCH  45  71
ENDBRANCH   3  45
TORSDOF 20
ENDMDL
MODEL 13
REMARK VINA RESULT:    -6.301      3.609      6.683
REMARK INTER + INTRA:         -24.167
REMARK INTER:                 -16.960
REMARK INTRA:                  -7.207
REMARK UNBOUND:                -6.078
REMARK SMILES CCCCCC(=O)N[C@H](CC(=O)O)C(=O)N[C@H]1C(=O)N[C@H](CCCN=C(N)N)C(=O)N[C@@H]2CC[C@H](O)N(C2=O)[C@@H](CC(C)C)C(=O)N(C)[C@@H](Cc2ccccc2)C(=O)N[C@H](C(C)C)C(=O)O[C@@H]1C
REMARK SMILES IDX 30 1 31 2 29 3 32 5 35 6 37 7 34 8 38 9 33 10 39 11 36 12
REMARK SMILES IDX 40 14 41 15 42 16 43 17 44 18 45 19 46 20 47 21 48 22 49 23
REMARK SMILES IDX 50 24 51 25 52 26 56 27 53 28 55 29 54 30 57 31 58 32 59 33
REMARK SMILES IDX 60 35 61 36 62 37 63 38 64 39 65 40 66 41 67 42 68 43 21 45
REMARK SMILES IDX 20 46 18 47 19 48 17 50 16 52 14 53 15 54 9 56 8 57 6 58
REMARK SMILES IDX 7 59 5 61 4 62 3 63 2 64 1 65 10 66 11 67 12 68 13 69 22 71
REMARK SMILES IDX 23 72 24 73 25 74 26 75 27 76 28 77
REMARK H PARENT 31 4 36 13 59 34 20 49 16 55 8 60 13 70 27 78 27 79 28 80
REMARK H PARENT 28 81
REMARK Flexibility Score:  259.900
ROOT
ATOM      1  O   UNL     1      -4.443  -5.584  -3.820  1.00  0.00    -0.273 OA
ATOM      2  N   UNL     1      -6.415  -5.085  -4.865  1.00  0.00    -0.343 N 
ATOM      3  C   UNL     1      -5.127  -5.576  -4.843  1.00  0.00     0.243 C 
ATOM      4  H   UNL     1      -6.954  -5.109  -5.722  1.00  0.00     0.164 HD
ENDROOT
BRANCH   2   5
ATOM      5  C   UNL     1      -6.983  -4.438  -3.687  1.00  0.00     0.171 C 
ATOM      6  C   UNL     1      -6.073  -4.204  -0.945  1.00  0.00     0.214 C 
ATOM      7  N   UNL     1      -6.922  -5.311  -1.319  1.00  0.00    -0.303 N 
ATOM      8  C   UNL     1      -6.318  -2.951  -1.771  1.00  0.00     0.057 C 
ATOM      9  C   UNL     1      -7.350  -5.511  -2.622  1.00  0.00     0.247 C 
ATOM     10  C   UNL     1      -6.120  -3.260  -3.239  1.00  0.00     0.040 C 
ATOM     11  O   UNL     1      -8.005  -6.508  -2.951  1.00  0.00    -0.272 OA
BRANCH   6  12
ATOM     12  O   UNL     1      -4.735  -4.624  -1.073  1.00  0.00    -0.373 OA
ATOM     13  H   UNL     1      -4.753  -5.526  -1.459  1.00  0.00     0.213 HD
ENDBRANCH   6  12
BRANCH   7  14
ATOM     14  C   UNL     1      -7.203  -6.322  -0.278  1.00  0.00     0.177 C 
BRANCH  14  15
ATOM     15  C   UNL     1      -5.962  -6.894   0.434  1.00  0.00     0.038 C 
BRANCH  15  16
ATOM     16  C   UNL     1      -5.745  -8.423   0.476  1.00  0.00    -0.015 C 
ATOM     17  C   UNL     1      -4.294  -8.798   0.789  1.00  0.00     0.007 C 
ATOM     18  C   UNL     1      -6.119  -9.037  -0.879  1.00  0.00     0.007 C 
ENDBRANCH  15  16
ENDBRANCH  14  15
BRANCH  14  19
ATOM     19  C   UNL     1      -8.586  -6.032   0.402  1.00  0.00     0.245 C 
ATOM     20  O   UNL     1      -9.581  -6.585  -0.096  1.00  0.00    -0.272 OA
BRANCH  19  21
ATOM     21  N   UNL     1      -8.764  -5.125   1.431  1.00  0.00    -0.332 N 
ATOM     22  C   UNL     1      -8.238  -5.264   2.777  1.00  0.00     0.147 C 
BRANCH  21  23
ATOM     23  C   UNL     1      -9.569  -3.904   1.151  1.00  0.00     0.178 C 
BRANCH  23  24
ATOM     24  C   UNL     1      -9.586  -3.466  -0.328  1.00  0.00     0.070 C 
BRANCH  24  25
ATOM     25  C   UNL     1      -9.896  -2.015  -0.612  1.00  0.00    -0.045 A 
ATOM     26  C   UNL     1     -11.089  -1.648  -1.248  1.00  0.00     0.004 A 
ATOM     27  C   UNL     1      -8.986  -1.012  -0.246  1.00  0.00     0.004 A 
ATOM     28  C   UNL     1     -11.361  -0.306  -1.523  1.00  0.00     0.000 A 
ATOM     29  C   UNL     1      -9.260   0.329  -0.521  1.00  0.00     0.000 A 
ATOM     30  C   UNL     1     -10.446   0.680  -1.162  1.00  0.00     0.000 A 
ENDBRANCH  24  25
ENDBRANCH  23  24
BRANCH  23  31
ATOM     31  C   UNL     1     -10.955  -3.925   1.840  1.00  0.00     0.243 C 
ATOM     32  O   UNL     1     -11.743  -4.865   1.771  1.00  0.00    -0.273 OA
ATOM     33  N   UNL     1     -11.315  -2.708   2.395  1.00  0.00    -0.341 N 
ATOM     34  H   UNL     1     -10.617  -1.960   2.418  1.00  0.00     0.164 HD
BRANCH  33  35
ATOM     35  C   UNL     1     -12.629  -2.461   2.994  1.00  0.00     0.194 C 
BRANCH  35  36
ATOM     36  C   UNL     1     -13.385  -1.245   2.388  1.00  0.00     0.017 C 
ATOM     37  C   UNL     1     -14.126  -1.634   1.097  1.00  0.00     0.010 C 
ATOM     38  C   UNL     1     -12.462  -0.067   2.051  1.00  0.00     0.010 C 
ENDBRANCH  35  36
BRANCH  35  39
ATOM     39  C   UNL     1     -12.576  -2.396   4.546  1.00  0.00     0.329 C 
ATOM     40  O   UNL     1     -11.793  -1.696   5.177  1.00  0.00    -0.250 OA
BRANCH  39  41
ATOM     41  O   UNL     1     -13.561  -3.143   5.132  1.00  0.00    -0.458 OA
BRANCH  41  42
ATOM     42  C   UNL     1     -13.512  -3.250   6.574  1.00  0.00     0.205 CG0
ATOM     43  C   UNL     1     -13.210  -4.708   6.912  1.00  0.00     0.056 C 
ATOM     44  G   UNL     1     -14.863  -2.779   7.148  1.00  0.00     0.000 G0
ENDBRANCH  41  42
ENDBRANCH  39  41
ENDBRANCH  35  39
ENDBRANCH  33  35
ENDBRANCH  23  31
ENDBRANCH  21  23
ENDBRANCH  19  21
ENDBRANCH  14  19
ENDBRANCH   7  14
ENDBRANCH   2   5
BRANCH   3  45
ATOM     45  C   UNL     1      -4.614  -6.132  -6.178  1.00  0.00     0.171 C 
BRANCH  45  46
ATOM     46  N   UNL     1      -3.410  -5.371  -6.484  1.00  0.00    -0.342 N 
ATOM     47  C   UNL     1      -2.333  -5.925  -7.131  1.00  0.00     0.247 C 
ATOM     48  O   UNL     1      -2.334  -7.079  -7.563  1.00  0.00    -0.273 OA
ATOM     49  H   UNL     1      -3.389  -4.396  -6.194  1.00  0.00     0.164 HD
BRANCH  47  50
ATOM     50  C   UNL     1      -1.108  -5.009  -7.255  1.00  0.00     0.212 CG0
ATOM     51  G   UNL     1      -0.523  -5.200  -8.669  1.00  0.00     0.000 G0
BRANCH  50  52
ATOM     52  N   UNL     1      -1.606  -3.658  -7.015  1.00  0.00    -0.339 N 
ATOM     53  C   UNL     1      -1.841  -2.749  -8.018  1.00  0.00     0.243 C 
ATOM     54  O   UNL     1      -1.599  -2.988  -9.198  1.00  0.00    -0.273 OA
ATOM     55  H   UNL     1      -1.721  -3.361  -6.048  1.00  0.00     0.164 HD
BRANCH  53  56
ATOM     56  C   UNL     1      -2.281  -1.359  -7.515  1.00  0.00     0.182 C 
BRANCH  56  57
ATOM     57  N   UNL     1      -3.720  -1.158  -7.716  1.00  0.00    -0.344 N 
ATOM     58  C   UNL     1      -4.666  -1.812  -6.965  1.00  0.00     0.220 C 
ATOM     59  O   UNL     1      -4.378  -2.661  -6.128  1.00  0.00    -0.275 OA
ATOM     60  H   UNL     1      -3.997  -0.393  -8.325  1.00  0.00     0.164 HD
BRANCH  58  61
ATOM     61  C   UNL     1      -6.088  -1.407  -7.304  1.00  0.00     0.100 C 
BRANCH  61  62
ATOM     62  C   UNL     1      -7.054  -1.500  -6.123  1.00  0.00     0.010 C 
BRANCH  62  63
ATOM     63  C   UNL     1      -7.241  -0.182  -5.360  1.00  0.00     0.000 C 
BRANCH  63  64
ATOM     64  C   UNL     1      -8.288  -0.244  -4.249  1.00  0.00    -0.003 C 
ATOM     65  C   UNL     1      -9.115  -1.519  -4.337  1.00  0.00     0.004 C 
ENDBRANCH  63  64
ENDBRANCH  62  63
ENDBRANCH  61  62
ENDBRANCH  58  61
ENDBRANCH  56  57
BRANCH  56  66
ATOM     66  C   UNL     1      -1.449  -0.245  -8.149  1.00  0.00     0.157 C 
BRANCH  66  67
ATOM     67  C   UNL     1      -1.997   1.108  -7.798  1.00  0.00     0.305 C 
ATOM     68  O   UNL     1      -3.022   1.617  -8.224  1.00  0.00    -0.252 OA
BRANCH  67  69
ATOM     69  O   UNL     1      -1.244   1.742  -6.879  1.00  0.00    -0.481 OA
ATOM     70  H   UNL     1      -0.330   1.698  -7.231  1.00  0.00     0.296 HD
ENDBRANCH  67  69
ENDBRANCH  66  67
ENDBRANCH  56  66
ENDBRANCH  53  56
ENDBRANCH  50  52
ENDBRANCH  47  50
ENDBRANCH  45  46
BRANCH  45  71
ATOM     71  C   UNL     1      -5.678  -5.969  -7.269  1.00  0.00     0.037 C 
BRANCH  71  72
ATOM     72  C   UNL     1      -5.776  -7.205  -8.167  1.00  0.00     0.026 C 
BRANCH  72  73
ATOM     73  C   UNL     1      -6.541  -6.904  -9.454  1.00  0.00     0.146 C 
BRANCH  73  74
ATOM     74  N   UNL     1      -5.684  -6.077 -10.299  1.00  0.00    -0.254 NA
ATOM     75  C   UNL     1      -6.099  -4.902 -10.604  1.00  0.00     0.185 C 
ATOM     76  N   UNL     1      -5.333  -4.117 -11.379  1.00  0.00    -0.370 N 
ATOM     77  N   UNL     1      -7.244  -4.293 -10.253  1.00  0.00    -0.370 N 
ATOM     78  H   UNL     1      -4.454  -4.503 -11.695  1.00  0.00     0.159 HD
ATOM     79  H   UNL     1      -5.651  -3.251 -11.775  1.00  0.00     0.159 HD
ATOM     80  H   UNL     1      -7.917  -4.763  -9.666  1.00  0.00     0.159 HD
ATOM     81  H   UNL     1      -7.410  -3.321 -10.458  1.00  0.00     0.159 HD
ENDBRANCH  73  74
ENDBRANCH  72  73
ENDBRANCH  71  72
ENDBRANCH  45  71
ENDBRANCH   3  45
TORSDOF 20
ENDMDL
MODEL 14
REMARK VINA RESULT:    -6.297      6.170      9.733
REMARK INTER + INTRA:         -24.155
REMARK INTER:                 -18.424
REMARK INTRA:                  -5.731
REMARK UNBOUND:                -6.078
REMARK SMILES CCCCCC(=O)N[C@H](CC(=O)O)C(=O)N[C@H]1C(=O)N[C@H](CCCN=C(N)N)C(=O)N[C@@H]2CC[C@H](O)N(C2=O)[C@@H](CC(C)C)C(=O)N(C)[C@@H](Cc2ccccc2)C(=O)N[C@H](C(C)C)C(=O)O[C@@H]1C
REMARK SMILES IDX 30 1 31 2 29 3 32 5 35 6 37 7 34 8 38 9 33 10 39 11 36 12
REMARK SMILES IDX 40 14 41 15 42 16 43 17 44 18 45 19 46 20 47 21 48 22 49 23
REMARK SMILES IDX 50 24 51 25 52 26 56 27 53 28 55 29 54 30 57 31 58 32 59 33
REMARK SMILES IDX 60 35 61 36 62 37 63 38 64 39 65 40 66 41 67 42 68 43 21 45
REMARK SMILES IDX 20 46 18 47 19 48 17 50 16 52 14 53 15 54 9 56 8 57 6 58
REMARK SMILES IDX 7 59 5 61 4 62 3 63 2 64 1 65 10 66 11 67 12 68 13 69 22 71
REMARK SMILES IDX 23 72 24 73 25 74 26 75 27 76 28 77
REMARK H PARENT 31 4 36 13 59 34 20 49 16 55 8 60 13 70 27 78 27 79 28 80
REMARK H PARENT 28 81
REMARK Flexibility Score:  259.900
ROOT
ATOM      1  O   UNL     1      -7.929  -6.115  -3.494  1.00  0.00    -0.273 OA
ATOM      2  N   UNL     1      -7.000  -4.251  -2.549  1.00  0.00    -0.343 N 
ATOM      3  C   UNL     1      -7.172  -5.614  -2.662  1.00  0.00     0.243 C 
ATOM      4  H   UNL     1      -6.358  -3.875  -1.862  1.00  0.00     0.164 HD
ENDROOT
BRANCH   2   5
ATOM      5  C   UNL     1      -7.809  -3.332  -3.342  1.00  0.00     0.171 C 
ATOM      6  C   UNL     1      -7.797  -0.447  -3.624  1.00  0.00     0.214 C 
ATOM      7  N   UNL     1      -8.639  -1.060  -2.623  1.00  0.00    -0.303 N 
ATOM      8  C   UNL     1      -7.573  -1.328  -4.842  1.00  0.00     0.057 C 
ATOM      9  C   UNL     1      -8.654  -2.427  -2.401  1.00  0.00     0.247 C 
ATOM     10  C   UNL     1      -6.966  -2.647  -4.416  1.00  0.00     0.040 C 
ATOM     11  O   UNL     1      -9.313  -2.936  -1.484  1.00  0.00    -0.272 OA
BRANCH   6  12
ATOM     12  O   UNL     1      -6.568  -0.127  -3.015  1.00  0.00    -0.373 OA
ATOM     13  H   UNL     1      -6.770   0.193  -2.110  1.00  0.00     0.213 HD
ENDBRANCH   6  12
BRANCH   7  14
ATOM     14  C   UNL     1      -9.387  -0.151  -1.729  1.00  0.00     0.177 C 
BRANCH  14  15
ATOM     15  C   UNL     1      -8.782   0.034  -0.324  1.00  0.00     0.038 C 
BRANCH  15  16
ATOM     16  C   UNL     1      -9.644  -0.265   0.922  1.00  0.00    -0.015 C 
ATOM     17  C   UNL     1      -9.119  -1.460   1.723  1.00  0.00     0.007 C 
ATOM     18  C   UNL     1     -11.086  -0.570   0.494  1.00  0.00     0.007 C 
ENDBRANCH  15  16
ENDBRANCH  14  15
BRANCH  14  19
ATOM     19  C   UNL     1     -10.098   0.969  -2.564  1.00  0.00     0.245 C 
ATOM     20  O   UNL     1     -10.978   0.600  -3.360  1.00  0.00    -0.272 OA
BRANCH  19  21
ATOM     21  N   UNL     1      -9.726   2.302  -2.542  1.00  0.00    -0.332 N 
ATOM     22  C   UNL     1      -8.698   2.903  -3.373  1.00  0.00     0.147 C 
BRANCH  21  23
ATOM     23  C   UNL     1     -10.422   3.203  -1.583  1.00  0.00     0.178 C 
BRANCH  23  24
ATOM     24  C   UNL     1      -9.505   3.850  -0.524  1.00  0.00     0.070 C 
BRANCH  24  25
ATOM     25  C   UNL     1     -10.037   3.933   0.888  1.00  0.00    -0.045 A 
ATOM     26  C   UNL     1      -9.858   2.872   1.785  1.00  0.00     0.004 A 
ATOM     27  C   UNL     1     -10.724   5.077   1.320  1.00  0.00     0.004 A 
ATOM     28  C   UNL     1     -10.367   2.949   3.083  1.00  0.00     0.000 A 
ATOM     29  C   UNL     1     -11.231   5.153   2.618  1.00  0.00     0.000 A 
ATOM     30  C   UNL     1     -11.054   4.087   3.498  1.00  0.00     0.000 A 
ENDBRANCH  24  25
ENDBRANCH  23  24
BRANCH  23  31
ATOM     31  C   UNL     1     -11.406   4.176  -2.275  1.00  0.00     0.243 C 
ATOM     32  O   UNL     1     -12.364   3.816  -2.954  1.00  0.00    -0.273 OA
ATOM     33  N   UNL     1     -11.007   5.501  -2.216  1.00  0.00    -0.341 N 
ATOM     34  H   UNL     1     -10.198   5.739  -1.639  1.00  0.00     0.164 HD
BRANCH  33  35
ATOM     35  C   UNL     1     -11.722   6.581  -2.903  1.00  0.00     0.194 C 
BRANCH  35  36
ATOM     36  C   UNL     1     -10.998   7.116  -4.170  1.00  0.00     0.017 C 
ATOM     37  C   UNL     1     -11.738   6.702  -5.454  1.00  0.00     0.010 C 
ATOM     38  C   UNL     1      -9.552   6.620  -4.295  1.00  0.00     0.010 C 
ENDBRANCH  35  36
BRANCH  35  39
ATOM     39  C   UNL     1     -12.134   7.731  -1.941  1.00  0.00     0.329 C 
ATOM     40  O   UNL     1     -11.343   8.366  -1.253  1.00  0.00    -0.250 OA
BRANCH  39  41
ATOM     41  O   UNL     1     -13.469   8.015  -2.013  1.00  0.00    -0.458 OA
BRANCH  41  42
ATOM     42  C   UNL     1     -13.898   9.243  -1.379  1.00  0.00     0.205 CG0
ATOM     43  C   UNL     1     -14.688   8.858  -0.130  1.00  0.00     0.056 C 
ATOM     44  G   UNL     1     -14.744  10.047  -2.386  1.00  0.00     0.000 G0
ENDBRANCH  41  42
ENDBRANCH  39  41
ENDBRANCH  35  39
ENDBRANCH  33  35
ENDBRANCH  23  31
ENDBRANCH  21  23
ENDBRANCH  19  21
ENDBRANCH  14  19
ENDBRANCH   7  14
ENDBRANCH   2   5
BRANCH   3  45
ATOM     45  C   UNL     1      -6.339  -6.464  -1.694  1.00  0.00     0.171 C 
BRANCH  45  46
ATOM     46  N   UNL     1      -5.067  -6.694  -2.367  1.00  0.00    -0.342 N 
ATOM     47  C   UNL     1      -4.048  -5.774  -2.349  1.00  0.00     0.247 C 
ATOM     48  O   UNL     1      -4.106  -4.725  -1.707  1.00  0.00    -0.273 OA
ATOM     49  H   UNL     1      -4.955  -7.576  -2.864  1.00  0.00     0.164 HD
BRANCH  47  50
ATOM     50  C   UNL     1      -2.833  -6.134  -3.215  1.00  0.00     0.212 CG0
ATOM     51  G   UNL     1      -2.330  -7.520  -2.763  1.00  0.00     0.000 G0
BRANCH  50  52
ATOM     52  N   UNL     1      -3.317  -6.117  -4.593  1.00  0.00    -0.339 N 
ATOM     53  C   UNL     1      -3.339  -7.229  -5.400  1.00  0.00     0.243 C 
ATOM     54  O   UNL     1      -2.901  -8.318  -5.039  1.00  0.00    -0.273 OA
ATOM     55  H   UNL     1      -3.590  -5.219  -4.987  1.00  0.00     0.164 HD
BRANCH  53  56
ATOM     56  C   UNL     1      -3.812  -6.949  -6.841  1.00  0.00     0.182 C 
BRANCH  56  57
ATOM     57  N   UNL     1      -4.546  -5.682  -6.917  1.00  0.00    -0.344 N 
ATOM     58  C   UNL     1      -3.931  -4.491  -7.218  1.00  0.00     0.220 C 
ATOM     59  O   UNL     1      -2.719  -4.391  -7.370  1.00  0.00    -0.275 OA
ATOM     60  H   UNL     1      -5.561  -5.737  -6.898  1.00  0.00     0.164 HD
BRANCH  58  61
ATOM     61  C   UNL     1      -4.894  -3.321  -7.300  1.00  0.00     0.100 C 
BRANCH  61  62
ATOM     62  C   UNL     1      -5.784  -3.342  -8.543  1.00  0.00     0.010 C 
BRANCH  62  63
ATOM     63  C   UNL     1      -7.197  -3.884  -8.293  1.00  0.00     0.000 C 
BRANCH  63  64
ATOM     64  C   UNL     1      -7.647  -4.946  -9.295  1.00  0.00    -0.003 C 
ATOM     65  C   UNL     1      -6.829  -4.883 -10.577  1.00  0.00     0.004 C 
ENDBRANCH  63  64
ENDBRANCH  62  63
ENDBRANCH  61  62
ENDBRANCH  58  61
ENDBRANCH  56  57
BRANCH  56  66
ATOM     66  C   UNL     1      -4.618  -8.118  -7.403  1.00  0.00     0.157 C 
BRANCH  66  67
ATOM     67  C   UNL     1      -5.184  -7.789  -8.754  1.00  0.00     0.305 C 
ATOM     68  O   UNL     1      -6.297  -8.073  -9.171  1.00  0.00    -0.252 OA
BRANCH  67  69
ATOM     69  O   UNL     1      -4.332  -7.063  -9.503  1.00  0.00    -0.481 OA
ATOM     70  H   UNL     1      -3.657  -7.706  -9.807  1.00  0.00     0.296 HD
ENDBRANCH  67  69
ENDBRANCH  66  67
ENDBRANCH  56  66
ENDBRANCH  53  56
ENDBRANCH  50  52
ENDBRANCH  47  50
ENDBRANCH  45  46
BRANCH  45  71
ATOM     71  C   UNL     1      -7.060  -7.781  -1.384  1.00  0.00     0.037 C 
BRANCH  71  72
ATOM     72  C   UNL     1      -8.060  -7.633  -0.234  1.00  0.00     0.026 C 
BRANCH  72  73
ATOM     73  C   UNL     1      -7.351  -7.385   1.096  1.00  0.00     0.146 C 
BRANCH  73  74
ATOM     74  N   UNL     1      -8.367  -7.352   2.144  1.00  0.00    -0.254 NA
ATOM     75  C   UNL     1      -8.744  -6.205   2.576  1.00  0.00     0.185 C 
ATOM     76  N   UNL     1      -9.678  -6.142   3.539  1.00  0.00    -0.370 N 
ATOM     77  N   UNL     1      -8.331  -4.983   2.199  1.00  0.00    -0.370 N 
ATOM     78  H   UNL     1     -10.038  -7.019   3.886  1.00  0.00     0.159 HD
ATOM     79  H   UNL     1      -9.916  -5.295   4.025  1.00  0.00     0.159 HD
ATOM     80  H   UNL     1      -7.632  -4.876   1.479  1.00  0.00     0.159 HD
ATOM     81  H   UNL     1      -8.784  -4.147   2.530  1.00  0.00     0.159 HD
ENDBRANCH  73  74
ENDBRANCH  72  73
ENDBRANCH  71  72
ENDBRANCH  45  71
ENDBRANCH   3  45
TORSDOF 20
ENDMDL
MODEL 15
REMARK VINA RESULT:    -6.295      6.292     10.636
REMARK INTER + INTRA:         -24.149
REMARK INTER:                 -18.360
REMARK INTRA:                  -5.789
REMARK UNBOUND:                -6.078
REMARK SMILES CCCCCC(=O)N[C@H](CC(=O)O)C(=O)N[C@H]1C(=O)N[C@H](CCCN=C(N)N)C(=O)N[C@@H]2CC[C@H](O)N(C2=O)[C@@H](CC(C)C)C(=O)N(C)[C@@H](Cc2ccccc2)C(=O)N[C@H](C(C)C)C(=O)O[C@@H]1C
REMARK SMILES IDX 30 1 31 2 29 3 32 5 35 6 37 7 34 8 38 9 33 10 39 11 36 12
REMARK SMILES IDX 40 14 41 15 42 16 43 17 44 18 45 19 46 20 47 21 48 22 49 23
REMARK SMILES IDX 50 24 51 25 52 26 56 27 53 28 55 29 54 30 57 31 58 32 59 33
REMARK SMILES IDX 60 35 61 36 62 37 63 38 64 39 65 40 66 41 67 42 68 43 21 45
REMARK SMILES IDX 20 46 18 47 19 48 17 50 16 52 14 53 15 54 9 56 8 57 6 58
REMARK SMILES IDX 7 59 5 61 4 62 3 63 2 64 1 65 10 66 11 67 12 68 13 69 22 71
REMARK SMILES IDX 23 72 24 73 25 74 26 75 27 76 28 77
REMARK H PARENT 31 4 36 13 59 34 20 49 16 55 8 60 13 70 27 78 27 79 28 80
REMARK H PARENT 28 81
REMARK Flexibility Score:  259.900
ROOT
ATOM      1  O   UNL     1      -7.023  -6.320  -3.044  1.00  0.00    -0.273 OA
ATOM      2  N   UNL     1      -5.585  -4.664  -3.689  1.00  0.00    -0.343 N 
ATOM      3  C   UNL     1      -5.907  -5.803  -2.984  1.00  0.00     0.243 C 
ATOM      4  H   UNL     1      -4.652  -4.274  -3.627  1.00  0.00     0.164 HD
ENDROOT
BRANCH   2   5
ATOM      5  C   UNL     1      -6.603  -3.950  -4.452  1.00  0.00     0.171 C 
ATOM      6  C   UNL     1      -6.709  -1.273  -5.561  1.00  0.00     0.214 C 
ATOM      7  N   UNL     1      -7.210  -1.510  -4.228  1.00  0.00    -0.303 N 
ATOM      8  C   UNL     1      -6.844  -2.479  -6.478  1.00  0.00     0.057 C 
ATOM      9  C   UNL     1      -7.143  -2.753  -3.619  1.00  0.00     0.247 C 
ATOM     10  C   UNL     1      -6.122  -3.664  -5.875  1.00  0.00     0.040 C 
ATOM     11  O   UNL     1      -7.496  -2.928  -2.445  1.00  0.00    -0.272 OA
BRANCH   6  12
ATOM     12  O   UNL     1      -5.358  -0.887  -5.451  1.00  0.00    -0.373 OA
ATOM     13  H   UNL     1      -5.333  -0.092  -4.878  1.00  0.00     0.213 HD
ENDBRANCH   6  12
BRANCH   7  14
ATOM     14  C   UNL     1      -7.672  -0.330  -3.466  1.00  0.00     0.177 C 
BRANCH  14  15
ATOM     15  C   UNL     1      -6.601   0.344  -2.586  1.00  0.00     0.038 C 
BRANCH  15  16
ATOM     16  C   UNL     1      -7.031   1.106  -1.313  1.00  0.00    -0.015 C 
ATOM     17  C   UNL     1      -5.835   1.578  -0.483  1.00  0.00     0.007 C 
ATOM     18  C   UNL     1      -7.898   0.197  -0.433  1.00  0.00     0.007 C 
ENDBRANCH  15  16
ENDBRANCH  14  15
BRANCH  14  19
ATOM     19  C   UNL     1      -8.800   0.419  -4.256  1.00  0.00     0.245 C 
ATOM     20  O   UNL     1      -9.746  -0.271  -4.670  1.00  0.00    -0.272 OA
BRANCH  19  21
ATOM     21  N   UNL     1      -8.739   1.757  -4.605  1.00  0.00    -0.332 N 
ATOM     22  C   UNL     1      -8.037   2.297  -5.756  1.00  0.00     0.147 C 
BRANCH  21  23
ATOM     23  C   UNL     1      -9.437   2.737  -3.728  1.00  0.00     0.178 C 
BRANCH  23  24
ATOM     24  C   UNL     1      -8.510   3.547  -2.799  1.00  0.00     0.070 C 
BRANCH  24  25
ATOM     25  C   UNL     1      -9.124   4.119  -1.542  1.00  0.00    -0.045 A 
ATOM     26  C   UNL     1      -9.118   5.499  -1.304  1.00  0.00     0.004 A 
ATOM     27  C   UNL     1      -9.708   3.270  -0.590  1.00  0.00     0.004 A 
ATOM     28  C   UNL     1      -9.672   6.018  -0.132  1.00  0.00     0.000 A 
ATOM     29  C   UNL     1     -10.263   3.790   0.580  1.00  0.00     0.000 A 
ATOM     30  C   UNL     1     -10.242   5.164   0.809  1.00  0.00     0.000 A 
ENDBRANCH  24  25
ENDBRANCH  23  24
BRANCH  23  31
ATOM     31  C   UNL     1     -10.497   3.575  -4.483  1.00  0.00     0.243 C 
ATOM     32  O   UNL     1     -11.443   3.091  -5.100  1.00  0.00    -0.273 OA
ATOM     33  N   UNL     1     -10.183   4.921  -4.562  1.00  0.00    -0.341 N 
ATOM     34  H   UNL     1      -9.379   5.264  -4.032  1.00  0.00     0.164 HD
BRANCH  33  35
ATOM     35  C   UNL     1     -10.980   5.883  -5.330  1.00  0.00     0.194 C 
BRANCH  35  36
ATOM     36  C   UNL     1     -10.318   6.336  -6.662  1.00  0.00     0.017 C 
ATOM     37  C   UNL     1     -10.691   5.395  -7.820  1.00  0.00     0.010 C 
ATOM     38  C   UNL     1      -8.787   6.389  -6.588  1.00  0.00     0.010 C 
ENDBRANCH  35  36
BRANCH  35  39
ATOM     39  C   UNL     1     -11.445   7.093  -4.472  1.00  0.00     0.329 C 
ATOM     40  O   UNL     1     -10.761   7.622  -3.604  1.00  0.00    -0.250 OA
BRANCH  39  41
ATOM     41  O   UNL     1     -12.673   7.558  -4.853  1.00  0.00    -0.458 OA
BRANCH  41  42
ATOM     42  C   UNL     1     -12.869   8.991  -4.774  1.00  0.00     0.205 CG0
ATOM     43  C   UNL     1     -13.911   9.247  -3.687  1.00  0.00     0.056 C 
ATOM     44  G   UNL     1     -13.320   9.503  -6.156  1.00  0.00     0.000 G0
ENDBRANCH  41  42
ENDBRANCH  39  41
ENDBRANCH  35  39
ENDBRANCH  33  35
ENDBRANCH  23  31
ENDBRANCH  21  23
ENDBRANCH  19  21
ENDBRANCH  14  19
ENDBRANCH   7  14
ENDBRANCH   2   5
BRANCH   3  45
ATOM     45  C   UNL     1      -4.773  -6.394  -2.136  1.00  0.00     0.171 C 
BRANCH  45  46
ATOM     46  N   UNL     1      -4.048  -7.296  -3.022  1.00  0.00    -0.342 N 
ATOM     47  C   UNL     1      -2.925  -6.908  -3.708  1.00  0.00     0.247 C 
ATOM     48  O   UNL     1      -2.408  -5.799  -3.572  1.00  0.00    -0.273 OA
ATOM     49  H   UNL     1      -4.410  -8.242  -3.120  1.00  0.00     0.164 HD
BRANCH  47  50
ATOM     50  C   UNL     1      -2.370  -7.952  -4.688  1.00  0.00     0.212 CG0
ATOM     51  G   UNL     1      -3.207  -9.236  -4.527  1.00  0.00     0.000 G0
BRANCH  50  52
ATOM     52  N   UNL     1      -2.490  -7.347  -6.011  1.00  0.00    -0.339 N 
ATOM     53  C   UNL     1      -3.693  -7.136  -6.639  1.00  0.00     0.243 C 
ATOM     54  O   UNL     1      -4.764  -7.491  -6.155  1.00  0.00    -0.273 OA
ATOM     55  H   UNL     1      -1.630  -7.132  -6.513  1.00  0.00     0.164 HD
BRANCH  53  56
ATOM     56  C   UNL     1      -3.565  -6.564  -8.066  1.00  0.00     0.182 C 
BRANCH  56  57
ATOM     57  N   UNL     1      -3.422  -5.105  -8.037  1.00  0.00    -0.344 N 
ATOM     58  C   UNL     1      -2.210  -4.488  -7.844  1.00  0.00     0.220 C 
ATOM     59  O   UNL     1      -1.179  -5.110  -7.610  1.00  0.00    -0.275 OA
ATOM     60  H   UNL     1      -4.228  -4.557  -8.327  1.00  0.00     0.164 HD
BRANCH  58  61
ATOM     61  C   UNL     1      -2.288  -2.974  -7.911  1.00  0.00     0.100 C 
BRANCH  61  62
ATOM     62  C   UNL     1      -1.337  -2.352  -8.934  1.00  0.00     0.010 C 
BRANCH  62  63
ATOM     63  C   UNL     1      -0.493  -1.195  -8.384  1.00  0.00     0.000 C 
BRANCH  63  64
ATOM     64  C   UNL     1      -1.228   0.143  -8.326  1.00  0.00    -0.003 C 
ATOM     65  C   UNL     1      -2.214   0.286  -9.476  1.00  0.00     0.004 C 
ENDBRANCH  63  64
ENDBRANCH  62  63
ENDBRANCH  61  62
ENDBRANCH  58  61
ENDBRANCH  56  57
BRANCH  56  66
ATOM     66  C   UNL     1      -4.723  -7.012  -8.955  1.00  0.00     0.157 C 
BRANCH  66  67
ATOM     67  C   UNL     1      -5.950  -6.181  -8.710  1.00  0.00     0.305 C 
ATOM     68  O   UNL     1      -6.162  -5.049  -9.118  1.00  0.00    -0.252 OA
BRANCH  67  69
ATOM     69  O   UNL     1      -6.883  -6.843  -7.999  1.00  0.00    -0.481 OA
ATOM     70  H   UNL     1      -7.722  -6.686  -8.481  1.00  0.00     0.296 HD
ENDBRANCH  67  69
ENDBRANCH  66  67
ENDBRANCH  56  66
ENDBRANCH  53  56
ENDBRANCH  50  52
ENDBRANCH  47  50
ENDBRANCH  45  46
BRANCH  45  71
ATOM     71  C   UNL     1      -5.345  -7.133  -0.921  1.00  0.00     0.037 C 
BRANCH  71  72
ATOM     72  C   UNL     1      -5.452  -6.225   0.307  1.00  0.00     0.026 C 
BRANCH  72  73
ATOM     73  C   UNL     1      -6.729  -6.502   1.098  1.00  0.00     0.146 C 
BRANCH  73  74
ATOM     74  N   UNL     1      -7.635  -7.254   0.235  1.00  0.00    -0.254 NA
ATOM     75  C   UNL     1      -8.883  -6.961   0.277  1.00  0.00     0.185 C 
ATOM     76  N   UNL     1      -9.741  -7.634  -0.506  1.00  0.00    -0.370 N 
ATOM     77  N   UNL     1      -9.508  -6.033   1.022  1.00  0.00    -0.370 N 
ATOM     78  H   UNL     1      -9.353  -8.357  -1.094  1.00  0.00     0.159 HD
ATOM     79  H   UNL     1     -10.740  -7.561  -0.422  1.00  0.00     0.159 HD
ATOM     80  H   UNL     1      -8.987  -5.446   1.657  1.00  0.00     0.159 HD
ATOM     81  H   UNL     1     -10.481  -5.813   0.885  1.00  0.00     0.159 HD
ENDBRANCH  73  74
ENDBRANCH  72  73
ENDBRANCH  71  72
ENDBRANCH  45  71
ENDBRANCH   3  45
TORSDOF 20
ENDMDL
MODEL 16
REMARK VINA RESULT:    -6.241      7.018     10.247
REMARK INTER + INTRA:         -23.995
REMARK INTER:                 -17.029
REMARK INTRA:                  -6.966
REMARK UNBOUND:                -6.078
REMARK SMILES CCCCCC(=O)N[C@H](CC(=O)O)C(=O)N[C@H]1C(=O)N[C@H](CCCN=C(N)N)C(=O)N[C@@H]2CC[C@H](O)N(C2=O)[C@@H](CC(C)C)C(=O)N(C)[C@@H](Cc2ccccc2)C(=O)N[C@H](C(C)C)C(=O)O[C@@H]1C
REMARK SMILES IDX 30 1 31 2 29 3 32 5 35 6 37 7 34 8 38 9 33 10 39 11 36 12
REMARK SMILES IDX 40 14 41 15 42 16 43 17 44 18 45 19 46 20 47 21 48 22 49 23
REMARK SMILES IDX 50 24 51 25 52 26 56 27 53 28 55 29 54 30 57 31 58 32 59 33
REMARK SMILES IDX 60 35 61 36 62 37 63 38 64 39 65 40 66 41 67 42 68 43 21 45
REMARK SMILES IDX 20 46 18 47 19 48 17 50 16 52 14 53 15 54 9 56 8 57 6 58
REMARK SMILES IDX 7 59 5 61 4 62 3 63 2 64 1 65 10 66 11 67 12 68 13 69 22 71
REMARK SMILES IDX 23 72 24 73 25 74 26 75 27 76 28 77
REMARK H PARENT 31 4 36 13 59 34 20 49 16 55 8 60 13 70 27 78 27 79 28 80
REMARK H PARENT 28 81
REMARK Flexibility Score:  259.900
ROOT
ATOM      1  O   UNL     1      -9.119  -4.132  -1.163  1.00  0.00    -0.273 OA
ATOM      2  N   UNL     1      -7.472  -2.732  -0.417  1.00  0.00    -0.343 N 
ATOM      3  C   UNL     1      -8.209  -3.895  -0.368  1.00  0.00     0.243 C 
ATOM      4  H   UNL     1      -6.721  -2.577   0.244  1.00  0.00     0.164 HD
ENDROOT
BRANCH   2   5
ATOM      5  C   UNL     1      -7.824  -1.668  -1.352  1.00  0.00     0.171 C 
ATOM      6  C   UNL     1      -7.263   1.175  -1.394  1.00  0.00     0.214 C 
ATOM      7  N   UNL     1      -8.469   0.699  -0.758  1.00  0.00    -0.303 N 
ATOM      8  C   UNL     1      -6.801   0.295  -2.544  1.00  0.00     0.057 C 
ATOM      9  C   UNL     1      -8.773  -0.649  -0.658  1.00  0.00     0.247 C 
ATOM     10  C   UNL     1      -6.582  -1.119  -2.051  1.00  0.00     0.040 C 
ATOM     11  O   UNL     1      -9.764  -1.054  -0.036  1.00  0.00    -0.272 OA
BRANCH   6  12
ATOM     12  O   UNL     1      -6.261   1.262  -0.407  1.00  0.00    -0.373 OA
ATOM     13  H   UNL     1      -5.632   1.957  -0.697  1.00  0.00     0.213 HD
ENDBRANCH   6  12
BRANCH   7  14
ATOM     14  C   UNL     1      -9.311   1.706  -0.078  1.00  0.00     0.177 C 
BRANCH  14  15
ATOM     15  C   UNL     1      -8.810   2.150   1.310  1.00  0.00     0.038 C 
BRANCH  15  16
ATOM     16  C   UNL     1      -9.799   2.202   2.495  1.00  0.00    -0.015 C 
ATOM     17  C   UNL     1      -9.118   1.921   3.838  1.00  0.00     0.007 C 
ATOM     18  C   UNL     1     -10.907   1.160   2.292  1.00  0.00     0.007 C 
ENDBRANCH  15  16
ENDBRANCH  14  15
BRANCH  14  19
ATOM     19  C   UNL     1     -10.005   2.635  -1.132  1.00  0.00     0.245 C 
ATOM     20  O   UNL     1     -10.407   2.095  -2.176  1.00  0.00    -0.272 OA
BRANCH  19  21
ATOM     21  N   UNL     1     -10.088   4.011  -1.011  1.00  0.00    -0.332 N 
ATOM     22  C   UNL     1      -9.119   4.962  -1.526  1.00  0.00     0.147 C 
BRANCH  21  23
ATOM     23  C   UNL     1     -11.259   4.576  -0.285  1.00  0.00     0.178 C 
BRANCH  23  24
ATOM     24  C   UNL     1     -10.900   5.491   0.905  1.00  0.00     0.070 C 
BRANCH  24  25
ATOM     25  C   UNL     1     -11.484   5.129   2.251  1.00  0.00    -0.045 A 
ATOM     26  C   UNL     1     -10.832   5.492   3.436  1.00  0.00     0.004 A 
ATOM     27  C   UNL     1     -12.690   4.418   2.331  1.00  0.00     0.004 A 
ATOM     28  C   UNL     1     -11.369   5.139   4.676  1.00  0.00     0.000 A 
ATOM     29  C   UNL     1     -13.227   4.067   3.571  1.00  0.00     0.000 A 
ATOM     30  C   UNL     1     -12.564   4.426   4.743  1.00  0.00     0.000 A 
ENDBRANCH  24  25
ENDBRANCH  23  24
BRANCH  23  31
ATOM     31  C   UNL     1     -12.344   5.137  -1.234  1.00  0.00     0.243 C 
ATOM     32  O   UNL     1     -12.592   4.675  -2.344  1.00  0.00    -0.273 OA
ATOM     33  N   UNL     1     -12.895   6.331  -0.800  1.00  0.00    -0.341 N 
ATOM     34  H   UNL     1     -12.646   6.670   0.133  1.00  0.00     0.164 HD
BRANCH  33  35
ATOM     35  C   UNL     1     -13.855   7.104  -1.594  1.00  0.00     0.194 C 
BRANCH  35  36
ATOM     36  C   UNL     1     -13.309   8.471  -2.095  1.00  0.00     0.017 C 
ATOM     37  C   UNL     1     -12.856   8.388  -3.563  1.00  0.00     0.010 C 
ATOM     38  C   UNL     1     -12.119   8.984  -1.275  1.00  0.00     0.010 C 
ENDBRANCH  35  36
BRANCH  35  39
ATOM     39  C   UNL     1     -15.232   7.252  -0.888  1.00  0.00     0.329 C 
ATOM     40  O   UNL     1     -15.675   6.451  -0.073  1.00  0.00    -0.250 OA
BRANCH  39  41
ATOM     41  O   UNL     1     -15.859   8.422  -1.213  1.00  0.00    -0.458 OA
BRANCH  41  42
ATOM     42  C   UNL     1     -16.509   9.125  -0.127  1.00  0.00     0.205 CG0
ATOM     43  C   UNL     1     -17.945   9.409  -0.564  1.00  0.00     0.056 C 
ATOM     44  G   UNL     1     -15.717  10.414   0.169  1.00  0.00     0.000 G0
ENDBRANCH  41  42
ENDBRANCH  39  41
ENDBRANCH  35  39
ENDBRANCH  33  35
ENDBRANCH  23  31
ENDBRANCH  21  23
ENDBRANCH  19  21
ENDBRANCH  14  19
ENDBRANCH   7  14
ENDBRANCH   2   5
BRANCH   3  45
ATOM     45  C   UNL     1      -7.803  -4.885   0.732  1.00  0.00     0.171 C 
BRANCH  45  46
ATOM     46  N   UNL     1      -6.928  -5.854   0.086  1.00  0.00    -0.342 N 
ATOM     47  C   UNL     1      -5.693  -6.180   0.588  1.00  0.00     0.247 C 
ATOM     48  O   UNL     1      -5.265  -5.734   1.653  1.00  0.00    -0.273 OA
ATOM     49  H   UNL     1      -7.267  -6.290  -0.769  1.00  0.00     0.164 HD
BRANCH  47  50
ATOM     50  C   UNL     1      -4.862  -7.125  -0.293  1.00  0.00     0.212 CG0
ATOM     51  G   UNL     1      -5.250  -8.570   0.078  1.00  0.00     0.000 G0
BRANCH  50  52
ATOM     52  N   UNL     1      -5.199  -6.772  -1.669  1.00  0.00    -0.339 N 
ATOM     53  C   UNL     1      -4.826  -5.588  -2.259  1.00  0.00     0.243 C 
ATOM     54  O   UNL     1      -4.222  -4.708  -1.652  1.00  0.00    -0.273 OA
ATOM     55  H   UNL     1      -5.795  -7.413  -2.189  1.00  0.00     0.164 HD
BRANCH  53  56
ATOM     56  C   UNL     1      -5.371  -5.401  -3.689  1.00  0.00     0.182 C 
BRANCH  56  57
ATOM     57  N   UNL     1      -4.288  -5.090  -4.628  1.00  0.00    -0.344 N 
ATOM     58  C   UNL     1      -3.654  -6.059  -5.367  1.00  0.00     0.220 C 
ATOM     59  O   UNL     1      -3.896  -7.254  -5.242  1.00  0.00    -0.275 OA
ATOM     60  H   UNL     1      -4.127  -4.108  -4.836  1.00  0.00     0.164 HD
BRANCH  58  61
ATOM     61  C   UNL     1      -2.607  -5.503  -6.315  1.00  0.00     0.100 C 
BRANCH  61  62
ATOM     62  C   UNL     1      -2.924  -5.741  -7.792  1.00  0.00     0.010 C 
BRANCH  62  63
ATOM     63  C   UNL     1      -4.196  -5.037  -8.282  1.00  0.00     0.000 C 
BRANCH  63  64
ATOM     64  C   UNL     1      -5.362  -5.981  -8.574  1.00  0.00    -0.003 C 
ATOM     65  C   UNL     1      -6.528  -5.732  -7.628  1.00  0.00     0.004 C 
ENDBRANCH  63  64
ENDBRANCH  62  63
ENDBRANCH  61  62
ENDBRANCH  58  61
ENDBRANCH  56  57
BRANCH  56  66
ATOM     66  C   UNL     1      -6.488  -4.360  -3.732  1.00  0.00     0.157 C 
BRANCH  66  67
ATOM     67  C   UNL     1      -7.828  -5.008  -3.927  1.00  0.00     0.305 C 
ATOM     68  O   UNL     1      -8.694  -4.675  -4.721  1.00  0.00    -0.252 OA
BRANCH  67  69
ATOM     69  O   UNL     1      -7.994  -6.088  -3.140  1.00  0.00    -0.481 OA
ATOM     70  H   UNL     1      -8.603  -6.671  -3.640  1.00  0.00     0.296 HD
ENDBRANCH  67  69
ENDBRANCH  66  67
ENDBRANCH  56  66
ENDBRANCH  53  56
ENDBRANCH  50  52
ENDBRANCH  47  50
ENDBRANCH  45  46
BRANCH  45  71
ATOM     71  C   UNL     1      -9.044  -5.555   1.333  1.00  0.00     0.037 C 
BRANCH  71  72
ATOM     72  C   UNL     1      -9.542  -4.827   2.584  1.00  0.00     0.026 C 
BRANCH  72  73
ATOM     73  C   UNL     1     -11.064  -4.888   2.699  1.00  0.00     0.146 C 
BRANCH  73  74
ATOM     74  N   UNL     1     -11.578  -3.530   2.544  1.00  0.00    -0.254 NA
ATOM     75  C   UNL     1     -11.998  -3.177   1.386  1.00  0.00     0.185 C 
ATOM     76  N   UNL     1     -12.478  -1.935   1.213  1.00  0.00    -0.370 N 
ATOM     77  N   UNL     1     -12.039  -3.892   0.248  1.00  0.00    -0.370 N 
ATOM     78  H   UNL     1     -12.476  -1.327   2.019  1.00  0.00     0.159 HD
ATOM     79  H   UNL     1     -12.688  -1.543   0.312  1.00  0.00     0.159 HD
ATOM     80  H   UNL     1     -11.714  -4.847   0.229  1.00  0.00     0.159 HD
ATOM     81  H   UNL     1     -12.500  -3.545  -0.577  1.00  0.00     0.159 HD
ENDBRANCH  73  74
ENDBRANCH  72  73
ENDBRANCH  71  72
ENDBRANCH  45  71
ENDBRANCH   3  45
TORSDOF 20
ENDMDL
MODEL 17
REMARK VINA RESULT:    -6.240      2.781      5.044
REMARK INTER + INTRA:         -23.991
REMARK INTER:                 -18.194
REMARK INTRA:                  -5.797
REMARK UNBOUND:                -6.078
REMARK SMILES CCCCCC(=O)N[C@H](CC(=O)O)C(=O)N[C@H]1C(=O)N[C@H](CCCN=C(N)N)C(=O)N[C@@H]2CC[C@H](O)N(C2=O)[C@@H](CC(C)C)C(=O)N(C)[C@@H](Cc2ccccc2)C(=O)N[C@H](C(C)C)C(=O)O[C@@H]1C
REMARK SMILES IDX 30 1 31 2 29 3 32 5 35 6 37 7 34 8 38 9 33 10 39 11 36 12
REMARK SMILES IDX 40 14 41 15 42 16 43 17 44 18 45 19 46 20 47 21 48 22 49 23
REMARK SMILES IDX 50 24 51 25 52 26 56 27 53 28 55 29 54 30 57 31 58 32 59 33
REMARK SMILES IDX 60 35 61 36 62 37 63 38 64 39 65 40 66 41 67 42 68 43 21 45
REMARK SMILES IDX 20 46 18 47 19 48 17 50 16 52 14 53 15 54 9 56 8 57 6 58
REMARK SMILES IDX 7 59 5 61 4 62 3 63 2 64 1 65 10 66 11 67 12 68 13 69 22 71
REMARK SMILES IDX 23 72 24 73 25 74 26 75 27 76 28 77
REMARK H PARENT 31 4 36 13 59 34 20 49 16 55 8 60 13 70 27 78 27 79 28 80
REMARK H PARENT 28 81
REMARK Flexibility Score:  259.900
ROOT
ATOM      1  O   UNL     1      -5.569  -5.078  -4.378  1.00  0.00    -0.273 OA
ATOM      2  N   UNL     1      -7.617  -5.387  -3.408  1.00  0.00    -0.343 N 
ATOM      3  C   UNL     1      -6.796  -5.009  -4.449  1.00  0.00     0.243 C 
ATOM      4  H   UNL     1      -8.623  -5.330  -3.508  1.00  0.00     0.164 HD
ENDROOT
BRANCH   2   5
ATOM      5  C   UNL     1      -7.053  -5.778  -2.121  1.00  0.00     0.171 C 
ATOM      6  C   UNL     1      -8.221  -6.933   0.267  1.00  0.00     0.214 C 
ATOM      7  N   UNL     1      -8.137  -5.497   0.141  1.00  0.00    -0.303 N 
ATOM      8  C   UNL     1      -7.108  -7.668  -0.464  1.00  0.00     0.057 C 
ATOM      9  C   UNL     1      -7.637  -4.879  -0.994  1.00  0.00     0.247 C 
ATOM     10  C   UNL     1      -7.122  -7.292  -1.929  1.00  0.00     0.040 C 
ATOM     11  O   UNL     1      -7.648  -3.649  -1.130  1.00  0.00    -0.272 OA
BRANCH   6  12
ATOM     12  O   UNL     1      -9.480  -7.335  -0.222  1.00  0.00    -0.373 OA
ATOM     13  H   UNL     1      -9.737  -8.141   0.275  1.00  0.00     0.213 HD
ENDBRANCH   6  12
BRANCH   7  14
ATOM     14  C   UNL     1      -8.746  -4.692   1.221  1.00  0.00     0.177 C 
BRANCH  14  15
ATOM     15  C   UNL     1     -10.251  -4.405   1.056  1.00  0.00     0.038 C 
BRANCH  15  16
ATOM     16  C   UNL     1     -10.706  -3.083   0.397  1.00  0.00    -0.015 C 
ATOM     17  C   UNL     1     -10.216  -1.850   1.162  1.00  0.00     0.007 C 
ATOM     18  C   UNL     1     -12.238  -3.034   0.337  1.00  0.00     0.007 C 
ENDBRANCH  15  16
ENDBRANCH  14  15
BRANCH  14  19
ATOM     19  C   UNL     1      -8.020  -4.971   2.582  1.00  0.00     0.245 C 
ATOM     20  O   UNL     1      -6.803  -4.728   2.626  1.00  0.00    -0.272 OA
BRANCH  19  21
ATOM     21  N   UNL     1      -8.629  -5.566   3.673  1.00  0.00    -0.332 N 
ATOM     22  C   UNL     1      -8.931  -6.980   3.802  1.00  0.00     0.147 C 
BRANCH  21  23
ATOM     23  C   UNL     1      -9.022  -4.692   4.813  1.00  0.00     0.178 C 
BRANCH  23  24
ATOM     24  C   UNL     1     -10.540  -4.616   5.075  1.00  0.00     0.070 C 
BRANCH  24  25
ATOM     25  C   UNL     1     -11.236  -3.323   4.719  1.00  0.00    -0.045 A 
ATOM     26  C   UNL     1     -12.498  -3.332   4.111  1.00  0.00     0.004 A 
ATOM     27  C   UNL     1     -10.622  -2.091   4.989  1.00  0.00     0.004 A 
ATOM     28  C   UNL     1     -13.128  -2.133   3.770  1.00  0.00     0.000 A 
ATOM     29  C   UNL     1     -11.253  -0.894   4.648  1.00  0.00     0.000 A 
ATOM     30  C   UNL     1     -12.504  -0.916   4.036  1.00  0.00     0.000 A 
ENDBRANCH  24  25
ENDBRANCH  23  24
BRANCH  23  31
ATOM     31  C   UNL     1      -8.153  -4.917   6.074  1.00  0.00     0.243 C 
ATOM     32  O   UNL     1      -6.945  -4.704   6.122  1.00  0.00    -0.273 OA
ATOM     33  N   UNL     1      -8.825  -5.560   7.100  1.00  0.00    -0.341 N 
ATOM     34  H   UNL     1      -9.831  -5.716   6.999  1.00  0.00     0.164 HD
BRANCH  33  35
ATOM     35  C   UNL     1      -8.170  -5.982   8.341  1.00  0.00     0.194 C 
BRANCH  35  36
ATOM     36  C   UNL     1      -7.881  -7.507   8.420  1.00  0.00     0.017 C 
ATOM     37  C   UNL     1      -6.496  -7.845   7.840  1.00  0.00     0.010 C 
ATOM     38  C   UNL     1      -8.913  -8.358   7.670  1.00  0.00     0.010 C 
ENDBRANCH  35  36
BRANCH  35  39
ATOM     39  C   UNL     1      -8.904  -5.464   9.610  1.00  0.00     0.329 C 
ATOM     40  O   UNL     1      -8.335  -5.010  10.595  1.00  0.00    -0.250 OA
BRANCH  39  41
ATOM     41  O   UNL     1     -10.265  -5.490   9.470  1.00  0.00    -0.458 OA
BRANCH  41  42
ATOM     42  C   UNL     1     -10.970  -6.486  10.249  1.00  0.00     0.205 CG0
ATOM     43  C   UNL     1     -11.981  -5.747  11.123  1.00  0.00     0.056 C 
ATOM     44  G   UNL     1      -9.942  -7.280  11.079  1.00  0.00     0.000 G0
ENDBRANCH  41  42
ENDBRANCH  39  41
ENDBRANCH  35  39
ENDBRANCH  33  35
ENDBRANCH  23  31
ENDBRANCH  21  23
ENDBRANCH  19  21
ENDBRANCH  14  19
ENDBRANCH   7  14
ENDBRANCH   2   5
BRANCH   3  45
ATOM     45  C   UNL     1      -7.518  -4.516  -5.710  1.00  0.00     0.171 C 
BRANCH  45  46
ATOM     46  N   UNL     1      -6.727  -5.002  -6.832  1.00  0.00    -0.342 N 
ATOM     47  C   UNL     1      -7.237  -5.107  -8.102  1.00  0.00     0.247 C 
ATOM     48  O   UNL     1      -8.372  -4.732  -8.400  1.00  0.00    -0.273 OA
ATOM     49  H   UNL     1      -5.763  -5.271  -6.641  1.00  0.00     0.164 HD
BRANCH  47  50
ATOM     50  C   UNL     1      -6.298  -5.756  -9.128  1.00  0.00     0.212 CG0
ATOM     51  G   UNL     1      -5.983  -4.700 -10.207  1.00  0.00     0.000 G0
BRANCH  50  52
ATOM     52  N   UNL     1      -5.122  -6.175  -8.370  1.00  0.00    -0.339 N 
ATOM     53  C   UNL     1      -4.948  -7.449  -7.887  1.00  0.00     0.243 C 
ATOM     54  O   UNL     1      -5.799  -8.326  -8.012  1.00  0.00    -0.273 OA
ATOM     55  H   UNL     1      -4.431  -5.464  -8.137  1.00  0.00     0.164 HD
BRANCH  53  56
ATOM     56  C   UNL     1      -3.671  -7.632  -7.043  1.00  0.00     0.182 C 
BRANCH  56  57
ATOM     57  N   UNL     1      -2.569  -6.823  -7.574  1.00  0.00    -0.344 N 
ATOM     58  C   UNL     1      -2.037  -5.760  -6.885  1.00  0.00     0.220 C 
ATOM     59  O   UNL     1      -2.493  -5.369  -5.816  1.00  0.00    -0.275 OA
ATOM     60  H   UNL     1      -2.098  -7.174  -8.404  1.00  0.00     0.164 HD
BRANCH  58  61
ATOM     61  C   UNL     1      -0.868  -5.106  -7.597  1.00  0.00     0.100 C 
BRANCH  61  62
ATOM     62  C   UNL     1      -1.283  -4.175  -8.737  1.00  0.00     0.010 C 
BRANCH  62  63
ATOM     63  C   UNL     1      -2.019  -2.910  -8.277  1.00  0.00     0.000 C 
BRANCH  63  64
ATOM     64  C   UNL     1      -1.177  -1.976  -7.409  1.00  0.00    -0.003 C 
ATOM     65  C   UNL     1      -2.005  -0.814  -6.880  1.00  0.00     0.004 C 
ENDBRANCH  63  64
ENDBRANCH  62  63
ENDBRANCH  61  62
ENDBRANCH  58  61
ENDBRANCH  56  57
BRANCH  56  66
ATOM     66  C   UNL     1      -3.292  -9.106  -6.911  1.00  0.00     0.157 C 
BRANCH  66  67
ATOM     67  C   UNL     1      -2.418  -9.547  -8.050  1.00  0.00     0.305 C 
ATOM     68  O   UNL     1      -2.370  -9.058  -9.168  1.00  0.00    -0.252 OA
BRANCH  67  69
ATOM     69  O   UNL     1      -1.602 -10.561  -7.706  1.00  0.00    -0.481 OA
ATOM     70  H   UNL     1      -2.105 -11.373  -7.927  1.00  0.00     0.296 HD
ENDBRANCH  67  69
ENDBRANCH  66  67
ENDBRANCH  56  66
ENDBRANCH  53  56
ENDBRANCH  50  52
ENDBRANCH  47  50
ENDBRANCH  45  46
BRANCH  45  71
ATOM     71  C   UNL     1      -7.614  -2.986  -5.707  1.00  0.00     0.037 C 
BRANCH  71  72
ATOM     72  C   UNL     1      -6.568  -2.345  -4.792  1.00  0.00     0.026 C 
BRANCH  72  73
ATOM     73  C   UNL     1      -7.189  -1.284  -3.886  1.00  0.00     0.146 C 
BRANCH  73  74
ATOM     74  N   UNL     1      -6.105  -0.607  -3.182  1.00  0.00    -0.254 NA
ATOM     75  C   UNL     1      -6.255  -0.378  -1.929  1.00  0.00     0.185 C 
ATOM     76  N   UNL     1      -5.274   0.243  -1.254  1.00  0.00    -0.370 N 
ATOM     77  N   UNL     1      -7.297  -0.678  -1.134  1.00  0.00    -0.370 N 
ATOM     78  H   UNL     1      -4.455   0.510  -1.780  1.00  0.00     0.159 HD
ATOM     79  H   UNL     1      -5.378   0.582  -0.314  1.00  0.00     0.159 HD
ATOM     80  H   UNL     1      -8.107  -1.151  -1.506  1.00  0.00     0.159 HD
ATOM     81  H   UNL     1      -7.253  -0.552  -0.137  1.00  0.00     0.159 HD
ENDBRANCH  73  74
ENDBRANCH  72  73
ENDBRANCH  71  72
ENDBRANCH  45  71
ENDBRANCH   3  45
TORSDOF 20
ENDMDL
MODEL 18
REMARK VINA RESULT:    -6.232      4.361      7.864
REMARK INTER + INTRA:         -23.968
REMARK INTER:                 -17.001
REMARK INTRA:                  -6.967
REMARK UNBOUND:                -6.078
REMARK SMILES CCCCCC(=O)N[C@H](CC(=O)O)C(=O)N[C@H]1C(=O)N[C@H](CCCN=C(N)N)C(=O)N[C@@H]2CC[C@H](O)N(C2=O)[C@@H](CC(C)C)C(=O)N(C)[C@@H](Cc2ccccc2)C(=O)N[C@H](C(C)C)C(=O)O[C@@H]1C
REMARK SMILES IDX 30 1 31 2 29 3 32 5 35 6 37 7 34 8 38 9 33 10 39 11 36 12
REMARK SMILES IDX 40 14 41 15 42 16 43 17 44 18 45 19 46 20 47 21 48 22 49 23
REMARK SMILES IDX 50 24 51 25 52 26 56 27 53 28 55 29 54 30 57 31 58 32 59 33
REMARK SMILES IDX 60 35 61 36 62 37 63 38 64 39 65 40 66 41 67 42 68 43 21 45
REMARK SMILES IDX 20 46 18 47 19 48 17 50 16 52 14 53 15 54 9 56 8 57 6 58
REMARK SMILES IDX 7 59 5 61 4 62 3 63 2 64 1 65 10 66 11 67 12 68 13 69 22 71
REMARK SMILES IDX 23 72 24 73 25 74 26 75 27 76 28 77
REMARK H PARENT 31 4 36 13 59 34 20 49 16 55 8 60 13 70 27 78 27 79 28 80
REMARK H PARENT 28 81
REMARK Flexibility Score:  259.900
ROOT
ATOM      1  O   UNL     1      -9.352  -5.353  -0.501  1.00  0.00    -0.273 OA
ATOM      2  N   UNL     1      -7.412  -4.723   0.534  1.00  0.00    -0.343 N 
ATOM      3  C   UNL     1      -8.123  -5.272  -0.511  1.00  0.00     0.243 C 
ATOM      4  H   UNL     1      -6.403  -4.660   0.485  1.00  0.00     0.164 HD
ENDROOT
BRANCH   2   5
ATOM      5  C   UNL     1      -8.089  -4.320   1.762  1.00  0.00     0.171 C 
ATOM      6  C   UNL     1     -10.883  -4.240   2.529  1.00  0.00     0.214 C 
ATOM      7  N   UNL     1     -10.278  -3.074   1.928  1.00  0.00    -0.303 N 
ATOM      8  C   UNL     1      -9.902  -5.083   3.328  1.00  0.00     0.057 C 
ATOM      9  C   UNL     1      -8.963  -3.061   1.493  1.00  0.00     0.247 C 
ATOM     10  C   UNL     1      -8.756  -5.516   2.439  1.00  0.00     0.040 C 
ATOM     11  O   UNL     1      -8.478  -2.088   0.901  1.00  0.00    -0.272 OA
BRANCH   6  12
ATOM     12  O   UNL     1     -11.463  -5.004   1.497  1.00  0.00    -0.373 OA
ATOM     13  H   UNL     1     -11.015  -4.748   0.663  1.00  0.00     0.213 HD
ENDBRANCH   6  12
BRANCH   7  14
ATOM     14  C   UNL     1     -11.165  -1.923   1.657  1.00  0.00     0.177 C 
BRANCH  14  15
ATOM     15  C   UNL     1     -12.490  -2.269   0.950  1.00  0.00     0.038 C 
BRANCH  15  16
ATOM     16  C   UNL     1     -12.591  -2.135  -0.586  1.00  0.00    -0.015 C 
ATOM     17  C   UNL     1     -11.289  -1.631  -1.215  1.00  0.00     0.007 C 
ATOM     18  C   UNL     1     -13.712  -1.152  -0.948  1.00  0.00     0.007 C 
ENDBRANCH  15  16
ENDBRANCH  14  15
BRANCH  14  19
ATOM     19  C   UNL     1     -10.986  -0.826   2.762  1.00  0.00     0.245 C 
ATOM     20  O   UNL     1     -11.786  -0.853   3.712  1.00  0.00    -0.272 OA
BRANCH  19  21
ATOM     21  N   UNL     1     -10.076   0.213   2.677  1.00  0.00    -0.332 N 
ATOM     22  C   UNL     1      -9.036   0.504   3.647  1.00  0.00     0.147 C 
BRANCH  21  23
ATOM     23  C   UNL     1     -10.167   1.123   1.502  1.00  0.00     0.178 C 
BRANCH  23  24
ATOM     24  C   UNL     1     -10.904   2.451   1.770  1.00  0.00     0.070 C 
BRANCH  24  25
ATOM     25  C   UNL     1     -10.827   3.510   0.695  1.00  0.00    -0.045 A 
ATOM     26  C   UNL     1     -11.597   3.407  -0.471  1.00  0.00     0.004 A 
ATOM     27  C   UNL     1      -9.975   4.614   0.849  1.00  0.00     0.004 A 
ATOM     28  C   UNL     1     -11.507   4.381  -1.468  1.00  0.00     0.000 A 
ATOM     29  C   UNL     1      -9.888   5.588  -0.148  1.00  0.00     0.000 A 
ATOM     30  C   UNL     1     -10.652   5.469  -1.306  1.00  0.00     0.000 A 
ENDBRANCH  24  25
ENDBRANCH  23  24
BRANCH  23  31
ATOM     31  C   UNL     1      -8.827   1.264   0.742  1.00  0.00     0.243 C 
ATOM     32  O   UNL     1      -7.831   1.817   1.202  1.00  0.00    -0.273 OA
ATOM     33  N   UNL     1      -8.900   0.873  -0.585  1.00  0.00    -0.341 N 
ATOM     34  H   UNL     1      -9.758   0.423  -0.911  1.00  0.00     0.164 HD
BRANCH  33  35
ATOM     35  C   UNL     1      -7.787   1.029  -1.525  1.00  0.00     0.194 C 
BRANCH  35  36
ATOM     36  C   UNL     1      -8.124   1.898  -2.770  1.00  0.00     0.017 C 
ATOM     37  C   UNL     1      -7.740   3.370  -2.544  1.00  0.00     0.010 C 
ATOM     38  C   UNL     1      -9.611   1.863  -3.146  1.00  0.00     0.010 C 
ENDBRANCH  35  36
BRANCH  35  39
ATOM     39  C   UNL     1      -7.146  -0.330  -1.923  1.00  0.00     0.329 C 
ATOM     40  O   UNL     1      -6.222  -0.858  -1.314  1.00  0.00    -0.250 OA
BRANCH  39  41
ATOM     41  O   UNL     1      -7.785  -0.917  -2.980  1.00  0.00    -0.458 OA
BRANCH  41  42
ATOM     42  C   UNL     1      -6.937  -1.475  -4.013  1.00  0.00     0.205 CG0
ATOM     43  C   UNL     1      -7.071  -0.580  -5.243  1.00  0.00     0.056 C 
ATOM     44  G   UNL     1      -7.386  -2.924  -4.287  1.00  0.00     0.000 G0
ENDBRANCH  41  42
ENDBRANCH  39  41
ENDBRANCH  35  39
ENDBRANCH  33  35
ENDBRANCH  23  31
ENDBRANCH  21  23
ENDBRANCH  19  21
ENDBRANCH  14  19
ENDBRANCH   7  14
ENDBRANCH   2   5
BRANCH   3  45
ATOM     45  C   UNL     1      -7.279  -5.755  -1.698  1.00  0.00     0.171 C 
BRANCH  45  46
ATOM     46  N   UNL     1      -7.618  -4.873  -2.807  1.00  0.00    -0.342 N 
ATOM     47  C   UNL     1      -6.798  -3.850  -3.212  1.00  0.00     0.247 C 
ATOM     48  O   UNL     1      -5.687  -3.649  -2.718  1.00  0.00    -0.273 OA
ATOM     49  H   UNL     1      -8.504  -5.040  -3.281  1.00  0.00     0.164 HD
BRANCH  47  50
ATOM     50  C   UNL     1      -7.376  -2.950  -4.313  1.00  0.00     0.212 CG0
ATOM     51  G   UNL     1      -6.929  -1.504  -4.017  1.00  0.00     0.000 G0
BRANCH  50  52
ATOM     52  N   UNL     1      -6.840  -3.474  -5.566  1.00  0.00    -0.339 N 
ATOM     53  C   UNL     1      -7.425  -4.500  -6.267  1.00  0.00     0.243 C 
ATOM     54  O   UNL     1      -8.421  -5.094  -5.864  1.00  0.00    -0.273 OA
ATOM     55  H   UNL     1      -5.953  -3.097  -5.896  1.00  0.00     0.164 HD
BRANCH  53  56
ATOM     56  C   UNL     1      -6.632  -4.940  -7.515  1.00  0.00     0.182 C 
BRANCH  56  57
ATOM     57  N   UNL     1      -5.543  -5.853  -7.152  1.00  0.00    -0.344 N 
ATOM     58  C   UNL     1      -5.487  -7.149  -7.605  1.00  0.00     0.220 C 
ATOM     59  O   UNL     1      -6.376  -7.654  -8.282  1.00  0.00    -0.275 OA
ATOM     60  H   UNL     1      -4.740  -5.447  -6.679  1.00  0.00     0.164 HD
BRANCH  58  61
ATOM     61  C   UNL     1      -4.244  -7.891  -7.151  1.00  0.00     0.100 C 
BRANCH  61  62
ATOM     62  C   UNL     1      -3.004  -7.587  -7.992  1.00  0.00     0.010 C 
BRANCH  62  63
ATOM     63  C   UNL     1      -1.714  -7.434  -7.176  1.00  0.00     0.000 C 
BRANCH  63  64
ATOM     64  C   UNL     1      -1.262  -5.987  -6.985  1.00  0.00    -0.003 C 
ATOM     65  C   UNL     1      -1.864  -5.378  -5.726  1.00  0.00     0.004 C 
ENDBRANCH  63  64
ENDBRANCH  62  63
ENDBRANCH  61  62
ENDBRANCH  58  61
ENDBRANCH  56  57
BRANCH  56  66
ATOM     66  C   UNL     1      -6.133  -3.738  -8.314  1.00  0.00     0.157 C 
BRANCH  66  67
ATOM     67  C   UNL     1      -4.655  -3.826  -8.565  1.00  0.00     0.305 C 
ATOM     68  O   UNL     1      -3.765  -3.359  -7.872  1.00  0.00    -0.252 OA
BRANCH  67  69
ATOM     69  O   UNL     1      -4.366  -4.552  -9.662  1.00  0.00    -0.481 OA
ATOM     70  H   UNL     1      -3.628  -4.071 -10.093  1.00  0.00     0.296 HD
ENDBRANCH  67  69
ENDBRANCH  66  67
ENDBRANCH  56  66
ENDBRANCH  53  56
ENDBRANCH  50  52
ENDBRANCH  47  50
ENDBRANCH  45  46
BRANCH  45  71
ATOM     71  C   UNL     1      -7.601  -7.219  -2.021  1.00  0.00     0.037 C 
BRANCH  71  72
ATOM     72  C   UNL     1      -6.793  -8.190  -1.156  1.00  0.00     0.026 C 
BRANCH  72  73
ATOM     73  C   UNL     1      -5.426  -7.613  -0.793  1.00  0.00     0.146 C 
BRANCH  73  74
ATOM     74  N   UNL     1      -4.430  -8.254  -1.646  1.00  0.00    -0.254 NA
ATOM     75  C   UNL     1      -3.888  -7.548  -2.569  1.00  0.00     0.185 C 
ATOM     76  N   UNL     1      -2.967  -8.110  -3.369  1.00  0.00    -0.370 N 
ATOM     77  N   UNL     1      -4.106  -6.260  -2.885  1.00  0.00    -0.370 N 
ATOM     78  H   UNL     1      -2.749  -9.082  -3.203  1.00  0.00     0.159 HD
ATOM     79  H   UNL     1      -2.610  -7.668  -4.197  1.00  0.00     0.159 HD
ATOM     80  H   UNL     1      -4.771  -5.709  -2.365  1.00  0.00     0.159 HD
ATOM     81  H   UNL     1      -3.535  -5.778  -3.560  1.00  0.00     0.159 HD
ENDBRANCH  73  74
ENDBRANCH  72  73
ENDBRANCH  71  72
ENDBRANCH  45  71
ENDBRANCH   3  45
TORSDOF 20
ENDMDL
MODEL 19
REMARK VINA RESULT:    -6.188      6.721     12.808
REMARK INTER + INTRA:         -23.842
REMARK INTER:                 -16.848
REMARK INTRA:                  -6.994
REMARK UNBOUND:                -6.078
REMARK SMILES CCCCCC(=O)N[C@H](CC(=O)O)C(=O)N[C@H]1C(=O)N[C@H](CCCN=C(N)N)C(=O)N[C@@H]2CC[C@H](O)N(C2=O)[C@@H](CC(C)C)C(=O)N(C)[C@@H](Cc2ccccc2)C(=O)N[C@H](C(C)C)C(=O)O[C@@H]1C
REMARK SMILES IDX 30 1 31 2 29 3 32 5 35 6 37 7 34 8 38 9 33 10 39 11 36 12
REMARK SMILES IDX 40 14 41 15 42 16 43 17 44 18 45 19 46 20 47 21 48 22 49 23
REMARK SMILES IDX 50 24 51 25 52 26 56 27 53 28 55 29 54 30 57 31 58 32 59 33
REMARK SMILES IDX 60 35 61 36 62 37 63 38 64 39 65 40 66 41 67 42 68 43 21 45
REMARK SMILES IDX 20 46 18 47 19 48 17 50 16 52 14 53 15 54 9 56 8 57 6 58
REMARK SMILES IDX 7 59 5 61 4 62 3 63 2 64 1 65 10 66 11 67 12 68 13 69 22 71
REMARK SMILES IDX 23 72 24 73 25 74 26 75 27 76 28 77
REMARK H PARENT 31 4 36 13 59 34 20 49 16 55 8 60 13 70 27 78 27 79 28 80
REMARK H PARENT 28 81
REMARK Flexibility Score:  259.900
ROOT
ATOM      1  O   UNL     1      -9.722  -3.836  -0.837  1.00  0.00    -0.273 OA
ATOM      2  N   UNL     1      -8.227  -2.335   0.026  1.00  0.00    -0.343 N 
ATOM      3  C   UNL     1      -9.151  -3.351   0.141  1.00  0.00     0.243 C 
ATOM      4  H   UNL     1      -7.767  -1.971   0.851  1.00  0.00     0.164 HD
ENDROOT
BRANCH   2   5
ATOM      5  C   UNL     1      -7.974  -1.704  -1.265  1.00  0.00     0.171 C 
ATOM      6  C   UNL     1      -6.725   0.802  -2.015  1.00  0.00     0.214 C 
ATOM      7  N   UNL     1      -8.152   0.758  -1.793  1.00  0.00    -0.303 N 
ATOM      8  C   UNL     1      -6.154  -0.511  -2.525  1.00  0.00     0.057 C 
ATOM      9  C   UNL     1      -8.804  -0.394  -1.384  1.00  0.00     0.247 C 
ATOM     10  C   UNL     1      -6.475  -1.623  -1.550  1.00  0.00     0.040 C 
ATOM     11  O   UNL     1     -10.012  -0.403  -1.112  1.00  0.00    -0.272 OA
BRANCH   6  12
ATOM     12  O   UNL     1      -6.112   1.167  -0.800  1.00  0.00    -0.373 OA
ATOM     13  H   UNL     1      -6.378   2.092  -0.610  1.00  0.00     0.213 HD
ENDBRANCH   6  12
BRANCH   7  14
ATOM     14  C   UNL     1      -8.884   2.039  -1.878  1.00  0.00     0.177 C 
BRANCH  14  15
ATOM     15  C   UNL     1      -8.827   2.912  -0.609  1.00  0.00     0.038 C 
BRANCH  15  16
ATOM     16  C   UNL     1      -9.645   2.502   0.635  1.00  0.00    -0.015 C 
ATOM     17  C   UNL     1     -10.244   3.708   1.365  1.00  0.00     0.007 C 
ATOM     18  C   UNL     1      -8.747   1.742   1.619  1.00  0.00     0.007 C 
ENDBRANCH  15  16
ENDBRANCH  14  15
BRANCH  14  19
ATOM     19  C   UNL     1      -8.870   2.577  -3.350  1.00  0.00     0.245 C 
ATOM     20  O   UNL     1      -9.284   1.805  -4.231  1.00  0.00    -0.272 OA
BRANCH  19  21
ATOM     21  N   UNL     1      -8.329   3.794  -3.722  1.00  0.00    -0.332 N 
ATOM     22  C   UNL     1      -7.002   4.268  -3.372  1.00  0.00     0.147 C 
BRANCH  21  23
ATOM     23  C   UNL     1      -9.171   4.710  -4.540  1.00  0.00     0.178 C 
BRANCH  23  24
ATOM     24  C   UNL     1      -9.615   5.998  -3.816  1.00  0.00     0.070 C 
BRANCH  24  25
ATOM     25  C   UNL     1     -10.669   5.856  -2.743  1.00  0.00    -0.045 A 
ATOM     26  C   UNL     1     -10.628   6.647  -1.587  1.00  0.00     0.004 A 
ATOM     27  C   UNL     1     -11.706   4.922  -2.888  1.00  0.00     0.004 A 
ATOM     28  C   UNL     1     -11.596   6.498  -0.592  1.00  0.00     0.000 A 
ATOM     29  C   UNL     1     -12.673   4.774  -1.893  1.00  0.00     0.000 A 
ATOM     30  C   UNL     1     -12.616   5.561  -0.744  1.00  0.00     0.000 A 
ENDBRANCH  24  25
ENDBRANCH  23  24
BRANCH  23  31
ATOM     31  C   UNL     1      -8.619   4.923  -5.969  1.00  0.00     0.243 C 
ATOM     32  O   UNL     1      -8.512   4.030  -6.805  1.00  0.00    -0.273 OA
ATOM     33  N   UNL     1      -8.076   6.181  -6.170  1.00  0.00    -0.341 N 
ATOM     34  H   UNL     1      -8.191   6.883  -5.435  1.00  0.00     0.164 HD
BRANCH  33  35
ATOM     35  C   UNL     1      -7.390   6.567  -7.407  1.00  0.00     0.194 C 
BRANCH  35  36
ATOM     36  C   UNL     1      -5.866   6.819  -7.235  1.00  0.00     0.017 C 
ATOM     37  C   UNL     1      -5.040   5.887  -8.140  1.00  0.00     0.010 C 
ATOM     38  C   UNL     1      -5.377   6.613  -5.796  1.00  0.00     0.010 C 
ENDBRANCH  35  36
BRANCH  35  39
ATOM     39  C   UNL     1      -8.094   7.744  -8.138  1.00  0.00     0.329 C 
ATOM     40  O   UNL     1      -9.295   7.783  -8.378  1.00  0.00    -0.250 OA
BRANCH  39  41
ATOM     41  O   UNL     1      -7.237   8.774  -8.410  1.00  0.00    -0.458 OA
BRANCH  41  42
ATOM     42  C   UNL     1      -7.210   9.242  -9.780  1.00  0.00     0.205 CG0
ATOM     43  C   UNL     1      -5.745   9.451 -10.159  1.00  0.00     0.056 C 
ATOM     44  G   UNL     1      -8.034  10.541  -9.873  1.00  0.00     0.000 G0
ENDBRANCH  41  42
ENDBRANCH  39  41
ENDBRANCH  35  39
ENDBRANCH  33  35
ENDBRANCH  23  31
ENDBRANCH  21  23
ENDBRANCH  19  21
ENDBRANCH  14  19
ENDBRANCH   7  14
ENDBRANCH   2   5
BRANCH   3  45
ATOM     45  C   UNL     1      -9.403  -3.852   1.570  1.00  0.00     0.171 C 
BRANCH  45  46
ATOM     46  N   UNL     1      -8.498  -4.978   1.758  1.00  0.00    -0.342 N 
ATOM     47  C   UNL     1      -7.237  -4.830   2.280  1.00  0.00     0.247 C 
ATOM     48  O   UNL     1      -6.807  -3.752   2.693  1.00  0.00    -0.273 OA
ATOM     49  H   UNL     1      -8.835  -5.898   1.481  1.00  0.00     0.164 HD
BRANCH  47  50
ATOM     50  C   UNL     1      -6.383  -6.105   2.287  1.00  0.00     0.212 CG0
ATOM     51  G   UNL     1      -6.990  -7.068   3.327  1.00  0.00     0.000 G0
BRANCH  50  52
ATOM     52  N   UNL     1      -6.440  -6.621   0.922  1.00  0.00    -0.339 N 
ATOM     53  C   UNL     1      -5.713  -6.092  -0.117  1.00  0.00     0.243 C 
ATOM     54  O   UNL     1      -4.994  -5.105   0.014  1.00  0.00    -0.273 OA
ATOM     55  H   UNL     1      -7.103  -7.368   0.726  1.00  0.00     0.164 HD
BRANCH  53  56
ATOM     56  C   UNL     1      -6.003  -6.746  -1.483  1.00  0.00     0.182 C 
BRANCH  56  57
ATOM     57  N   UNL     1      -6.474  -5.752  -2.453  1.00  0.00    -0.344 N 
ATOM     58  C   UNL     1      -6.048  -5.739  -3.759  1.00  0.00     0.220 C 
ATOM     59  O   UNL     1      -5.194  -6.508  -4.186  1.00  0.00    -0.275 OA
ATOM     60  H   UNL     1      -7.253  -5.164  -2.169  1.00  0.00     0.164 HD
BRANCH  58  61
ATOM     61  C   UNL     1      -6.710  -4.660  -4.596  1.00  0.00     0.100 C 
BRANCH  61  62
ATOM     62  C   UNL     1      -5.777  -4.018  -5.623  1.00  0.00     0.010 C 
BRANCH  62  63
ATOM     63  C   UNL     1      -6.354  -3.958  -7.043  1.00  0.00     0.000 C 
BRANCH  63  64
ATOM     64  C   UNL     1      -5.376  -4.385  -8.137  1.00  0.00    -0.003 C 
ATOM     65  C   UNL     1      -4.344  -5.369  -7.605  1.00  0.00     0.004 C 
ENDBRANCH  63  64
ENDBRANCH  62  63
ENDBRANCH  61  62
ENDBRANCH  58  61
ENDBRANCH  56  57
BRANCH  56  66
ATOM     66  C   UNL     1      -6.969  -7.921  -1.347  1.00  0.00     0.157 C 
BRANCH  66  67
ATOM     67  C   UNL     1      -8.393  -7.480  -1.533  1.00  0.00     0.305 C 
ATOM     68  O   UNL     1      -9.082  -6.872  -0.728  1.00  0.00    -0.252 OA
BRANCH  67  69
ATOM     69  O   UNL     1      -8.867  -7.783  -2.756  1.00  0.00    -0.481 OA
ATOM     70  H   UNL     1      -8.172  -7.479  -3.377  1.00  0.00     0.296 HD
ENDBRANCH  67  69
ENDBRANCH  66  67
ENDBRANCH  56  66
ENDBRANCH  53  56
ENDBRANCH  50  52
ENDBRANCH  47  50
ENDBRANCH  45  46
BRANCH  45  71
ATOM     71  C   UNL     1     -10.868  -4.269   1.738  1.00  0.00     0.037 C 
BRANCH  71  72
ATOM     72  C   UNL     1     -11.671  -3.243   2.542  1.00  0.00     0.026 C 
BRANCH  72  73
ATOM     73  C   UNL     1     -12.871  -2.727   1.751  1.00  0.00     0.146 C 
BRANCH  73  74
ATOM     74  N   UNL     1     -12.379  -2.216   0.475  1.00  0.00    -0.254 NA
ATOM     75  C   UNL     1     -13.218  -2.098  -0.487  1.00  0.00     0.185 C 
ATOM     76  N   UNL     1     -12.796  -1.629  -1.672  1.00  0.00    -0.370 N 
ATOM     77  N   UNL     1     -14.532  -2.384  -0.502  1.00  0.00    -0.370 N 
ATOM     78  H   UNL     1     -11.816  -1.396  -1.749  1.00  0.00     0.159 HD
ATOM     79  H   UNL     1     -13.357  -1.645  -2.506  1.00  0.00     0.159 HD
ATOM     80  H   UNL     1     -14.989  -2.742   0.323  1.00  0.00     0.159 HD
ATOM     81  H   UNL     1     -15.116  -2.140  -1.284  1.00  0.00     0.159 HD
ENDBRANCH  73  74
ENDBRANCH  72  73
ENDBRANCH  71  72
ENDBRANCH  45  71
ENDBRANCH   3  45
TORSDOF 20
ENDMDL
MODEL 20
REMARK VINA RESULT:    -6.144      6.010      9.641
REMARK INTER + INTRA:         -23.715
REMARK INTER:                 -18.355
REMARK INTRA:                  -5.360
REMARK UNBOUND:                -6.078
REMARK SMILES CCCCCC(=O)N[C@H](CC(=O)O)C(=O)N[C@H]1C(=O)N[C@H](CCCN=C(N)N)C(=O)N[C@@H]2CC[C@H](O)N(C2=O)[C@@H](CC(C)C)C(=O)N(C)[C@@H](Cc2ccccc2)C(=O)N[C@H](C(C)C)C(=O)O[C@@H]1C
REMARK SMILES IDX 30 1 31 2 29 3 32 5 35 6 37 7 34 8 38 9 33 10 39 11 36 12
REMARK SMILES IDX 40 14 41 15 42 16 43 17 44 18 45 19 46 20 47 21 48 22 49 23
REMARK SMILES IDX 50 24 51 25 52 26 56 27 53 28 55 29 54 30 57 31 58 32 59 33
REMARK SMILES IDX 60 35 61 36 62 37 63 38 64 39 65 40 66 41 67 42 68 43 21 45
REMARK SMILES IDX 20 46 18 47 19 48 17 50 16 52 14 53 15 54 9 56 8 57 6 58
REMARK SMILES IDX 7 59 5 61 4 62 3 63 2 64 1 65 10 66 11 67 12 68 13 69 22 71
REMARK SMILES IDX 23 72 24 73 25 74 26 75 27 76 28 77
REMARK H PARENT 31 4 36 13 59 34 20 49 16 55 8 60 13 70 27 78 27 79 28 80
REMARK H PARENT 28 81
REMARK Flexibility Score:  259.900
ROOT
ATOM      1  O   UNL     1      -6.963  -5.375  -4.830  1.00  0.00    -0.273 OA
ATOM      2  N   UNL     1      -6.300  -3.563  -3.601  1.00  0.00    -0.343 N 
ATOM      3  C   UNL     1      -6.224  -4.888  -3.973  1.00  0.00     0.243 C 
ATOM      4  H   UNL     1      -5.666  -3.194  -2.903  1.00  0.00     0.164 HD
ENDROOT
BRANCH   2   5
ATOM      5  C   UNL     1      -7.353  -2.703  -4.129  1.00  0.00     0.171 C 
ATOM      6  C   UNL     1      -8.047   0.071  -3.652  1.00  0.00     0.214 C 
ATOM      7  N   UNL     1      -8.654  -0.962  -2.845  1.00  0.00    -0.303 N 
ATOM      8  C   UNL     1      -7.696  -0.391  -5.058  1.00  0.00     0.057 C 
ATOM      9  C   UNL     1      -8.329  -2.301  -2.987  1.00  0.00     0.247 C 
ATOM     10  C   UNL     1      -6.767  -1.583  -4.988  1.00  0.00     0.040 C 
ATOM     11  O   UNL     1      -8.788  -3.171  -2.234  1.00  0.00    -0.272 OA
BRANCH   6  12
ATOM     12  O   UNL     1      -6.894   0.521  -2.979  1.00  0.00    -0.373 OA
ATOM     13  H   UNL     1      -7.130   0.608  -2.031  1.00  0.00     0.213 HD
ENDBRANCH   6  12
BRANCH   7  14
ATOM     14  C   UNL     1      -9.540  -0.521  -1.747  1.00  0.00     0.177 C 
BRANCH  14  15
ATOM     15  C   UNL     1      -8.973   0.601  -0.857  1.00  0.00     0.038 C 
BRANCH  15  16
ATOM     16  C   UNL     1      -8.877   0.387   0.670  1.00  0.00    -0.015 C 
ATOM     17  C   UNL     1     -10.227   0.020   1.294  1.00  0.00     0.007 C 
ATOM     18  C   UNL     1      -8.369   1.668   1.343  1.00  0.00     0.007 C 
ENDBRANCH  15  16
ENDBRANCH  14  15
BRANCH  14  19
ATOM     19  C   UNL     1     -11.043  -0.674  -2.167  1.00  0.00     0.245 C 
ATOM     20  O   UNL     1     -11.682  -1.595  -1.631  1.00  0.00    -0.272 OA
BRANCH  19  21
ATOM     21  N   UNL     1     -11.646   0.074  -3.162  1.00  0.00    -0.332 N 
ATOM     22  C   UNL     1     -11.479  -0.133  -4.590  1.00  0.00     0.147 C 
BRANCH  21  23
ATOM     23  C   UNL     1     -12.534   1.196  -2.749  1.00  0.00     0.178 C 
BRANCH  23  24
ATOM     24  C   UNL     1     -11.883   2.593  -2.815  1.00  0.00     0.070 C 
BRANCH  24  25
ATOM     25  C   UNL     1     -11.419   3.199  -1.511  1.00  0.00    -0.045 A 
ATOM     26  C   UNL     1     -12.059   2.884  -0.306  1.00  0.00     0.004 A 
ATOM     27  C   UNL     1     -10.339   4.094  -1.492  1.00  0.00     0.004 A 
ATOM     28  C   UNL     1     -11.635   3.461   0.893  1.00  0.00     0.000 A 
ATOM     29  C   UNL     1      -9.915   4.669  -0.293  1.00  0.00     0.000 A 
ATOM     30  C   UNL     1     -10.566   4.354   0.898  1.00  0.00     0.000 A 
ENDBRANCH  24  25
ENDBRANCH  23  24
BRANCH  23  31
ATOM     31  C   UNL     1     -13.948   1.106  -3.369  1.00  0.00     0.243 C 
ATOM     32  O   UNL     1     -14.690   0.134  -3.250  1.00  0.00    -0.273 OA
ATOM     33  N   UNL     1     -14.241   2.148  -4.233  1.00  0.00    -0.341 N 
ATOM     34  H   UNL     1     -13.581   2.927  -4.294  1.00  0.00     0.164 HD
BRANCH  33  35
ATOM     35  C   UNL     1     -15.474   2.208  -5.023  1.00  0.00     0.194 C 
BRANCH  35  36
ATOM     36  C   UNL     1     -15.241   2.403  -6.548  1.00  0.00     0.017 C 
ATOM     37  C   UNL     1     -16.527   2.865  -7.255  1.00  0.00     0.010 C 
ATOM     38  C   UNL     1     -14.762   1.129  -7.254  1.00  0.00     0.010 C 
ENDBRANCH  35  36
BRANCH  35  39
ATOM     39  C   UNL     1     -16.498   3.231  -4.457  1.00  0.00     0.329 C 
ATOM     40  O   UNL     1     -16.285   4.434  -4.362  1.00  0.00    -0.250 OA
BRANCH  39  41
ATOM     41  O   UNL     1     -17.699   2.652  -4.154  1.00  0.00    -0.458 OA
BRANCH  41  42
ATOM     42  C   UNL     1     -18.546   3.377  -3.231  1.00  0.00     0.205 CG0
ATOM     43  C   UNL     1     -18.459   2.667  -1.882  1.00  0.00     0.056 C 
ATOM     44  G   UNL     1     -19.981   3.398  -3.794  1.00  0.00     0.000 G0
ENDBRANCH  41  42
ENDBRANCH  39  41
ENDBRANCH  35  39
ENDBRANCH  33  35
ENDBRANCH  23  31
ENDBRANCH  21  23
ENDBRANCH  19  21
ENDBRANCH  14  19
ENDBRANCH   7  14
ENDBRANCH   2   5
BRANCH   3  45
ATOM     45  C   UNL     1      -5.140  -5.709  -3.262  1.00  0.00     0.171 C 
BRANCH  45  46
ATOM     46  N   UNL     1      -4.241  -6.168  -4.313  1.00  0.00    -0.342 N 
ATOM     47  C   UNL     1      -2.876  -6.148  -4.174  1.00  0.00     0.247 C 
ATOM     48  O   UNL     1      -2.315  -5.812  -3.130  1.00  0.00    -0.273 OA
ATOM     49  H   UNL     1      -4.666  -6.508  -5.174  1.00  0.00     0.164 HD
BRANCH  47  50
ATOM     50  C   UNL     1      -2.089  -6.551  -5.429  1.00  0.00     0.212 CG0
ATOM     51  G   UNL     1      -1.214  -7.767  -5.062  1.00  0.00     0.000 G0
BRANCH  50  52
ATOM     52  N   UNL     1      -3.098  -6.851  -6.442  1.00  0.00    -0.339 N 
ATOM     53  C   UNL     1      -3.103  -6.285  -7.694  1.00  0.00     0.243 C 
ATOM     54  O   UNL     1      -2.284  -5.438  -8.041  1.00  0.00    -0.273 OA
ATOM     55  H   UNL     1      -3.867  -7.462  -6.176  1.00  0.00     0.164 HD
BRANCH  53  56
ATOM     56  C   UNL     1      -4.314  -6.687  -8.559  1.00  0.00     0.182 C 
BRANCH  56  57
ATOM     57  N   UNL     1      -5.283  -5.590  -8.651  1.00  0.00    -0.344 N 
ATOM     58  C   UNL     1      -5.522  -4.916  -9.824  1.00  0.00     0.220 C 
ATOM     59  O   UNL     1      -4.894  -5.134 -10.854  1.00  0.00    -0.275 OA
ATOM     60  H   UNL     1      -5.894  -5.447  -7.851  1.00  0.00     0.164 HD
BRANCH  58  61
ATOM     61  C   UNL     1      -6.605  -3.860  -9.700  1.00  0.00     0.100 C 
BRANCH  61  62
ATOM     62  C   UNL     1      -6.869  -3.094 -10.997  1.00  0.00     0.010 C 
BRANCH  62  63
ATOM     63  C   UNL     1      -6.038  -1.814 -11.150  1.00  0.00     0.000 C 
BRANCH  63  64
ATOM     64  C   UNL     1      -6.159  -1.149 -12.520  1.00  0.00    -0.003 C 
ATOM     65  C   UNL     1      -5.105  -0.066 -12.706  1.00  0.00     0.004 C 
ENDBRANCH  63  64
ENDBRANCH  62  63
ENDBRANCH  61  62
ENDBRANCH  58  61
ENDBRANCH  56  57
BRANCH  56  66
ATOM     66  C   UNL     1      -4.955  -7.981  -8.059  1.00  0.00     0.157 C 
BRANCH  66  67
ATOM     67  C   UNL     1      -6.204  -8.302  -8.828  1.00  0.00     0.305 C 
ATOM     68  O   UNL     1      -7.244  -8.758  -8.379  1.00  0.00    -0.252 OA
BRANCH  67  69
ATOM     69  O   UNL     1      -6.099  -7.982 -10.132  1.00  0.00    -0.481 OA
ATOM     70  H   UNL     1      -5.262  -7.474 -10.198  1.00  0.00     0.296 HD
ENDBRANCH  67  69
ENDBRANCH  66  67
ENDBRANCH  56  66
ENDBRANCH  53  56
ENDBRANCH  50  52
ENDBRANCH  47  50
ENDBRANCH  45  46
BRANCH  45  71
ATOM     71  C   UNL     1      -5.770  -6.883  -2.505  1.00  0.00     0.037 C 
BRANCH  71  72
ATOM     72  C   UNL     1      -6.543  -6.421  -1.267  1.00  0.00     0.026 C 
BRANCH  72  73
ATOM     73  C   UNL     1      -7.963  -6.984  -1.250  1.00  0.00     0.146 C 
BRANCH  73  74
ATOM     74  N   UNL     1      -8.815  -6.026  -0.553  1.00  0.00    -0.254 NA
ATOM     75  C   UNL     1      -9.112  -6.266   0.671  1.00  0.00     0.185 C 
ATOM     76  N   UNL     1      -9.893  -5.403   1.339  1.00  0.00    -0.370 N 
ATOM     77  N   UNL     1      -8.744  -7.306   1.440  1.00  0.00    -0.370 N 
ATOM     78  H   UNL     1     -10.221  -4.594   0.829  1.00  0.00     0.159 HD
ATOM     79  H   UNL     1     -10.283  -5.595   2.244  1.00  0.00     0.159 HD
ATOM     80  H   UNL     1      -8.151  -8.034   1.071  1.00  0.00     0.159 HD
ATOM     81  H   UNL     1      -8.944  -7.329   2.426  1.00  0.00     0.159 HD
ENDBRANCH  73  74
ENDBRANCH  72  73
ENDBRANCH  71  72
ENDBRANCH  45  71
ENDBRANCH   3  45
TORSDOF 20
ENDMDL
MODEL 21
REMARK VINA RESULT:    -6.140      6.122     13.013
REMARK INTER + INTRA:         -23.703
REMARK INTER:                 -16.989
REMARK INTRA:                  -6.714
REMARK UNBOUND:                -6.078
REMARK SMILES CCCCCC(=O)N[C@H](CC(=O)O)C(=O)N[C@H]1C(=O)N[C@H](CCCN=C(N)N)C(=O)N[C@@H]2CC[C@H](O)N(C2=O)[C@@H](CC(C)C)C(=O)N(C)[C@@H](Cc2ccccc2)C(=O)N[C@H](C(C)C)C(=O)O[C@@H]1C
REMARK SMILES IDX 30 1 31 2 29 3 32 5 35 6 37 7 34 8 38 9 33 10 39 11 36 12
REMARK SMILES IDX 40 14 41 15 42 16 43 17 44 18 45 19 46 20 47 21 48 22 49 23
REMARK SMILES IDX 50 24 51 25 52 26 56 27 53 28 55 29 54 30 57 31 58 32 59 33
REMARK SMILES IDX 60 35 61 36 62 37 63 38 64 39 65 40 66 41 67 42 68 43 21 45
REMARK SMILES IDX 20 46 18 47 19 48 17 50 16 52 14 53 15 54 9 56 8 57 6 58
REMARK SMILES IDX 7 59 5 61 4 62 3 63 2 64 1 65 10 66 11 67 12 68 13 69 22 71
REMARK SMILES IDX 23 72 24 73 25 74 26 75 27 76 28 77
REMARK H PARENT 31 4 36 13 59 34 20 49 16 55 8 60 13 70 27 78 27 79 28 80
REMARK H PARENT 28 81
REMARK Flexibility Score:  259.900
ROOT
ATOM      1  O   UNL     1      -8.369  -1.624   0.787  1.00  0.00    -0.273 OA
ATOM      2  N   UNL     1      -8.763  -3.186  -0.838  1.00  0.00    -0.343 N 
ATOM      3  C   UNL     1      -8.841  -2.712   0.455  1.00  0.00     0.243 C 
ATOM      4  H   UNL     1      -9.175  -4.079  -1.078  1.00  0.00     0.164 HD
ENDROOT
BRANCH   2   5
ATOM      5  C   UNL     1      -8.003  -2.460  -1.850  1.00  0.00     0.171 C 
ATOM      6  C   UNL     1      -6.869   0.207  -1.917  1.00  0.00     0.214 C 
ATOM      7  N   UNL     1      -8.210  -0.007  -2.409  1.00  0.00    -0.303 N 
ATOM      8  C   UNL     1      -5.966  -1.004  -2.084  1.00  0.00     0.057 C 
ATOM      9  C   UNL     1      -8.831  -1.245  -2.359  1.00  0.00     0.247 C 
ATOM     10  C   UNL     1      -6.574  -2.197  -1.379  1.00  0.00     0.040 C 
ATOM     11  O   UNL     1     -10.010  -1.402  -2.702  1.00  0.00    -0.272 OA
BRANCH   6  12
ATOM     12  O   UNL     1      -6.962   0.569  -0.559  1.00  0.00    -0.373 OA
ATOM     13  H   UNL     1      -7.681   0.029  -0.166  1.00  0.00     0.213 HD
ENDBRANCH   6  12
BRANCH   7  14
ATOM     14  C   UNL     1      -8.965   1.188  -2.841  1.00  0.00     0.177 C 
BRANCH  14  15
ATOM     15  C   UNL     1      -9.767   1.895  -1.730  1.00  0.00     0.038 C 
BRANCH  15  16
ATOM     16  C   UNL     1     -10.106   3.395  -1.873  1.00  0.00    -0.015 C 
ATOM     17  C   UNL     1      -9.854   4.177  -0.581  1.00  0.00     0.007 C 
ATOM     18  C   UNL     1     -11.583   3.559  -2.254  1.00  0.00     0.007 C 
ENDBRANCH  15  16
ENDBRANCH  14  15
BRANCH  14  19
ATOM     19  C   UNL     1      -8.219   1.907  -4.018  1.00  0.00     0.245 C 
ATOM     20  O   UNL     1      -7.616   2.957  -3.740  1.00  0.00    -0.272 OA
BRANCH  19  21
ATOM     21  N   UNL     1      -8.292   1.501  -5.338  1.00  0.00    -0.332 N 
ATOM     22  C   UNL     1      -7.625   0.340  -5.901  1.00  0.00     0.147 C 
BRANCH  21  23
ATOM     23  C   UNL     1      -9.110   2.321  -6.274  1.00  0.00     0.178 C 
BRANCH  23  24
ATOM     24  C   UNL     1     -10.460   2.800  -5.702  1.00  0.00     0.070 C 
BRANCH  24  25
ATOM     25  C   UNL     1     -11.696   2.042  -6.127  1.00  0.00    -0.045 A 
ATOM     26  C   UNL     1     -12.417   1.270  -5.208  1.00  0.00     0.004 A 
ATOM     27  C   UNL     1     -12.137   2.099  -7.458  1.00  0.00     0.004 A 
ATOM     28  C   UNL     1     -13.548   0.559  -5.613  1.00  0.00     0.000 A 
ATOM     29  C   UNL     1     -13.269   1.389  -7.862  1.00  0.00     0.000 A 
ATOM     30  C   UNL     1     -13.972   0.617  -6.939  1.00  0.00     0.000 A 
ENDBRANCH  24  25
ENDBRANCH  23  24
BRANCH  23  31
ATOM     31  C   UNL     1      -8.286   3.411  -7.000  1.00  0.00     0.243 C 
ATOM     32  O   UNL     1      -7.228   3.197  -7.585  1.00  0.00    -0.273 OA
ATOM     33  N   UNL     1      -8.751   4.696  -6.776  1.00  0.00    -0.341 N 
ATOM     34  H   UNL     1      -9.637   4.812  -6.277  1.00  0.00     0.164 HD
BRANCH  33  35
ATOM     35  C   UNL     1      -8.060   5.892  -7.266  1.00  0.00     0.194 C 
BRANCH  35  36
ATOM     36  C   UNL     1      -6.980   6.444  -6.293  1.00  0.00     0.017 C 
ATOM     37  C   UNL     1      -7.616   6.992  -5.004  1.00  0.00     0.010 C 
ATOM     38  C   UNL     1      -6.136   7.569  -6.903  1.00  0.00     0.010 C 
ENDBRANCH  35  36
BRANCH  35  39
ATOM     39  C   UNL     1      -9.043   7.002  -7.731  1.00  0.00     0.329 C 
ATOM     40  O   UNL     1     -10.201   7.100  -7.342  1.00  0.00    -0.250 OA
BRANCH  39  41
ATOM     41  O   UNL     1      -8.446   7.912  -8.559  1.00  0.00    -0.458 OA
BRANCH  41  42
ATOM     42  C   UNL     1      -9.275   8.465  -9.609  1.00  0.00     0.205 CG0
ATOM     43  C   UNL     1      -8.949   7.704 -10.892  1.00  0.00     0.056 C 
ATOM     44  G   UNL     1      -8.979   9.973  -9.726  1.00  0.00     0.000 G0
ENDBRANCH  41  42
ENDBRANCH  39  41
ENDBRANCH  35  39
ENDBRANCH  33  35
ENDBRANCH  23  31
ENDBRANCH  21  23
ENDBRANCH  19  21
ENDBRANCH  14  19
ENDBRANCH   7  14
ENDBRANCH   2   5
BRANCH   3  45
ATOM     45  C   UNL     1      -9.575  -3.625   1.445  1.00  0.00     0.171 C 
BRANCH  45  46
ATOM     46  N   UNL     1      -8.662  -4.726   1.719  1.00  0.00    -0.342 N 
ATOM     47  C   UNL     1      -7.722  -4.673   2.717  1.00  0.00     0.247 C 
ATOM     48  O   UNL     1      -7.631  -3.726   3.500  1.00  0.00    -0.273 OA
ATOM     49  H   UNL     1      -8.741  -5.554   1.130  1.00  0.00     0.164 HD
BRANCH  47  50
ATOM     50  C   UNL     1      -6.767  -5.874   2.776  1.00  0.00     0.212 CG0
ATOM     51  G   UNL     1      -7.295  -6.839   3.856  1.00  0.00     0.000 G0
BRANCH  50  52
ATOM     52  N   UNL     1      -6.780  -6.448   1.433  1.00  0.00    -0.339 N 
ATOM     53  C   UNL     1      -5.829  -6.168   0.482  1.00  0.00     0.243 C 
ATOM     54  O   UNL     1      -4.919  -5.366   0.672  1.00  0.00    -0.273 OA
ATOM     55  H   UNL     1      -7.573  -7.034   1.177  1.00  0.00     0.164 HD
BRANCH  53  56
ATOM     56  C   UNL     1      -6.100  -6.822  -0.888  1.00  0.00     0.182 C 
BRANCH  56  57
ATOM     57  N   UNL     1      -6.277  -5.807  -1.931  1.00  0.00    -0.344 N 
ATOM     58  C   UNL     1      -5.737  -5.940  -3.187  1.00  0.00     0.220 C 
ATOM     59  O   UNL     1      -5.011  -6.876  -3.501  1.00  0.00    -0.275 OA
ATOM     60  H   UNL     1      -6.952  -5.070  -1.746  1.00  0.00     0.164 HD
BRANCH  58  61
ATOM     61  C   UNL     1      -6.098  -4.799  -4.120  1.00  0.00     0.100 C 
BRANCH  61  62
ATOM     62  C   UNL     1      -7.584  -4.737  -4.473  1.00  0.00     0.010 C 
BRANCH  62  63
ATOM     63  C   UNL     1      -7.966  -3.557  -5.375  1.00  0.00     0.000 C 
BRANCH  63  64
ATOM     64  C   UNL     1      -7.207  -3.510  -6.700  1.00  0.00    -0.003 C 
ATOM     65  C   UNL     1      -7.625  -4.647  -7.621  1.00  0.00     0.004 C 
ENDBRANCH  63  64
ENDBRANCH  62  63
ENDBRANCH  61  62
ENDBRANCH  58  61
ENDBRANCH  56  57
BRANCH  56  66
ATOM     66  C   UNL     1      -7.278  -7.793  -0.822  1.00  0.00     0.157 C 
BRANCH  66  67
ATOM     67  C   UNL     1      -8.465  -7.260  -1.571  1.00  0.00     0.305 C 
ATOM     68  O   UNL     1      -8.872  -7.632  -2.660  1.00  0.00    -0.252 OA
BRANCH  67  69
ATOM     69  O   UNL     1      -9.120  -6.307  -0.880  1.00  0.00    -0.481 OA
ATOM     70  H   UNL     1      -9.291  -5.597  -1.534  1.00  0.00     0.296 HD
ENDBRANCH  67  69
ENDBRANCH  66  67
ENDBRANCH  56  66
ENDBRANCH  53  56
ENDBRANCH  50  52
ENDBRANCH  47  50
ENDBRANCH  45  46
BRANCH  45  71
ATOM     71  C   UNL     1     -10.893  -4.120   0.839  1.00  0.00     0.037 C 
BRANCH  71  72
ATOM     72  C   UNL     1     -12.113  -3.541   1.560  1.00  0.00     0.026 C 
BRANCH  72  73
ATOM     73  C   UNL     1     -12.225  -2.032   1.348  1.00  0.00     0.146 C 
BRANCH  73  74
ATOM     74  N   UNL     1     -12.165  -1.778  -0.089  1.00  0.00    -0.254 NA
ATOM     75  C   UNL     1     -13.255  -1.864  -0.758  1.00  0.00     0.185 C 
ATOM     76  N   UNL     1     -13.232  -1.634  -2.081  1.00  0.00    -0.370 N 
ATOM     77  N   UNL     1     -14.491  -2.165  -0.325  1.00  0.00    -0.370 N 
ATOM     78  H   UNL     1     -12.337  -1.408  -2.491  1.00  0.00     0.159 HD
ATOM     79  H   UNL     1     -14.009  -1.824  -2.689  1.00  0.00     0.159 HD
ATOM     80  H   UNL     1     -14.660  -2.359   0.651  1.00  0.00     0.159 HD
ATOM     81  H   UNL     1     -15.295  -2.090  -0.926  1.00  0.00     0.159 HD
ENDBRANCH  73  74
ENDBRANCH  72  73
ENDBRANCH  71  72
ENDBRANCH  45  71
ENDBRANCH   3  45
TORSDOF 20
ENDMDL
MODEL 22
REMARK VINA RESULT:    -6.095      7.917     13.167
REMARK INTER + INTRA:         -23.575
REMARK INTER:                 -16.358
REMARK INTRA:                  -7.216
REMARK UNBOUND:                -6.078
REMARK SMILES CCCCCC(=O)N[C@H](CC(=O)O)C(=O)N[C@H]1C(=O)N[C@H](CCCN=C(N)N)C(=O)N[C@@H]2CC[C@H](O)N(C2=O)[C@@H](CC(C)C)C(=O)N(C)[C@@H](Cc2ccccc2)C(=O)N[C@H](C(C)C)C(=O)O[C@@H]1C
REMARK SMILES IDX 30 1 31 2 29 3 32 5 35 6 37 7 34 8 38 9 33 10 39 11 36 12
REMARK SMILES IDX 40 14 41 15 42 16 43 17 44 18 45 19 46 20 47 21 48 22 49 23
REMARK SMILES IDX 50 24 51 25 52 26 56 27 53 28 55 29 54 30 57 31 58 32 59 33
REMARK SMILES IDX 60 35 61 36 62 37 63 38 64 39 65 40 66 41 67 42 68 43 21 45
REMARK SMILES IDX 20 46 18 47 19 48 17 50 16 52 14 53 15 54 9 56 8 57 6 58
REMARK SMILES IDX 7 59 5 61 4 62 3 63 2 64 1 65 10 66 11 67 12 68 13 69 22 71
REMARK SMILES IDX 23 72 24 73 25 74 26 75 27 76 28 77
REMARK H PARENT 31 4 36 13 59 34 20 49 16 55 8 60 13 70 27 78 27 79 28 80
REMARK H PARENT 28 81
REMARK Flexibility Score:  259.900
ROOT
ATOM      1  O   UNL     1      -8.815  -3.397  -1.345  1.00  0.00    -0.273 OA
ATOM      2  N   UNL     1      -8.381  -1.263  -0.645  1.00  0.00    -0.343 N 
ATOM      3  C   UNL     1      -8.494  -2.622  -0.443  1.00  0.00     0.243 C 
ATOM      4  H   UNL     1      -8.101  -0.658   0.116  1.00  0.00     0.164 HD
ENDROOT
BRANCH   2   5
ATOM      5  C   UNL     1      -8.758  -0.669  -1.923  1.00  0.00     0.171 C 
ATOM      6  C   UNL     1      -7.991   1.794  -3.245  1.00  0.00     0.214 C 
ATOM      7  N   UNL     1      -9.148   1.783  -2.381  1.00  0.00    -0.303 N 
ATOM      8  C   UNL     1      -7.733   0.458  -3.924  1.00  0.00     0.057 C 
ATOM      9  C   UNL     1      -9.539   0.654  -1.679  1.00  0.00     0.247 C 
ATOM     10  C   UNL     1      -7.567  -0.623  -2.879  1.00  0.00     0.040 C 
ATOM     11  O   UNL     1     -10.479   0.675  -0.874  1.00  0.00    -0.272 OA
BRANCH   6  12
ATOM     12  O   UNL     1      -6.878   2.176  -2.470  1.00  0.00    -0.373 OA
ATOM     13  H   UNL     1      -6.171   2.445  -3.095  1.00  0.00     0.213 HD
ENDBRANCH   6  12
BRANCH   7  14
ATOM     14  C   UNL     1      -9.826   3.076  -2.152  1.00  0.00     0.177 C 
BRANCH  14  15
ATOM     15  C   UNL     1      -9.118   4.023  -1.164  1.00  0.00     0.038 C 
BRANCH  15  16
ATOM     16  C   UNL     1      -9.901   4.592   0.040  1.00  0.00    -0.015 C 
ATOM     17  C   UNL     1     -11.370   4.157   0.039  1.00  0.00     0.007 C 
ATOM     18  C   UNL     1      -9.855   6.125   0.011  1.00  0.00     0.007 C 
ENDBRANCH  15  16
ENDBRANCH  14  15
BRANCH  14  19
ATOM     19  C   UNL     1     -10.595   3.522  -3.443  1.00  0.00     0.245 C 
ATOM     20  O   UNL     1     -11.392   2.703  -3.931  1.00  0.00    -0.272 OA
BRANCH  19  21
ATOM     21  N   UNL     1     -10.354   4.708  -4.113  1.00  0.00    -0.332 N 
ATOM     22  C   UNL     1      -9.108   5.068  -4.768  1.00  0.00     0.147 C 
BRANCH  21  23
ATOM     23  C   UNL     1     -11.450   5.714  -4.166  1.00  0.00     0.178 C 
BRANCH  23  24
ATOM     24  C   UNL     1     -11.132   7.054  -3.472  1.00  0.00     0.070 C 
BRANCH  24  25
ATOM     25  C   UNL     1     -12.077   7.508  -2.384  1.00  0.00    -0.045 A 
ATOM     26  C   UNL     1     -13.051   6.641  -1.872  1.00  0.00     0.004 A 
ATOM     27  C   UNL     1     -11.994   8.812  -1.873  1.00  0.00     0.004 A 
ATOM     28  C   UNL     1     -13.933   7.073  -0.879  1.00  0.00     0.000 A 
ATOM     29  C   UNL     1     -12.875   9.242  -0.879  1.00  0.00     0.000 A 
ATOM     30  C   UNL     1     -13.846   8.373  -0.385  1.00  0.00     0.000 A 
ENDBRANCH  24  25
ENDBRANCH  23  24
BRANCH  23  31
ATOM     31  C   UNL     1     -12.084   5.843  -5.572  1.00  0.00     0.243 C 
ATOM     32  O   UNL     1     -12.649   4.923  -6.157  1.00  0.00    -0.273 OA
ATOM     33  N   UNL     1     -11.797   7.044  -6.199  1.00  0.00    -0.341 N 
ATOM     34  H   UNL     1     -11.319   7.770  -5.662  1.00  0.00     0.164 HD
BRANCH  33  35
ATOM     35  C   UNL     1     -12.193   7.337  -7.580  1.00  0.00     0.194 C 
BRANCH  35  36
ATOM     36  C   UNL     1     -11.054   7.145  -8.621  1.00  0.00     0.017 C 
ATOM     37  C   UNL     1     -11.163   5.781  -9.323  1.00  0.00     0.010 C 
ATOM     38  C   UNL     1      -9.652   7.234  -8.006  1.00  0.00     0.010 C 
ENDBRANCH  35  36
BRANCH  35  39
ATOM     39  C   UNL     1     -12.881   8.724  -7.722  1.00  0.00     0.329 C 
ATOM     40  O   UNL     1     -13.453   9.303  -6.806  1.00  0.00    -0.250 OA
BRANCH  39  41
ATOM     41  O   UNL     1     -12.703   9.267  -8.964  1.00  0.00    -0.458 OA
BRANCH  41  42
ATOM     42  C   UNL     1     -13.846   9.947  -9.536  1.00  0.00     0.205 CG0
ATOM     43  C   UNL     1     -14.727   8.883 -10.189  1.00  0.00     0.056 C 
ATOM     44  G   UNL     1     -13.340  10.995 -10.547  1.00  0.00     0.000 G0
ENDBRANCH  41  42
ENDBRANCH  39  41
ENDBRANCH  35  39
ENDBRANCH  33  35
ENDBRANCH  23  31
ENDBRANCH  21  23
ENDBRANCH  19  21
ENDBRANCH  14  19
ENDBRANCH   7  14
ENDBRANCH   2   5
BRANCH   3  45
ATOM     45  C   UNL     1      -8.172  -3.104   0.977  1.00  0.00     0.171 C 
BRANCH  45  46
ATOM     46  N   UNL     1      -7.136  -4.117   0.824  1.00  0.00    -0.342 N 
ATOM     47  C   UNL     1      -6.107  -4.260   1.720  1.00  0.00     0.247 C 
ATOM     48  O   UNL     1      -6.024  -3.595   2.754  1.00  0.00    -0.273 OA
ATOM     49  H   UNL     1      -7.198  -4.727   0.010  1.00  0.00     0.164 HD
BRANCH  47  50
ATOM     50  C   UNL     1      -5.043  -5.295   1.329  1.00  0.00     0.212 CG0
ATOM     51  G   UNL     1      -4.979  -6.348   2.454  1.00  0.00     0.000 G0
BRANCH  50  52
ATOM     52  N   UNL     1      -5.484  -5.844   0.050  1.00  0.00    -0.339 N 
ATOM     53  C   UNL     1      -5.152  -5.293  -1.164  1.00  0.00     0.243 C 
ATOM     54  O   UNL     1      -4.497  -4.259  -1.264  1.00  0.00    -0.273 OA
ATOM     55  H   UNL     1      -6.122  -6.637   0.071  1.00  0.00     0.164 HD
BRANCH  53  56
ATOM     56  C   UNL     1      -5.806  -5.994  -2.371  1.00  0.00     0.182 C 
BRANCH  56  57
ATOM     57  N   UNL     1      -6.673  -5.071  -3.110  1.00  0.00    -0.344 N 
ATOM     58  C   UNL     1      -6.266  -4.440  -4.260  1.00  0.00     0.220 C 
ATOM     59  O   UNL     1      -5.129  -4.544  -4.707  1.00  0.00    -0.275 OA
ATOM     60  H   UNL     1      -7.650  -5.036  -2.832  1.00  0.00     0.164 HD
BRANCH  58  61
ATOM     61  C   UNL     1      -7.346  -3.578  -4.887  1.00  0.00     0.100 C 
BRANCH  61  62
ATOM     62  C   UNL     1      -7.231  -3.454  -6.407  1.00  0.00     0.010 C 
BRANCH  62  63
ATOM     63  C   UNL     1      -7.755  -4.673  -7.177  1.00  0.00     0.000 C 
BRANCH  63  64
ATOM     64  C   UNL     1      -7.619  -4.561  -8.694  1.00  0.00    -0.003 C 
ATOM     65  C   UNL     1      -6.461  -3.654  -9.083  1.00  0.00     0.004 C 
ENDBRANCH  63  64
ENDBRANCH  62  63
ENDBRANCH  61  62
ENDBRANCH  58  61
ENDBRANCH  56  57
BRANCH  56  66
ATOM     66  C   UNL     1      -6.542  -7.265  -1.950  1.00  0.00     0.157 C 
BRANCH  66  67
ATOM     67  C   UNL     1      -8.030  -7.074  -2.001  1.00  0.00     0.305 C 
ATOM     68  O   UNL     1      -8.815  -7.632  -2.752  1.00  0.00    -0.252 OA
BRANCH  67  69
ATOM     69  O   UNL     1      -8.469  -6.218  -1.058  1.00  0.00    -0.481 OA
ATOM     70  H   UNL     1      -7.779  -6.238  -0.362  1.00  0.00     0.296 HD
ENDBRANCH  67  69
ENDBRANCH  66  67
ENDBRANCH  56  66
ENDBRANCH  53  56
ENDBRANCH  50  52
ENDBRANCH  47  50
ENDBRANCH  45  46
BRANCH  45  71
ATOM     71  C   UNL     1      -9.427  -3.676   1.645  1.00  0.00     0.037 C 
BRANCH  71  72
ATOM     72  C   UNL     1     -10.183  -2.618   2.453  1.00  0.00     0.026 C 
BRANCH  72  73
ATOM     73  C   UNL     1      -9.236  -1.557   3.010  1.00  0.00     0.146 C 
BRANCH  73  74
ATOM     74  N   UNL     1      -9.374  -0.359   2.187  1.00  0.00    -0.254 NA
ATOM     75  C   UNL     1      -9.126   0.774   2.733  1.00  0.00     0.185 C 
ATOM     76  N   UNL     1      -9.242   1.894   2.002  1.00  0.00    -0.370 N 
ATOM     77  N   UNL     1      -8.744   1.039   3.995  1.00  0.00    -0.370 N 
ATOM     78  H   UNL     1      -9.533   1.785   1.041  1.00  0.00     0.159 HD
ATOM     79  H   UNL     1      -9.207   2.818   2.395  1.00  0.00     0.159 HD
ATOM     80  H   UNL     1      -8.612   0.291   4.659  1.00  0.00     0.159 HD
ATOM     81  H   UNL     1      -8.465   1.963   4.280  1.00  0.00     0.159 HD
ENDBRANCH  73  74
ENDBRANCH  72  73
ENDBRANCH  71  72
ENDBRANCH  45  71
ENDBRANCH   3  45
TORSDOF 20
ENDMDL
MODEL 23
REMARK VINA RESULT:    -6.089      4.159      5.912
REMARK INTER + INTRA:         -23.557
REMARK INTER:                 -18.165
REMARK INTRA:                  -5.392
REMARK UNBOUND:                -6.078
REMARK SMILES CCCCCC(=O)N[C@H](CC(=O)O)C(=O)N[C@H]1C(=O)N[C@H](CCCN=C(N)N)C(=O)N[C@@H]2CC[C@H](O)N(C2=O)[C@@H](CC(C)C)C(=O)N(C)[C@@H](Cc2ccccc2)C(=O)N[C@H](C(C)C)C(=O)O[C@@H]1C
REMARK SMILES IDX 30 1 31 2 29 3 32 5 35 6 37 7 34 8 38 9 33 10 39 11 36 12
REMARK SMILES IDX 40 14 41 15 42 16 43 17 44 18 45 19 46 20 47 21 48 22 49 23
REMARK SMILES IDX 50 24 51 25 52 26 56 27 53 28 55 29 54 30 57 31 58 32 59 33
REMARK SMILES IDX 60 35 61 36 62 37 63 38 64 39 65 40 66 41 67 42 68 43 21 45
REMARK SMILES IDX 20 46 18 47 19 48 17 50 16 52 14 53 15 54 9 56 8 57 6 58
REMARK SMILES IDX 7 59 5 61 4 62 3 63 2 64 1 65 10 66 11 67 12 68 13 69 22 71
REMARK SMILES IDX 23 72 24 73 25 74 26 75 27 76 28 77
REMARK H PARENT 31 4 36 13 59 34 20 49 16 55 8 60 13 70 27 78 27 79 28 80
REMARK H PARENT 28 81
REMARK Flexibility Score:  259.900
ROOT
ATOM      1  O   UNL     1      -5.460  -4.256  -2.506  1.00  0.00    -0.273 OA
ATOM      2  N   UNL     1      -7.492  -5.305  -2.501  1.00  0.00    -0.343 N 
ATOM      3  C   UNL     1      -6.413  -4.721  -3.131  1.00  0.00     0.243 C 
ATOM      4  H   UNL     1      -8.252  -5.691  -3.048  1.00  0.00     0.164 HD
ENDROOT
BRANCH   2   5
ATOM      5  C   UNL     1      -7.600  -5.289  -1.047  1.00  0.00     0.171 C 
ATOM      6  C   UNL     1      -9.859  -5.516   0.757  1.00  0.00     0.214 C 
ATOM      7  N   UNL     1      -9.436  -4.210   0.309  1.00  0.00    -0.303 N 
ATOM      8  C   UNL     1      -8.722  -6.522   0.836  1.00  0.00     0.057 C 
ATOM      9  C   UNL     1      -8.398  -4.033  -0.591  1.00  0.00     0.247 C 
ATOM     10  C   UNL     1      -8.054  -6.648  -0.516  1.00  0.00     0.040 C 
ATOM     11  O   UNL     1      -8.098  -2.918  -1.037  1.00  0.00    -0.272 OA
BRANCH   6  12
ATOM     12  O   UNL     1     -10.858  -5.971  -0.126  1.00  0.00    -0.373 OA
ATOM     13  H   UNL     1     -10.461  -5.993  -1.023  1.00  0.00     0.213 HD
ENDBRANCH   6  12
BRANCH   7  14
ATOM     14  C   UNL     1     -10.255  -3.056   0.738  1.00  0.00     0.177 C 
BRANCH  14  15
ATOM     15  C   UNL     1     -11.492  -2.769  -0.135  1.00  0.00     0.038 C 
BRANCH  15  16
ATOM     16  C   UNL     1     -11.483  -1.557  -1.093  1.00  0.00    -0.015 C 
ATOM     17  C   UNL     1     -10.332  -0.590  -0.800  1.00  0.00     0.007 C 
ATOM     18  C   UNL     1     -12.803  -0.786  -0.965  1.00  0.00     0.007 C 
ENDBRANCH  15  16
ENDBRANCH  14  15
BRANCH  14  19
ATOM     19  C   UNL     1     -10.186  -2.889   2.295  1.00  0.00     0.245 C 
ATOM     20  O   UNL     1      -9.053  -2.864   2.805  1.00  0.00    -0.272 OA
BRANCH  19  21
ATOM     21  N   UNL     1     -11.296  -2.882   3.120  1.00  0.00    -0.332 N 
ATOM     22  C   UNL     1     -12.122  -4.035   3.430  1.00  0.00     0.147 C 
BRANCH  21  23
ATOM     23  C   UNL     1     -11.694  -1.589   3.741  1.00  0.00     0.178 C 
BRANCH  23  24
ATOM     24  C   UNL     1     -12.169  -0.513   2.742  1.00  0.00     0.070 C 
BRANCH  24  25
ATOM     25  C   UNL     1     -11.227   0.637   2.470  1.00  0.00    -0.045 A 
ATOM     26  C   UNL     1      -9.921   0.630   2.976  1.00  0.00     0.004 A 
ATOM     27  C   UNL     1     -11.653   1.734   1.706  1.00  0.00     0.004 A 
ATOM     28  C   UNL     1      -9.063   1.704   2.734  1.00  0.00     0.000 A 
ATOM     29  C   UNL     1     -10.793   2.807   1.464  1.00  0.00     0.000 A 
ATOM     30  C   UNL     1      -9.499   2.792   1.981  1.00  0.00     0.000 A 
ENDBRANCH  24  25
ENDBRANCH  23  24
BRANCH  23  31
ATOM     31  C   UNL     1     -12.599  -1.768   4.983  1.00  0.00     0.243 C 
ATOM     32  O   UNL     1     -12.265  -2.384   5.992  1.00  0.00    -0.273 OA
ATOM     33  N   UNL     1     -13.898  -1.329   4.790  1.00  0.00    -0.341 N 
ATOM     34  H   UNL     1     -14.117  -0.828   3.926  1.00  0.00     0.164 HD
BRANCH  33  35
ATOM     35  C   UNL     1     -14.957  -1.507   5.787  1.00  0.00     0.194 C 
BRANCH  35  36
ATOM     36  C   UNL     1     -15.847  -2.759   5.551  1.00  0.00     0.017 C 
ATOM     37  C   UNL     1     -17.163  -2.386   4.845  1.00  0.00     0.010 C 
ATOM     38  C   UNL     1     -16.214  -3.493   6.847  1.00  0.00     0.010 C 
ENDBRANCH  35  36
BRANCH  35  39
ATOM     39  C   UNL     1     -15.806  -0.221   5.992  1.00  0.00     0.329 C 
ATOM     40  O   UNL     1     -16.071   0.576   5.100  1.00  0.00    -0.250 OA
BRANCH  39  41
ATOM     41  O   UNL     1     -16.302  -0.123   7.263  1.00  0.00    -0.458 OA
BRANCH  41  42
ATOM     42  C   UNL     1     -17.674   0.323   7.383  1.00  0.00     0.205 CG0
ATOM     43  C   UNL     1     -18.442  -0.767   8.128  1.00  0.00     0.056 C 
ATOM     44  G   UNL     1     -18.234   0.579   5.970  1.00  0.00     0.000 G0
ENDBRANCH  41  42
ENDBRANCH  39  41
ENDBRANCH  35  39
ENDBRANCH  33  35
ENDBRANCH  23  31
ENDBRANCH  21  23
ENDBRANCH  19  21
ENDBRANCH  14  19
ENDBRANCH   7  14
ENDBRANCH   2   5
BRANCH   3  45
ATOM     45  C   UNL     1      -6.475  -4.709  -4.664  1.00  0.00     0.171 C 
BRANCH  45  46
ATOM     46  N   UNL     1      -5.094  -4.591  -5.112  1.00  0.00    -0.342 N 
ATOM     47  C   UNL     1      -4.327  -5.684  -5.432  1.00  0.00     0.247 C 
ATOM     48  O   UNL     1      -4.770  -6.833  -5.434  1.00  0.00    -0.273 OA
ATOM     49  H   UNL     1      -4.704  -3.653  -5.179  1.00  0.00     0.164 HD
BRANCH  47  50
ATOM     50  C   UNL     1      -2.860  -5.375  -5.763  1.00  0.00     0.212 CG0
ATOM     51  G   UNL     1      -2.068  -6.692  -5.647  1.00  0.00     0.000 G0
BRANCH  50  52
ATOM     52  N   UNL     1      -2.874  -4.826  -7.117  1.00  0.00    -0.339 N 
ATOM     53  C   UNL     1      -3.021  -3.488  -7.388  1.00  0.00     0.243 C 
ATOM     54  O   UNL     1      -3.208  -2.651  -6.509  1.00  0.00    -0.273 OA
ATOM     55  H   UNL     1      -2.835  -5.483  -7.893  1.00  0.00     0.164 HD
BRANCH  53  56
ATOM     56  C   UNL     1      -3.092  -3.157  -8.893  1.00  0.00     0.182 C 
BRANCH  56  57
ATOM     57  N   UNL     1      -4.162  -3.915  -9.549  1.00  0.00    -0.344 N 
ATOM     58  C   UNL     1      -5.408  -3.384  -9.776  1.00  0.00     0.220 C 
ATOM     59  O   UNL     1      -5.736  -2.270  -9.382  1.00  0.00    -0.275 OA
ATOM     60  H   UNL     1      -3.902  -4.799  -9.979  1.00  0.00     0.164 HD
BRANCH  58  61
ATOM     61  C   UNL     1      -6.337  -4.326 -10.520  1.00  0.00     0.100 C 
BRANCH  61  62
ATOM     62  C   UNL     1      -5.801  -5.753 -10.639  1.00  0.00     0.010 C 
BRANCH  62  63
ATOM     63  C   UNL     1      -6.829  -6.840 -10.298  1.00  0.00     0.000 C 
BRANCH  63  64
ATOM     64  C   UNL     1      -6.483  -7.663  -9.059  1.00  0.00    -0.003 C 
ATOM     65  C   UNL     1      -4.996  -7.592  -8.743  1.00  0.00     0.004 C 
ENDBRANCH  63  64
ENDBRANCH  62  63
ENDBRANCH  61  62
ENDBRANCH  58  61
ENDBRANCH  56  57
BRANCH  56  66
ATOM     66  C   UNL     1      -1.740  -3.359  -9.575  1.00  0.00     0.157 C 
BRANCH  66  67
ATOM     67  C   UNL     1      -1.678  -2.629 -10.886  1.00  0.00     0.305 C 
ATOM     68  O   UNL     1      -2.263  -2.925 -11.917  1.00  0.00    -0.252 OA
BRANCH  67  69
ATOM     69  O   UNL     1      -0.916  -1.521 -10.820  1.00  0.00    -0.481 OA
ATOM     70  H   UNL     1      -1.525  -0.816 -10.514  1.00  0.00     0.296 HD
ENDBRANCH  67  69
ENDBRANCH  66  67
ENDBRANCH  56  66
ENDBRANCH  53  56
ENDBRANCH  50  52
ENDBRANCH  47  50
ENDBRANCH  45  46
BRANCH  45  71
ATOM     71  C   UNL     1      -7.331  -3.537  -5.155  1.00  0.00     0.037 C 
BRANCH  71  72
ATOM     72  C   UNL     1      -7.485  -2.450  -4.088  1.00  0.00     0.026 C 
BRANCH  72  73
ATOM     73  C   UNL     1      -6.495  -1.307  -4.305  1.00  0.00     0.146 C 
BRANCH  73  74
ATOM     74  N   UNL     1      -6.817  -0.250  -3.352  1.00  0.00    -0.254 NA
ATOM     75  C   UNL     1      -6.365  -0.363  -2.157  1.00  0.00     0.185 C 
ATOM     76  N   UNL     1      -6.643   0.595  -1.258  1.00  0.00    -0.370 N 
ATOM     77  N   UNL     1      -5.612  -1.343  -1.628  1.00  0.00    -0.370 N 
ATOM     78  H   UNL     1      -7.212   1.367  -1.573  1.00  0.00     0.159 HD
ATOM     79  H   UNL     1      -6.448   0.505  -0.276  1.00  0.00     0.159 HD
ATOM     80  H   UNL     1      -5.322  -2.128  -2.190  1.00  0.00     0.159 HD
ATOM     81  H   UNL     1      -5.218  -1.266  -0.704  1.00  0.00     0.159 HD
ENDBRANCH  73  74
ENDBRANCH  72  73
ENDBRANCH  71  72
ENDBRANCH  45  71
ENDBRANCH   3  45
TORSDOF 20
ENDMDL
MODEL 24
REMARK VINA RESULT:    -6.070      2.814      5.214
REMARK INTER + INTRA:         -23.503
REMARK INTER:                 -17.981
REMARK INTRA:                  -5.521
REMARK UNBOUND:                -6.078
REMARK SMILES CCCCCC(=O)N[C@H](CC(=O)O)C(=O)N[C@H]1C(=O)N[C@H](CCCN=C(N)N)C(=O)N[C@@H]2CC[C@H](O)N(C2=O)[C@@H](CC(C)C)C(=O)N(C)[C@@H](Cc2ccccc2)C(=O)N[C@H](C(C)C)C(=O)O[C@@H]1C
REMARK SMILES IDX 30 1 31 2 29 3 32 5 35 6 37 7 34 8 38 9 33 10 39 11 36 12
REMARK SMILES IDX 40 14 41 15 42 16 43 17 44 18 45 19 46 20 47 21 48 22 49 23
REMARK SMILES IDX 50 24 51 25 52 26 56 27 53 28 55 29 54 30 57 31 58 32 59 33
REMARK SMILES IDX 60 35 61 36 62 37 63 38 64 39 65 40 66 41 67 42 68 43 21 45
REMARK SMILES IDX 20 46 18 47 19 48 17 50 16 52 14 53 15 54 9 56 8 57 6 58
REMARK SMILES IDX 7 59 5 61 4 62 3 63 2 64 1 65 10 66 11 67 12 68 13 69 22 71
REMARK SMILES IDX 23 72 24 73 25 74 26 75 27 76 28 77
REMARK H PARENT 31 4 36 13 59 34 20 49 16 55 8 60 13 70 27 78 27 79 28 80
REMARK H PARENT 28 81
REMARK Flexibility Score:  259.900
ROOT
ATOM      1  O   UNL     1      -5.099  -4.931  -4.633  1.00  0.00    -0.273 OA
ATOM      2  N   UNL     1      -6.877  -5.418  -3.279  1.00  0.00    -0.343 N 
ATOM      3  C   UNL     1      -6.317  -4.968  -4.456  1.00  0.00     0.243 C 
ATOM      4  H   UNL     1      -7.883  -5.448  -3.174  1.00  0.00     0.164 HD
ENDROOT
BRANCH   2   5
ATOM      5  C   UNL     1      -6.033  -5.761  -2.139  1.00  0.00     0.171 C 
ATOM      6  C   UNL     1      -6.491  -7.367   0.230  1.00  0.00     0.214 C 
ATOM      7  N   UNL     1      -6.769  -5.950   0.268  1.00  0.00    -0.303 N 
ATOM      8  C   UNL     1      -5.371  -7.736  -0.730  1.00  0.00     0.057 C 
ATOM      9  C   UNL     1      -6.621  -5.135  -0.842  1.00  0.00     0.247 C 
ATOM     10  C   UNL     1      -5.713  -7.254  -2.124  1.00  0.00     0.040 C 
ATOM     11  O   UNL     1      -6.943  -3.939  -0.825  1.00  0.00    -0.272 OA
BRANCH   6  12
ATOM     12  O   UNL     1      -7.683  -8.030  -0.125  1.00  0.00    -0.373 OA
ATOM     13  H   UNL     1      -7.659  -8.913   0.301  1.00  0.00     0.213 HD
ENDBRANCH   6  12
BRANCH   7  14
ATOM     14  C   UNL     1      -7.365  -5.417   1.511  1.00  0.00     0.177 C 
BRANCH  14  15
ATOM     15  C   UNL     1      -8.893  -5.576   1.627  1.00  0.00     0.038 C 
BRANCH  15  16
ATOM     16  C   UNL     1      -9.778  -4.322   1.798  1.00  0.00    -0.015 C 
ATOM     17  C   UNL     1      -9.798  -3.813   3.242  1.00  0.00     0.007 C 
ATOM     18  C   UNL     1     -11.219  -4.643   1.381  1.00  0.00     0.007 C 
ENDBRANCH  15  16
ENDBRANCH  14  15
BRANCH  14  19
ATOM     19  C   UNL     1      -6.348  -5.540   2.698  1.00  0.00     0.245 C 
ATOM     20  O   UNL     1      -5.179  -5.184   2.472  1.00  0.00    -0.272 OA
BRANCH  19  21
ATOM     21  N   UNL     1      -6.653  -6.117   3.918  1.00  0.00    -0.332 N 
ATOM     22  C   UNL     1      -6.948  -5.394   5.142  1.00  0.00     0.147 C 
BRANCH  21  23
ATOM     23  C   UNL     1      -6.672  -7.604   3.999  1.00  0.00     0.178 C 
BRANCH  23  24
ATOM     24  C   UNL     1      -5.471  -8.225   4.741  1.00  0.00     0.070 C 
BRANCH  24  25
ATOM     25  C   UNL     1      -4.235  -8.520   3.924  1.00  0.00    -0.045 A 
ATOM     26  C   UNL     1      -4.339  -9.013   2.617  1.00  0.00     0.004 A 
ATOM     27  C   UNL     1      -2.959  -8.308   4.468  1.00  0.00     0.004 A 
ATOM     28  C   UNL     1      -3.192  -9.300   1.874  1.00  0.00     0.000 A 
ATOM     29  C   UNL     1      -1.813  -8.594   3.724  1.00  0.00     0.000 A 
ATOM     30  C   UNL     1      -1.931  -9.092   2.428  1.00  0.00     0.000 A 
ENDBRANCH  24  25
ENDBRANCH  23  24
BRANCH  23  31
ATOM     31  C   UNL     1      -8.053  -8.169   4.408  1.00  0.00     0.243 C 
ATOM     32  O   UNL     1      -8.885  -8.594   3.610  1.00  0.00    -0.273 OA
ATOM     33  N   UNL     1      -8.352  -7.983   5.747  1.00  0.00    -0.341 N 
ATOM     34  H   UNL     1      -7.620  -7.619   6.362  1.00  0.00     0.164 HD
BRANCH  33  35
ATOM     35  C   UNL     1      -9.650  -8.331   6.331  1.00  0.00     0.194 C 
BRANCH  35  36
ATOM     36  C   UNL     1     -10.554  -7.106   6.647  1.00  0.00     0.017 C 
ATOM     37  C   UNL     1     -11.166  -6.518   5.364  1.00  0.00     0.010 C 
ATOM     38  C   UNL     1      -9.807  -5.972   7.360  1.00  0.00     0.010 C 
ENDBRANCH  35  36
BRANCH  35  39
ATOM     39  C   UNL     1      -9.520  -9.285   7.552  1.00  0.00     0.329 C 
ATOM     40  O   UNL     1     -10.244 -10.255   7.744  1.00  0.00    -0.250 OA
BRANCH  39  41
ATOM     41  O   UNL     1      -8.450  -8.973   8.344  1.00  0.00    -0.458 OA
BRANCH  41  42
ATOM     42  C   UNL     1      -8.724  -8.812   9.756  1.00  0.00     0.205 CG0
ATOM     43  C   UNL     1      -7.937  -9.891  10.497  1.00  0.00     0.056 C 
ATOM     44  G   UNL     1     -10.245  -8.933   9.980  1.00  0.00     0.000 G0
ENDBRANCH  41  42
ENDBRANCH  39  41
ENDBRANCH  35  39
ENDBRANCH  33  35
ENDBRANCH  23  31
ENDBRANCH  21  23
ENDBRANCH  19  21
ENDBRANCH  14  19
ENDBRANCH   7  14
ENDBRANCH   2   5
BRANCH   3  45
ATOM     45  C   UNL     1      -7.317  -4.538  -5.537  1.00  0.00     0.171 C 
BRANCH  45  46
ATOM     46  N   UNL     1      -6.556  -4.479  -6.777  1.00  0.00    -0.342 N 
ATOM     47  C   UNL     1      -7.150  -4.572  -8.011  1.00  0.00     0.247 C 
ATOM     48  O   UNL     1      -8.370  -4.637  -8.162  1.00  0.00    -0.273 OA
ATOM     49  H   UNL     1      -5.546  -4.369  -6.699  1.00  0.00     0.164 HD
BRANCH  47  50
ATOM     50  C   UNL     1      -6.178  -4.616  -9.199  1.00  0.00     0.212 CG0
ATOM     51  G   UNL     1      -6.716  -3.658 -10.279  1.00  0.00     0.000 G0
BRANCH  50  52
ATOM     52  N   UNL     1      -4.884  -4.209  -8.659  1.00  0.00    -0.339 N 
ATOM     53  C   UNL     1      -4.075  -3.274  -9.258  1.00  0.00     0.243 C 
ATOM     54  O   UNL     1      -4.357  -2.744 -10.329  1.00  0.00    -0.273 OA
ATOM     55  H   UNL     1      -4.543  -4.693  -7.830  1.00  0.00     0.164 HD
BRANCH  53  56
ATOM     56  C   UNL     1      -2.720  -3.071  -8.551  1.00  0.00     0.182 C 
BRANCH  56  57
ATOM     57  N   UNL     1      -2.495  -4.106  -7.537  1.00  0.00    -0.344 N 
ATOM     58  C   UNL     1      -1.427  -4.968  -7.590  1.00  0.00     0.220 C 
ATOM     59  O   UNL     1      -0.631  -4.983  -8.523  1.00  0.00    -0.275 OA
ATOM     60  H   UNL     1      -3.069  -4.062  -6.699  1.00  0.00     0.164 HD
BRANCH  58  61
ATOM     61  C   UNL     1      -1.360  -5.916  -6.407  1.00  0.00     0.100 C 
BRANCH  61  62
ATOM     62  C   UNL     1      -2.623  -6.757  -6.219  1.00  0.00     0.010 C 
BRANCH  62  63
ATOM     63  C   UNL     1      -2.509  -8.190  -6.756  1.00  0.00     0.000 C 
BRANCH  63  64
ATOM     64  C   UNL     1      -1.176  -8.870  -6.447  1.00  0.00    -0.003 C 
ATOM     65  C   UNL     1      -0.895 -10.008  -7.419  1.00  0.00     0.004 C 
ENDBRANCH  63  64
ENDBRANCH  62  63
ENDBRANCH  61  62
ENDBRANCH  58  61
ENDBRANCH  56  57
BRANCH  56  66
ATOM     66  C   UNL     1      -2.594  -1.662  -7.975  1.00  0.00     0.157 C 
BRANCH  66  67
ATOM     67  C   UNL     1      -3.442  -1.499  -6.746  1.00  0.00     0.305 C 
ATOM     68  O   UNL     1      -4.293  -2.273  -6.335  1.00  0.00    -0.252 OA
BRANCH  67  69
ATOM     69  O   UNL     1      -3.137  -0.382  -6.059  1.00  0.00    -0.481 OA
ATOM     70  H   UNL     1      -3.734   0.306  -6.422  1.00  0.00     0.296 HD
ENDBRANCH  67  69
ENDBRANCH  66  67
ENDBRANCH  56  66
ENDBRANCH  53  56
ENDBRANCH  50  52
ENDBRANCH  47  50
ENDBRANCH  45  46
BRANCH  45  71
ATOM     71  C   UNL     1      -7.931  -3.178  -5.185  1.00  0.00     0.037 C 
BRANCH  71  72
ATOM     72  C   UNL     1      -6.872  -2.166  -4.741  1.00  0.00     0.026 C 
BRANCH  72  73
ATOM     73  C   UNL     1      -7.476  -1.070  -3.865  1.00  0.00     0.146 C 
BRANCH  73  74
ATOM     74  N   UNL     1      -6.380  -0.384  -3.188  1.00  0.00    -0.254 NA
ATOM     75  C   UNL     1      -6.365  -0.398  -1.906  1.00  0.00     0.185 C 
ATOM     76  N   UNL     1      -5.369   0.223  -1.255  1.00  0.00    -0.370 N 
ATOM     77  N   UNL     1      -7.238  -0.969  -1.058  1.00  0.00    -0.370 N 
ATOM     78  H   UNL     1      -4.671   0.686  -1.820  1.00  0.00     0.159 HD
ATOM     79  H   UNL     1      -5.368   0.377  -0.262  1.00  0.00     0.159 HD
ATOM     80  H   UNL     1      -8.037  -1.476  -1.407  1.00  0.00     0.159 HD
ATOM     81  H   UNL     1      -7.060  -1.013  -0.068  1.00  0.00     0.159 HD
ENDBRANCH  73  74
ENDBRANCH  72  73
ENDBRANCH  71  72
ENDBRANCH  45  71
ENDBRANCH   3  45
TORSDOF 20
ENDMDL
MODEL 25
REMARK VINA RESULT:    -6.037      4.477      8.519
REMARK INTER + INTRA:         -23.410
REMARK INTER:                 -17.657
REMARK INTRA:                  -5.752
REMARK UNBOUND:                -6.078
REMARK SMILES CCCCCC(=O)N[C@H](CC(=O)O)C(=O)N[C@H]1C(=O)N[C@H](CCCN=C(N)N)C(=O)N[C@@H]2CC[C@H](O)N(C2=O)[C@@H](CC(C)C)C(=O)N(C)[C@@H](Cc2ccccc2)C(=O)N[C@H](C(C)C)C(=O)O[C@@H]1C
REMARK SMILES IDX 30 1 31 2 29 3 32 5 35 6 37 7 34 8 38 9 33 10 39 11 36 12
REMARK SMILES IDX 40 14 41 15 42 16 43 17 44 18 45 19 46 20 47 21 48 22 49 23
REMARK SMILES IDX 50 24 51 25 52 26 56 27 53 28 55 29 54 30 57 31 58 32 59 33
REMARK SMILES IDX 60 35 61 36 62 37 63 38 64 39 65 40 66 41 67 42 68 43 21 45
REMARK SMILES IDX 20 46 18 47 19 48 17 50 16 52 14 53 15 54 9 56 8 57 6 58
REMARK SMILES IDX 7 59 5 61 4 62 3 63 2 64 1 65 10 66 11 67 12 68 13 69 22 71
REMARK SMILES IDX 23 72 24 73 25 74 26 75 27 76 28 77
REMARK H PARENT 31 4 36 13 59 34 20 49 16 55 8 60 13 70 27 78 27 79 28 80
REMARK H PARENT 28 81
REMARK Flexibility Score:  259.900
ROOT
ATOM      1  O   UNL     1      -6.002  -4.304   2.330  1.00  0.00    -0.273 OA
ATOM      2  N   UNL     1      -7.882  -4.115   1.041  1.00  0.00    -0.343 N 
ATOM      3  C   UNL     1      -6.519  -4.227   1.215  1.00  0.00     0.243 C 
ATOM      4  H   UNL     1      -8.273  -4.069   0.108  1.00  0.00     0.164 HD
ENDROOT
BRANCH   2   5
ATOM      5  C   UNL     1      -8.767  -3.962   2.190  1.00  0.00     0.171 C 
ATOM      6  C   UNL     1     -11.582  -4.530   2.590  1.00  0.00     0.214 C 
ATOM      7  N   UNL     1     -11.179  -3.219   2.137  1.00  0.00    -0.303 N 
ATOM      8  C   UNL     1     -10.540  -5.211   3.463  1.00  0.00     0.057 C 
ATOM      9  C   UNL     1      -9.857  -2.896   1.878  1.00  0.00     0.247 C 
ATOM     10  C   UNL     1      -9.233  -5.321   2.709  1.00  0.00     0.040 C 
ATOM     11  O   UNL     1      -9.529  -1.799   1.407  1.00  0.00    -0.272 OA
BRANCH   6  12
ATOM     12  O   UNL     1     -11.859  -5.312   1.452  1.00  0.00    -0.373 OA
ATOM     13  H   UNL     1     -11.041  -5.331   0.910  1.00  0.00     0.213 HD
ENDBRANCH   6  12
BRANCH   7  14
ATOM     14  C   UNL     1     -12.257  -2.260   1.815  1.00  0.00     0.177 C 
BRANCH  14  15
ATOM     15  C   UNL     1     -12.237  -0.952   2.629  1.00  0.00     0.038 C 
BRANCH  15  16
ATOM     16  C   UNL     1     -12.998  -0.878   3.972  1.00  0.00    -0.015 C 
ATOM     17  C   UNL     1     -14.291  -1.699   3.956  1.00  0.00     0.007 C 
ATOM     18  C   UNL     1     -13.358   0.580   4.285  1.00  0.00     0.007 C 
ENDBRANCH  15  16
ENDBRANCH  14  15
BRANCH  14  19
ATOM     19  C   UNL     1     -12.661  -2.383   0.306  1.00  0.00     0.245 C 
ATOM     20  O   UNL     1     -11.914  -3.061  -0.420  1.00  0.00    -0.272 OA
BRANCH  19  21
ATOM     21  N   UNL     1     -13.717  -1.698  -0.269  1.00  0.00    -0.332 N 
ATOM     22  C   UNL     1     -15.123  -1.926   0.014  1.00  0.00     0.147 C 
BRANCH  21  23
ATOM     23  C   UNL     1     -13.400  -0.643  -1.271  1.00  0.00     0.178 C 
BRANCH  23  24
ATOM     24  C   UNL     1     -14.631   0.037  -1.903  1.00  0.00     0.070 C 
BRANCH  24  25
ATOM     25  C   UNL     1     -14.507   0.485  -3.341  1.00  0.00    -0.045 A 
ATOM     26  C   UNL     1     -15.399   1.420  -3.881  1.00  0.00     0.004 A 
ATOM     27  C   UNL     1     -13.493  -0.036  -4.159  1.00  0.00     0.004 A 
ATOM     28  C   UNL     1     -15.288   1.816  -5.216  1.00  0.00     0.000 A 
ATOM     29  C   UNL     1     -13.382   0.362  -5.493  1.00  0.00     0.000 A 
ATOM     30  C   UNL     1     -14.282   1.285  -6.021  1.00  0.00     0.000 A 
ENDBRANCH  24  25
ENDBRANCH  23  24
BRANCH  23  31
ATOM     31  C   UNL     1     -12.292   0.327  -0.796  1.00  0.00     0.243 C 
ATOM     32  O   UNL     1     -12.455   1.188   0.066  1.00  0.00    -0.273 OA
ATOM     33  N   UNL     1     -11.139   0.267  -1.560  1.00  0.00    -0.341 N 
ATOM     34  H   UNL     1     -11.064  -0.468  -2.268  1.00  0.00     0.164 HD
BRANCH  33  35
ATOM     35  C   UNL     1     -10.005   1.176  -1.368  1.00  0.00     0.194 C 
BRANCH  35  36
ATOM     36  C   UNL     1     -10.038   2.434  -2.281  1.00  0.00     0.017 C 
ATOM     37  C   UNL     1      -9.670   3.704  -1.496  1.00  0.00     0.010 C 
ATOM     38  C   UNL     1     -11.407   2.674  -2.930  1.00  0.00     0.010 C 
ENDBRANCH  35  36
BRANCH  35  39
ATOM     39  C   UNL     1      -8.635   0.444  -1.437  1.00  0.00     0.329 C 
ATOM     40  O   UNL     1      -7.565   0.964  -1.143  1.00  0.00    -0.250 OA
BRANCH  39  41
ATOM     41  O   UNL     1      -8.766  -0.873  -1.779  1.00  0.00    -0.458 OA
BRANCH  41  42
ATOM     42  C   UNL     1      -8.167  -1.271  -3.036  1.00  0.00     0.205 CG0
ATOM     43  C   UNL     1      -9.195  -1.006  -4.133  1.00  0.00     0.056 C 
ATOM     44  G   UNL     1      -7.774  -2.759  -2.943  1.00  0.00     0.000 G0
ENDBRANCH  41  42
ENDBRANCH  39  41
ENDBRANCH  35  39
ENDBRANCH  33  35
ENDBRANCH  23  31
ENDBRANCH  21  23
ENDBRANCH  19  21
ENDBRANCH  14  19
ENDBRANCH   7  14
ENDBRANCH   2   5
BRANCH   3  45
ATOM     45  C   UNL     1      -5.693  -4.271  -0.077  1.00  0.00     0.171 C 
BRANCH  45  46
ATOM     46  N   UNL     1      -6.640  -4.033  -1.158  1.00  0.00    -0.342 N 
ATOM     47  C   UNL     1      -6.613  -2.894  -1.923  1.00  0.00     0.247 C 
ATOM     48  O   UNL     1      -5.747  -2.027  -1.801  1.00  0.00    -0.273 OA
ATOM     49  H   UNL     1      -7.340  -4.752  -1.331  1.00  0.00     0.164 HD
BRANCH  47  50
ATOM     50  C   UNL     1      -7.763  -2.760  -2.931  1.00  0.00     0.212 CG0
ATOM     51  G   UNL     1      -8.134  -1.267  -3.021  1.00  0.00     0.000 G0
BRANCH  50  52
ATOM     52  N   UNL     1      -7.247  -3.304  -4.185  1.00  0.00    -0.339 N 
ATOM     53  C   UNL     1      -7.424  -4.610  -4.572  1.00  0.00     0.243 C 
ATOM     54  O   UNL     1      -7.989  -5.439  -3.864  1.00  0.00    -0.273 OA
ATOM     55  H   UNL     1      -6.674  -2.693  -4.764  1.00  0.00     0.164 HD
BRANCH  53  56
ATOM     56  C   UNL     1      -6.716  -4.974  -5.893  1.00  0.00     0.182 C 
BRANCH  56  57
ATOM     57  N   UNL     1      -5.264  -4.808  -5.774  1.00  0.00    -0.344 N 
ATOM     58  C   UNL     1      -4.397  -5.873  -5.802  1.00  0.00     0.220 C 
ATOM     59  O   UNL     1      -4.778  -7.037  -5.854  1.00  0.00    -0.275 OA
ATOM     60  H   UNL     1      -4.903  -3.860  -5.832  1.00  0.00     0.164 HD
BRANCH  58  61
ATOM     61  C   UNL     1      -2.938  -5.463  -5.723  1.00  0.00     0.100 C 
BRANCH  61  62
ATOM     62  C   UNL     1      -2.026  -6.243  -6.670  1.00  0.00     0.010 C 
BRANCH  62  63
ATOM     63  C   UNL     1      -1.151  -5.360  -7.569  1.00  0.00     0.000 C 
BRANCH  63  64
ATOM     64  C   UNL     1      -1.561  -3.888  -7.592  1.00  0.00    -0.003 C 
ATOM     65  C   UNL     1      -1.287  -3.257  -8.949  1.00  0.00     0.004 C 
ENDBRANCH  63  64
ENDBRANCH  62  63
ENDBRANCH  61  62
ENDBRANCH  58  61
ENDBRANCH  56  57
BRANCH  56  66
ATOM     66  C   UNL     1      -7.292  -4.191  -7.072  1.00  0.00     0.157 C 
BRANCH  66  67
ATOM     67  C   UNL     1      -7.225  -4.991  -8.341  1.00  0.00     0.305 C 
ATOM     68  O   UNL     1      -6.291  -5.678  -8.725  1.00  0.00    -0.252 OA
BRANCH  67  69
ATOM     69  O   UNL     1      -8.369  -4.927  -9.047  1.00  0.00    -0.481 OA
ATOM     70  H   UNL     1      -9.076  -4.847  -8.372  1.00  0.00     0.296 HD
ENDBRANCH  67  69
ENDBRANCH  66  67
ENDBRANCH  56  66
ENDBRANCH  53  56
ENDBRANCH  50  52
ENDBRANCH  47  50
ENDBRANCH  45  46
BRANCH  45  71
ATOM     71  C   UNL     1      -5.000  -5.631  -0.221  1.00  0.00     0.037 C 
BRANCH  71  72
ATOM     72  C   UNL     1      -5.465  -6.630   0.841  1.00  0.00     0.026 C 
BRANCH  72  73
ATOM     73  C   UNL     1      -6.331  -7.731   0.233  1.00  0.00     0.146 C 
BRANCH  73  74
ATOM     74  N   UNL     1      -7.724  -7.431   0.550  1.00  0.00    -0.254 NA
ATOM     75  C   UNL     1      -8.569  -7.421  -0.414  1.00  0.00     0.185 C 
ATOM     76  N   UNL     1      -9.858  -7.149  -0.154  1.00  0.00    -0.370 N 
ATOM     77  N   UNL     1      -8.361  -7.653  -1.722  1.00  0.00    -0.370 N 
ATOM     78  H   UNL     1     -10.099  -6.955   0.808  1.00  0.00     0.159 HD
ATOM     79  H   UNL     1     -10.544  -6.982  -0.868  1.00  0.00     0.159 HD
ATOM     80  H   UNL     1      -7.438  -7.874  -2.064  1.00  0.00     0.159 HD
ATOM     81  H   UNL     1      -9.125  -7.731  -2.372  1.00  0.00     0.159 HD
ENDBRANCH  73  74
ENDBRANCH  72  73
ENDBRANCH  71  72
ENDBRANCH  45  71
ENDBRANCH   3  45
TORSDOF 20
ENDMDL
MODEL 26
REMARK VINA RESULT:    -6.019      2.890     14.083
REMARK INTER + INTRA:         -23.357
REMARK INTER:                 -16.844
REMARK INTRA:                  -6.513
REMARK UNBOUND:                -6.078
REMARK SMILES CCCCCC(=O)N[C@H](CC(=O)O)C(=O)N[C@H]1C(=O)N[C@H](CCCN=C(N)N)C(=O)N[C@@H]2CC[C@H](O)N(C2=O)[C@@H](CC(C)C)C(=O)N(C)[C@@H](Cc2ccccc2)C(=O)N[C@H](C(C)C)C(=O)O[C@@H]1C
REMARK SMILES IDX 30 1 31 2 29 3 32 5 35 6 37 7 34 8 38 9 33 10 39 11 36 12
REMARK SMILES IDX 40 14 41 15 42 16 43 17 44 18 45 19 46 20 47 21 48 22 49 23
REMARK SMILES IDX 50 24 51 25 52 26 56 27 53 28 55 29 54 30 57 31 58 32 59 33
REMARK SMILES IDX 60 35 61 36 62 37 63 38 64 39 65 40 66 41 67 42 68 43 21 45
REMARK SMILES IDX 20 46 18 47 19 48 17 50 16 52 14 53 15 54 9 56 8 57 6 58
REMARK SMILES IDX 7 59 5 61 4 62 3 63 2 64 1 65 10 66 11 67 12 68 13 69 22 71
REMARK SMILES IDX 23 72 24 73 25 74 26 75 27 76 28 77
REMARK H PARENT 31 4 36 13 59 34 20 49 16 55 8 60 13 70 27 78 27 79 28 80
REMARK H PARENT 28 81
REMARK Flexibility Score:  259.900
ROOT
ATOM      1  O   UNL     1      -6.915  -6.761   1.152  1.00  0.00    -0.273 OA
ATOM      2  N   UNL     1      -6.375  -4.721   2.033  1.00  0.00    -0.343 N 
ATOM      3  C   UNL     1      -6.521  -6.090   2.106  1.00  0.00     0.243 C 
ATOM      4  H   UNL     1      -6.034  -4.203   2.833  1.00  0.00     0.164 HD
ENDROOT
BRANCH   2   5
ATOM      5  C   UNL     1      -6.800  -3.991   0.843  1.00  0.00     0.171 C 
ATOM      6  C   UNL     1      -7.896  -4.849  -1.700  1.00  0.00     0.214 C 
ATOM      7  N   UNL     1      -6.466  -4.706  -1.555  1.00  0.00    -0.303 N 
ATOM      8  C   UNL     1      -8.689  -3.900  -0.814  1.00  0.00     0.057 C 
ATOM      9  C   UNL     1      -5.874  -4.350  -0.354  1.00  0.00     0.247 C 
ATOM     10  C   UNL     1      -8.308  -4.114   0.635  1.00  0.00     0.040 C 
ATOM     11  O   UNL     1      -4.644  -4.314  -0.215  1.00  0.00    -0.272 OA
BRANCH   6  12
ATOM     12  O   UNL     1      -8.227  -6.187  -1.408  1.00  0.00    -0.373 OA
ATOM     13  H   UNL     1      -8.598  -6.200  -0.500  1.00  0.00     0.213 HD
ENDBRANCH   6  12
BRANCH   7  14
ATOM     14  C   UNL     1      -5.633  -5.101  -2.710  1.00  0.00     0.177 C 
BRANCH  14  15
ATOM     15  C   UNL     1      -5.281  -6.600  -2.784  1.00  0.00     0.038 C 
BRANCH  15  16
ATOM     16  C   UNL     1      -3.818  -7.027  -3.037  1.00  0.00    -0.015 C 
ATOM     17  C   UNL     1      -3.324  -8.054  -2.015  1.00  0.00     0.007 C 
ATOM     18  C   UNL     1      -2.900  -5.800  -2.968  1.00  0.00     0.007 C 
ENDBRANCH  15  16
ENDBRANCH  14  15
BRANCH  14  19
ATOM     19  C   UNL     1      -5.937  -4.179  -3.941  1.00  0.00     0.245 C 
ATOM     20  O   UNL     1      -6.171  -2.983  -3.699  1.00  0.00    -0.272 OA
BRANCH  19  21
ATOM     21  N   UNL     1      -6.068  -4.643  -5.238  1.00  0.00    -0.332 N 
ATOM     22  C   UNL     1      -7.324  -4.938  -5.905  1.00  0.00     0.147 C 
BRANCH  21  23
ATOM     23  C   UNL     1      -4.824  -4.873  -6.023  1.00  0.00     0.178 C 
BRANCH  23  24
ATOM     24  C   UNL     1      -4.753  -6.240  -6.734  1.00  0.00     0.070 C 
BRANCH  24  25
ATOM     25  C   UNL     1      -3.437  -6.978  -6.675  1.00  0.00    -0.045 A 
ATOM     26  C   UNL     1      -3.392  -8.340  -6.351  1.00  0.00     0.004 A 
ATOM     27  C   UNL     1      -2.235  -6.305  -6.942  1.00  0.00     0.004 A 
ATOM     28  C   UNL     1      -2.169  -9.012  -6.282  1.00  0.00     0.000 A 
ATOM     29  C   UNL     1      -1.014  -6.978  -6.874  1.00  0.00     0.000 A 
ATOM     30  C   UNL     1      -0.982  -8.330  -6.541  1.00  0.00     0.000 A 
ENDBRANCH  24  25
ENDBRANCH  23  24
BRANCH  23  31
ATOM     31  C   UNL     1      -4.432  -3.661  -6.902  1.00  0.00     0.243 C 
ATOM     32  O   UNL     1      -4.366  -2.506  -6.488  1.00  0.00    -0.273 OA
ATOM     33  N   UNL     1      -4.339  -3.962  -8.250  1.00  0.00    -0.341 N 
ATOM     34  H   UNL     1      -4.408  -4.942  -8.534  1.00  0.00     0.164 HD
BRANCH  33  35
ATOM     35  C   UNL     1      -4.096  -2.948  -9.280  1.00  0.00     0.194 C 
BRANCH  35  36
ATOM     36  C   UNL     1      -4.794  -3.242 -10.638  1.00  0.00     0.017 C 
ATOM     37  C   UNL     1      -6.235  -2.704 -10.654  1.00  0.00     0.010 C 
ATOM     38  C   UNL     1      -4.858  -4.737 -10.972  1.00  0.00     0.010 C 
ENDBRANCH  35  36
BRANCH  35  39
ATOM     39  C   UNL     1      -2.586  -2.628  -9.460  1.00  0.00     0.329 C 
ATOM     40  O   UNL     1      -1.707  -3.480  -9.520  1.00  0.00    -0.250 OA
BRANCH  39  41
ATOM     41  O   UNL     1      -2.354  -1.292  -9.633  1.00  0.00    -0.458 OA
BRANCH  41  42
ATOM     42  C   UNL     1      -1.014  -0.920 -10.036  1.00  0.00     0.205 CG0
ATOM     43  C   UNL     1      -0.352  -0.241  -8.838  1.00  0.00     0.056 C 
ATOM     44  G   UNL     1      -1.108   0.008 -11.262  1.00  0.00     0.000 G0
ENDBRANCH  41  42
ENDBRANCH  39  41
ENDBRANCH  35  39
ENDBRANCH  33  35
ENDBRANCH  23  31
ENDBRANCH  21  23
ENDBRANCH  19  21
ENDBRANCH  14  19
ENDBRANCH   7  14
ENDBRANCH   2   5
BRANCH   3  45
ATOM     45  C   UNL     1      -6.139  -6.721   3.451  1.00  0.00     0.171 C 
BRANCH  45  46
ATOM     46  N   UNL     1      -7.373  -6.784   4.222  1.00  0.00    -0.342 N 
ATOM     47  C   UNL     1      -8.024  -7.966   4.474  1.00  0.00     0.247 C 
ATOM     48  O   UNL     1      -7.576  -9.061   4.134  1.00  0.00    -0.273 OA
ATOM     49  H   UNL     1      -7.750  -5.905   4.572  1.00  0.00     0.164 HD
BRANCH  47  50
ATOM     50  C   UNL     1      -9.373  -7.824   5.193  1.00  0.00     0.212 CG0
ATOM     51  G   UNL     1      -9.381  -8.818   6.372  1.00  0.00     0.000 G0
BRANCH  50  52
ATOM     52  N   UNL     1      -9.445  -6.428   5.615  1.00  0.00    -0.339 N 
ATOM     53  C   UNL     1     -10.017  -5.437   4.854  1.00  0.00     0.243 C 
ATOM     54  O   UNL     1     -10.467  -5.643   3.730  1.00  0.00    -0.273 OA
ATOM     55  H   UNL     1      -8.990  -6.174   6.489  1.00  0.00     0.164 HD
BRANCH  53  56
ATOM     56  C   UNL     1      -9.898  -4.027   5.467  1.00  0.00     0.182 C 
BRANCH  56  57
ATOM     57  N   UNL     1      -9.418  -3.061   4.475  1.00  0.00    -0.344 N 
ATOM     58  C   UNL     1      -9.954  -1.802   4.354  1.00  0.00     0.220 C 
ATOM     59  O   UNL     1     -10.916  -1.424   5.015  1.00  0.00    -0.275 OA
ATOM     60  H   UNL     1      -8.561  -3.295   3.981  1.00  0.00     0.164 HD
BRANCH  58  61
ATOM     61  C   UNL     1      -9.264  -0.952   3.303  1.00  0.00     0.100 C 
BRANCH  61  62
ATOM     62  C   UNL     1     -10.228  -0.264   2.336  1.00  0.00     0.010 C 
BRANCH  62  63
ATOM     63  C   UNL     1     -10.788  -1.187   1.246  1.00  0.00     0.000 C 
BRANCH  63  64
ATOM     64  C   UNL     1     -11.242  -0.459  -0.019  1.00  0.00    -0.003 C 
ATOM     65  C   UNL     1     -11.367  -1.417  -1.195  1.00  0.00     0.004 C 
ENDBRANCH  63  64
ENDBRANCH  62  63
ENDBRANCH  61  62
ENDBRANCH  58  61
ENDBRANCH  56  57
BRANCH  56  66
ATOM     66  C   UNL     1      -9.036  -4.036   6.728  1.00  0.00     0.157 C 
BRANCH  66  67
ATOM     67  C   UNL     1      -9.711  -3.306   7.853  1.00  0.00     0.305 C 
ATOM     68  O   UNL     1     -10.833  -3.510   8.291  1.00  0.00    -0.252 OA
BRANCH  67  69
ATOM     69  O   UNL     1      -8.912  -2.379   8.414  1.00  0.00    -0.481 OA
ATOM     70  H   UNL     1      -9.080  -1.560   7.901  1.00  0.00     0.296 HD
ENDBRANCH  67  69
ENDBRANCH  66  67
ENDBRANCH  56  66
ENDBRANCH  53  56
ENDBRANCH  50  52
ENDBRANCH  47  50
ENDBRANCH  45  46
BRANCH  45  71
ATOM     71  C   UNL     1      -5.075  -5.871   4.156  1.00  0.00     0.037 C 
BRANCH  71  72
ATOM     72  C   UNL     1      -5.631  -5.164   5.394  1.00  0.00     0.026 C 
BRANCH  72  73
ATOM     73  C   UNL     1      -4.865  -3.878   5.696  1.00  0.00     0.146 C 
BRANCH  73  74
ATOM     74  N   UNL     1      -5.760  -2.753   5.439  1.00  0.00    -0.254 NA
ATOM     75  C   UNL     1      -6.120  -2.034   6.438  1.00  0.00     0.185 C 
ATOM     76  N   UNL     1      -6.942  -0.992   6.233  1.00  0.00    -0.370 N 
ATOM     77  N   UNL     1      -5.787  -2.161   7.734  1.00  0.00    -0.370 N 
ATOM     78  H   UNL     1      -7.247  -0.830   5.284  1.00  0.00     0.159 HD
ATOM     79  H   UNL     1      -7.378  -0.477   6.977  1.00  0.00     0.159 HD
ATOM     80  H   UNL     1      -5.171  -2.901   8.036  1.00  0.00     0.159 HD
ATOM     81  H   UNL     1      -6.040  -1.464   8.415  1.00  0.00     0.159 HD
ENDBRANCH  73  74
ENDBRANCH  72  73
ENDBRANCH  71  72
ENDBRANCH  45  71
ENDBRANCH   3  45
TORSDOF 20
ENDMDL
MODEL 27
REMARK VINA RESULT:    -6.016      5.458      8.309
REMARK INTER + INTRA:         -23.350
REMARK INTER:                 -18.483
REMARK INTRA:                  -4.867
REMARK UNBOUND:                -6.078
REMARK SMILES CCCCCC(=O)N[C@H](CC(=O)O)C(=O)N[C@H]1C(=O)N[C@H](CCCN=C(N)N)C(=O)N[C@@H]2CC[C@H](O)N(C2=O)[C@@H](CC(C)C)C(=O)N(C)[C@@H](Cc2ccccc2)C(=O)N[C@H](C(C)C)C(=O)O[C@@H]1C
REMARK SMILES IDX 30 1 31 2 29 3 32 5 35 6 37 7 34 8 38 9 33 10 39 11 36 12
REMARK SMILES IDX 40 14 41 15 42 16 43 17 44 18 45 19 46 20 47 21 48 22 49 23
REMARK SMILES IDX 50 24 51 25 52 26 56 27 53 28 55 29 54 30 57 31 58 32 59 33
REMARK SMILES IDX 60 35 61 36 62 37 63 38 64 39 65 40 66 41 67 42 68 43 21 45
REMARK SMILES IDX 20 46 18 47 19 48 17 50 16 52 14 53 15 54 9 56 8 57 6 58
REMARK SMILES IDX 7 59 5 61 4 62 3 63 2 64 1 65 10 66 11 67 12 68 13 69 22 71
REMARK SMILES IDX 23 72 24 73 25 74 26 75 27 76 28 77
REMARK H PARENT 31 4 36 13 59 34 20 49 16 55 8 60 13 70 27 78 27 79 28 80
REMARK H PARENT 28 81
REMARK Flexibility Score:  259.900
ROOT
ATOM      1  O   UNL     1      -4.861  -5.037  -3.420  1.00  0.00    -0.273 OA
ATOM      2  N   UNL     1      -6.485  -3.567  -4.077  1.00  0.00    -0.343 N 
ATOM      3  C   UNL     1      -5.486  -4.483  -4.325  1.00  0.00     0.243 C 
ATOM      4  H   UNL     1      -6.988  -3.142  -4.847  1.00  0.00     0.164 HD
ENDROOT
BRANCH   2   5
ATOM      5  C   UNL     1      -6.765  -3.124  -2.716  1.00  0.00     0.171 C 
ATOM      6  C   UNL     1      -9.093  -1.911  -1.484  1.00  0.00     0.214 C 
ATOM      7  N   UNL     1      -8.064  -1.066  -2.044  1.00  0.00    -0.303 N 
ATOM      8  C   UNL     1      -8.564  -3.238  -0.962  1.00  0.00     0.057 C 
ATOM      9  C   UNL     1      -6.952  -1.580  -2.691  1.00  0.00     0.247 C 
ATOM     10  C   UNL     1      -7.856  -3.981  -2.074  1.00  0.00     0.040 C 
ATOM     11  O   UNL     1      -6.119  -0.850  -3.243  1.00  0.00    -0.272 OA
BRANCH   6  12
ATOM     12  O   UNL     1     -10.063  -2.127  -2.482  1.00  0.00    -0.373 OA
ATOM     13  H   UNL     1     -10.858  -1.611  -2.227  1.00  0.00     0.213 HD
ENDBRANCH   6  12
BRANCH   7  14
ATOM     14  C   UNL     1      -8.313   0.391  -2.031  1.00  0.00     0.177 C 
BRANCH  14  15
ATOM     15  C   UNL     1      -7.923   1.134  -3.324  1.00  0.00     0.038 C 
BRANCH  15  16
ATOM     16  C   UNL     1      -9.012   1.466  -4.368  1.00  0.00    -0.015 C 
ATOM     17  C   UNL     1      -9.613   0.210  -5.006  1.00  0.00     0.007 C 
ATOM     18  C   UNL     1      -8.413   2.332  -5.484  1.00  0.00     0.007 C 
ENDBRANCH  15  16
ENDBRANCH  14  15
BRANCH  14  19
ATOM     19  C   UNL     1      -9.554   0.723  -1.133  1.00  0.00     0.245 C 
ATOM     20  O   UNL     1     -10.654   0.799  -1.706  1.00  0.00    -0.272 OA
BRANCH  19  21
ATOM     21  N   UNL     1      -9.471   1.039   0.211  1.00  0.00    -0.332 N 
ATOM     22  C   UNL     1      -8.261   1.434   0.911  1.00  0.00     0.147 C 
BRANCH  21  23
ATOM     23  C   UNL     1     -10.717   0.960   1.023  1.00  0.00     0.178 C 
BRANCH  23  24
ATOM     24  C   UNL     1     -10.676  -0.072   2.169  1.00  0.00     0.070 C 
BRANCH  24  25
ATOM     25  C   UNL     1     -10.958  -1.512   1.809  1.00  0.00    -0.045 A 
ATOM     26  C   UNL     1     -10.319  -2.559   2.485  1.00  0.00     0.004 A 
ATOM     27  C   UNL     1     -11.865  -1.820   0.784  1.00  0.00     0.004 A 
ATOM     28  C   UNL     1     -10.572  -3.887   2.134  1.00  0.00     0.000 A 
ATOM     29  C   UNL     1     -12.118  -3.148   0.435  1.00  0.00     0.000 A 
ATOM     30  C   UNL     1     -11.468  -4.180   1.109  1.00  0.00     0.000 A 
ENDBRANCH  24  25
ENDBRANCH  23  24
BRANCH  23  31
ATOM     31  C   UNL     1     -11.269   2.350   1.417  1.00  0.00     0.243 C 
ATOM     32  O   UNL     1     -11.259   3.329   0.675  1.00  0.00    -0.273 OA
ATOM     33  N   UNL     1     -11.612   2.450   2.755  1.00  0.00    -0.341 N 
ATOM     34  H   UNL     1     -11.595   1.601   3.325  1.00  0.00     0.164 HD
BRANCH  33  35
ATOM     35  C   UNL     1     -12.045   3.705   3.377  1.00  0.00     0.194 C 
BRANCH  35  36
ATOM     36  C   UNL     1     -10.994   4.335   4.334  1.00  0.00     0.017 C 
ATOM     37  C   UNL     1     -11.179   3.833   5.776  1.00  0.00     0.010 C 
ATOM     38  C   UNL     1     -11.053   5.867   4.371  1.00  0.00     0.010 C 
ENDBRANCH  35  36
BRANCH  35  39
ATOM     39  C   UNL     1     -13.443   3.588   4.046  1.00  0.00     0.329 C 
ATOM     40  O   UNL     1     -14.191   4.539   4.242  1.00  0.00    -0.250 OA
BRANCH  39  41
ATOM     41  O   UNL     1     -13.785   2.292   4.314  1.00  0.00    -0.458 OA
BRANCH  41  42
ATOM     42  C   UNL     1     -14.600   2.074   5.490  1.00  0.00     0.205 CG0
ATOM     43  C   UNL     1     -15.735   1.133   5.088  1.00  0.00     0.056 C 
ATOM     44  G   UNL     1     -15.115   3.437   5.991  1.00  0.00     0.000 G0
ENDBRANCH  41  42
ENDBRANCH  39  41
ENDBRANCH  35  39
ENDBRANCH  33  35
ENDBRANCH  23  31
ENDBRANCH  21  23
ENDBRANCH  19  21
ENDBRANCH  14  19
ENDBRANCH   7  14
ENDBRANCH   2   5
BRANCH   3  45
ATOM     45  C   UNL     1      -5.220  -4.780  -5.807  1.00  0.00     0.171 C 
BRANCH  45  46
ATOM     46  N   UNL     1      -3.902  -4.228  -6.089  1.00  0.00    -0.342 N 
ATOM     47  C   UNL     1      -3.023  -4.827  -6.956  1.00  0.00     0.247 C 
ATOM     48  O   UNL     1      -3.309  -5.830  -7.611  1.00  0.00    -0.273 OA
ATOM     49  H   UNL     1      -3.646  -3.366  -5.611  1.00  0.00     0.164 HD
BRANCH  47  50
ATOM     50  C   UNL     1      -1.636  -4.172  -7.032  1.00  0.00     0.212 CG0
ATOM     51  G   UNL     1      -0.775  -5.010  -7.998  1.00  0.00     0.000 G0
BRANCH  50  52
ATOM     52  N   UNL     1      -1.875  -2.811  -7.505  1.00  0.00    -0.339 N 
ATOM     53  C   UNL     1      -1.953  -2.476  -8.835  1.00  0.00     0.243 C 
ATOM     54  O   UNL     1      -1.774  -3.292  -9.735  1.00  0.00    -0.273 OA
ATOM     55  H   UNL     1      -1.921  -2.069  -6.809  1.00  0.00     0.164 HD
BRANCH  53  56
ATOM     56  C   UNL     1      -2.124  -0.965  -9.093  1.00  0.00     0.182 C 
BRANCH  56  57
ATOM     57  N   UNL     1      -0.829  -0.277  -9.067  1.00  0.00    -0.344 N 
ATOM     58  C   UNL     1      -0.082  -0.071 -10.201  1.00  0.00     0.220 C 
ATOM     59  O   UNL     1      -0.408  -0.510 -11.299  1.00  0.00    -0.275 OA
ATOM     60  H   UNL     1      -0.573   0.189  -8.201  1.00  0.00     0.164 HD
BRANCH  58  61
ATOM     61  C   UNL     1       1.192   0.713  -9.948  1.00  0.00     0.100 C 
BRANCH  61  62
ATOM     62  C   UNL     1       1.690   0.630  -8.505  1.00  0.00     0.010 C 
BRANCH  62  63
ATOM     63  C   UNL     1       3.205   0.816  -8.352  1.00  0.00     0.000 C 
BRANCH  63  64
ATOM     64  C   UNL     1       3.904   1.328  -9.611  1.00  0.00    -0.003 C 
ATOM     65  C   UNL     1       4.755   0.243 -10.254  1.00  0.00     0.004 C 
ENDBRANCH  63  64
ENDBRANCH  62  63
ENDBRANCH  61  62
ENDBRANCH  58  61
ENDBRANCH  56  57
BRANCH  56  66
ATOM     66  C   UNL     1      -3.128  -0.342  -8.125  1.00  0.00     0.157 C 
BRANCH  66  67
ATOM     67  C   UNL     1      -2.474   0.693  -7.255  1.00  0.00     0.305 C 
ATOM     68  O   UNL     1      -2.381   1.889  -7.483  1.00  0.00    -0.252 OA
BRANCH  67  69
ATOM     69  O   UNL     1      -2.009   0.173  -6.103  1.00  0.00    -0.481 OA
ATOM     70  H   UNL     1      -1.185  -0.295  -6.354  1.00  0.00     0.296 HD
ENDBRANCH  67  69
ENDBRANCH  66  67
ENDBRANCH  56  66
ENDBRANCH  53  56
ENDBRANCH  50  52
ENDBRANCH  47  50
ENDBRANCH  45  46
BRANCH  45  71
ATOM     71  C   UNL     1      -6.302  -4.138  -6.683  1.00  0.00     0.037 C 
BRANCH  71  72
ATOM     72  C   UNL     1      -7.037  -5.171  -7.540  1.00  0.00     0.026 C 
BRANCH  72  73
ATOM     73  C   UNL     1      -7.463  -4.582  -8.884  1.00  0.00     0.146 C 
BRANCH  73  74
ATOM     74  N   UNL     1      -6.276  -4.495  -9.730  1.00  0.00    -0.254 NA
ATOM     75  C   UNL     1      -6.075  -5.435 -10.578  1.00  0.00     0.185 C 
ATOM     76  N   UNL     1      -4.993  -5.382 -11.371  1.00  0.00    -0.370 N 
ATOM     77  N   UNL     1      -6.817  -6.530 -10.817  1.00  0.00    -0.370 N 
ATOM     78  H   UNL     1      -4.375  -4.591 -11.250  1.00  0.00     0.159 HD
ATOM     79  H   UNL     1      -4.694  -6.145 -11.952  1.00  0.00     0.159 HD
ATOM     80  H   UNL     1      -7.664  -6.701 -10.297  1.00  0.00     0.159 HD
ATOM     81  H   UNL     1      -6.620  -7.143 -11.592  1.00  0.00     0.159 HD
ENDBRANCH  73  74
ENDBRANCH  72  73
ENDBRANCH  71  72
ENDBRANCH  45  71
ENDBRANCH   3  45
TORSDOF 20
ENDMDL
MODEL 28
REMARK VINA RESULT:    -6.013      6.067      9.183
REMARK INTER + INTRA:         -23.340
REMARK INTER:                 -16.695
REMARK INTRA:                  -6.644
REMARK UNBOUND:                -6.078
REMARK SMILES CCCCCC(=O)N[C@H](CC(=O)O)C(=O)N[C@H]1C(=O)N[C@H](CCCN=C(N)N)C(=O)N[C@@H]2CC[C@H](O)N(C2=O)[C@@H](CC(C)C)C(=O)N(C)[C@@H](Cc2ccccc2)C(=O)N[C@H](C(C)C)C(=O)O[C@@H]1C
REMARK SMILES IDX 30 1 31 2 29 3 32 5 35 6 37 7 34 8 38 9 33 10 39 11 36 12
REMARK SMILES IDX 40 14 41 15 42 16 43 17 44 18 45 19 46 20 47 21 48 22 49 23
REMARK SMILES IDX 50 24 51 25 52 26 56 27 53 28 55 29 54 30 57 31 58 32 59 33
REMARK SMILES IDX 60 35 61 36 62 37 63 38 64 39 65 40 66 41 67 42 68 43 21 45
REMARK SMILES IDX 20 46 18 47 19 48 17 50 16 52 14 53 15 54 9 56 8 57 6 58
REMARK SMILES IDX 7 59 5 61 4 62 3 63 2 64 1 65 10 66 11 67 12 68 13 69 22 71
REMARK SMILES IDX 23 72 24 73 25 74 26 75 27 76 28 77
REMARK H PARENT 31 4 36 13 59 34 20 49 16 55 8 60 13 70 27 78 27 79 28 80
REMARK H PARENT 28 81
REMARK Flexibility Score:  259.900
ROOT
ATOM      1  O   UNL     1      -7.028  -5.336  -5.120  1.00  0.00    -0.273 OA
ATOM      2  N   UNL     1      -6.503  -3.523  -3.828  1.00  0.00    -0.343 N 
ATOM      3  C   UNL     1      -6.309  -4.815  -4.266  1.00  0.00     0.243 C 
ATOM      4  H   UNL     1      -5.883  -3.123  -3.135  1.00  0.00     0.164 HD
ENDROOT
BRANCH   2   5
ATOM      5  C   UNL     1      -7.656  -2.751  -4.279  1.00  0.00     0.171 C 
ATOM      6  C   UNL     1      -8.435   0.016  -3.906  1.00  0.00     0.214 C 
ATOM      7  N   UNL     1      -8.885  -0.981  -2.964  1.00  0.00    -0.303 N 
ATOM      8  C   UNL     1      -8.231  -0.531  -5.310  1.00  0.00     0.057 C 
ATOM      9  C   UNL     1      -8.508  -2.312  -3.054  1.00  0.00     0.247 C 
ATOM     10  C   UNL     1      -7.237  -1.672  -5.276  1.00  0.00     0.040 C 
ATOM     11  O   UNL     1      -8.827  -3.144  -2.195  1.00  0.00    -0.272 OA
BRANCH   6  12
ATOM     12  O   UNL     1      -7.235   0.565  -3.412  1.00  0.00    -0.373 OA
ATOM     13  H   UNL     1      -7.041   1.363  -3.949  1.00  0.00     0.213 HD
ENDBRANCH   6  12
BRANCH   7  14
ATOM     14  C   UNL     1      -9.655  -0.502  -1.797  1.00  0.00     0.177 C 
BRANCH  14  15
ATOM     15  C   UNL     1      -8.992   0.635  -0.995  1.00  0.00     0.038 C 
BRANCH  15  16
ATOM     16  C   UNL     1      -9.427   0.892   0.465  1.00  0.00    -0.015 C 
ATOM     17  C   UNL     1      -8.373   1.666   1.261  1.00  0.00     0.007 C 
ATOM     18  C   UNL     1      -9.679  -0.446   1.173  1.00  0.00     0.007 C 
ENDBRANCH  15  16
ENDBRANCH  14  15
BRANCH  14  19
ATOM     19  C   UNL     1     -11.193  -0.647  -2.064  1.00  0.00     0.245 C 
ATOM     20  O   UNL     1     -11.762  -1.620  -1.542  1.00  0.00    -0.272 OA
BRANCH  19  21
ATOM     21  N   UNL     1     -11.907   0.171  -2.922  1.00  0.00    -0.332 N 
ATOM     22  C   UNL     1     -11.995   0.007  -4.362  1.00  0.00     0.147 C 
BRANCH  21  23
ATOM     23  C   UNL     1     -12.642   1.325  -2.334  1.00  0.00     0.178 C 
BRANCH  23  24
ATOM     24  C   UNL     1     -11.955   2.692  -2.526  1.00  0.00     0.070 C 
BRANCH  24  25
ATOM     25  C   UNL     1     -11.474   3.401  -1.281  1.00  0.00    -0.045 A 
ATOM     26  C   UNL     1     -10.324   4.201  -1.310  1.00  0.00     0.004 A 
ATOM     27  C   UNL     1     -12.173   3.263  -0.073  1.00  0.00     0.004 A 
ATOM     28  C   UNL     1      -9.876   4.839  -0.151  1.00  0.00     0.000 A 
ATOM     29  C   UNL     1     -11.725   3.902   1.084  1.00  0.00     0.000 A 
ATOM     30  C   UNL     1     -10.574   4.687   1.045  1.00  0.00     0.000 A 
ENDBRANCH  24  25
ENDBRANCH  23  24
BRANCH  23  31
ATOM     31  C   UNL     1     -14.155   1.305  -2.656  1.00  0.00     0.243 C 
ATOM     32  O   UNL     1     -14.906   0.377  -2.368  1.00  0.00    -0.273 OA
ATOM     33  N   UNL     1     -14.561   2.349  -3.470  1.00  0.00    -0.341 N 
ATOM     34  H   UNL     1     -13.888   3.090  -3.681  1.00  0.00     0.164 HD
BRANCH  33  35
ATOM     35  C   UNL     1     -15.923   2.466  -3.999  1.00  0.00     0.194 C 
BRANCH  35  36
ATOM     36  C   UNL     1     -15.993   2.997  -5.459  1.00  0.00     0.017 C 
ATOM     37  C   UNL     1     -17.367   3.619  -5.762  1.00  0.00     0.010 C 
ATOM     38  C   UNL     1     -15.740   1.909  -6.510  1.00  0.00     0.010 C 
ENDBRANCH  35  36
BRANCH  35  39
ATOM     39  C   UNL     1     -16.867   3.254  -3.049  1.00  0.00     0.329 C 
ATOM     40  O   UNL     1     -16.601   4.350  -2.571  1.00  0.00    -0.250 OA
BRANCH  39  41
ATOM     41  O   UNL     1     -18.070   2.627  -2.874  1.00  0.00    -0.458 OA
BRANCH  41  42
ATOM     42  C   UNL     1     -18.610   2.640  -1.531  1.00  0.00     0.205 CG0
ATOM     43  C   UNL     1     -18.083   1.398  -0.817  1.00  0.00     0.056 C 
ATOM     44  G   UNL     1     -20.149   2.660  -1.620  1.00  0.00     0.000 G0
ENDBRANCH  41  42
ENDBRANCH  39  41
ENDBRANCH  35  39
ENDBRANCH  33  35
ENDBRANCH  23  31
ENDBRANCH  21  23
ENDBRANCH  19  21
ENDBRANCH  14  19
ENDBRANCH   7  14
ENDBRANCH   2   5
BRANCH   3  45
ATOM     45  C   UNL     1      -5.123  -5.553  -3.632  1.00  0.00     0.171 C 
BRANCH  45  46
ATOM     46  N   UNL     1      -4.451  -6.236  -4.730  1.00  0.00    -0.342 N 
ATOM     47  C   UNL     1      -3.096  -6.451  -4.744  1.00  0.00     0.247 C 
ATOM     48  O   UNL     1      -2.362  -6.150  -3.802  1.00  0.00    -0.273 OA
ATOM     49  H   UNL     1      -5.031  -6.552  -5.505  1.00  0.00     0.164 HD
BRANCH  47  50
ATOM     50  C   UNL     1      -2.550  -7.073  -6.037  1.00  0.00     0.212 CG0
ATOM     51  G   UNL     1      -2.659  -8.605  -5.901  1.00  0.00     0.000 G0
BRANCH  50  52
ATOM     52  N   UNL     1      -3.378  -6.529  -7.111  1.00  0.00    -0.339 N 
ATOM     53  C   UNL     1      -2.927  -5.596  -8.013  1.00  0.00     0.243 C 
ATOM     54  O   UNL     1      -1.803  -5.106  -7.953  1.00  0.00    -0.273 OA
ATOM     55  H   UNL     1      -4.355  -6.813  -7.145  1.00  0.00     0.164 HD
BRANCH  53  56
ATOM     56  C   UNL     1      -4.006  -5.107  -9.001  1.00  0.00     0.182 C 
BRANCH  56  57
ATOM     57  N   UNL     1      -4.257  -3.671  -8.838  1.00  0.00    -0.344 N 
ATOM     58  C   UNL     1      -4.084  -2.773  -9.863  1.00  0.00     0.220 C 
ATOM     59  O   UNL     1      -3.639  -3.095 -10.959  1.00  0.00    -0.275 OA
ATOM     60  H   UNL     1      -4.720  -3.379  -7.982  1.00  0.00     0.164 HD
BRANCH  58  61
ATOM     61  C   UNL     1      -4.458  -1.352  -9.486  1.00  0.00     0.100 C 
BRANCH  61  62
ATOM     62  C   UNL     1      -3.276  -0.510  -9.006  1.00  0.00     0.010 C 
BRANCH  62  63
ATOM     63  C   UNL     1      -3.025  -0.586  -7.494  1.00  0.00     0.000 C 
BRANCH  63  64
ATOM     64  C   UNL     1      -1.861  -1.493  -7.097  1.00  0.00    -0.003 C 
ATOM     65  C   UNL     1      -0.858  -1.638  -8.232  1.00  0.00     0.004 C 
ENDBRANCH  63  64
ENDBRANCH  62  63
ENDBRANCH  61  62
ENDBRANCH  58  61
ENDBRANCH  56  57
BRANCH  56  66
ATOM     66  C   UNL     1      -5.286  -5.933  -8.886  1.00  0.00     0.157 C 
BRANCH  66  67
ATOM     67  C   UNL     1      -6.045  -5.943 -10.182  1.00  0.00     0.305 C 
ATOM     68  O   UNL     1      -7.247  -6.102 -10.326  1.00  0.00    -0.252 OA
BRANCH  67  69
ATOM     69  O   UNL     1      -5.251  -5.698 -11.242  1.00  0.00    -0.481 OA
ATOM     70  H   UNL     1      -5.466  -4.780 -11.509  1.00  0.00     0.296 HD
ENDBRANCH  67  69
ENDBRANCH  66  67
ENDBRANCH  56  66
ENDBRANCH  53  56
ENDBRANCH  50  52
ENDBRANCH  47  50
ENDBRANCH  45  46
BRANCH  45  71
ATOM     71  C   UNL     1      -5.615  -6.541  -2.568  1.00  0.00     0.037 C 
BRANCH  71  72
ATOM     72  C   UNL     1      -4.985  -6.273  -1.199  1.00  0.00     0.026 C 
BRANCH  72  73
ATOM     73  C   UNL     1      -4.709  -4.786  -0.990  1.00  0.00     0.146 C 
BRANCH  73  74
ATOM     74  N   UNL     1      -5.991  -4.116  -0.795  1.00  0.00    -0.254 NA
ATOM     75  C   UNL     1      -6.301  -3.752   0.395  1.00  0.00     0.185 C 
ATOM     76  N   UNL     1      -7.474  -3.132   0.606  1.00  0.00    -0.370 N 
ATOM     77  N   UNL     1      -5.601  -3.897   1.533  1.00  0.00    -0.370 N 
ATOM     78  H   UNL     1      -8.067  -2.989  -0.198  1.00  0.00     0.159 HD
ATOM     79  H   UNL     1      -7.846  -2.949   1.521  1.00  0.00     0.159 HD
ATOM     80  H   UNL     1      -4.696  -4.343   1.525  1.00  0.00     0.159 HD
ATOM     81  H   UNL     1      -5.895  -3.466   2.393  1.00  0.00     0.159 HD
ENDBRANCH  73  74
ENDBRANCH  72  73
ENDBRANCH  71  72
ENDBRANCH  45  71
ENDBRANCH   3  45
TORSDOF 20
ENDMDL
MODEL 29
REMARK VINA RESULT:    -5.976      5.734      9.332
REMARK INTER + INTRA:         -23.234
REMARK INTER:                 -17.113
REMARK INTRA:                  -6.121
REMARK UNBOUND:                -6.078
REMARK SMILES CCCCCC(=O)N[C@H](CC(=O)O)C(=O)N[C@H]1C(=O)N[C@H](CCCN=C(N)N)C(=O)N[C@@H]2CC[C@H](O)N(C2=O)[C@@H](CC(C)C)C(=O)N(C)[C@@H](Cc2ccccc2)C(=O)N[C@H](C(C)C)C(=O)O[C@@H]1C
REMARK SMILES IDX 30 1 31 2 29 3 32 5 35 6 37 7 34 8 38 9 33 10 39 11 36 12
REMARK SMILES IDX 40 14 41 15 42 16 43 17 44 18 45 19 46 20 47 21 48 22 49 23
REMARK SMILES IDX 50 24 51 25 52 26 56 27 53 28 55 29 54 30 57 31 58 32 59 33
REMARK SMILES IDX 60 35 61 36 62 37 63 38 64 39 65 40 66 41 67 42 68 43 21 45
REMARK SMILES IDX 20 46 18 47 19 48 17 50 16 52 14 53 15 54 9 56 8 57 6 58
REMARK SMILES IDX 7 59 5 61 4 62 3 63 2 64 1 65 10 66 11 67 12 68 13 69 22 71
REMARK SMILES IDX 23 72 24 73 25 74 26 75 27 76 28 77
REMARK H PARENT 31 4 36 13 59 34 20 49 16 55 8 60 13 70 27 78 27 79 28 80
REMARK H PARENT 28 81
REMARK Flexibility Score:  259.900
ROOT
ATOM      1  O   UNL     1      -8.081  -6.001  -3.661  1.00  0.00    -0.273 OA
ATOM      2  N   UNL     1      -7.032  -4.118  -2.897  1.00  0.00    -0.343 N 
ATOM      3  C   UNL     1      -7.250  -5.478  -2.917  1.00  0.00     0.243 C 
ATOM      4  H   UNL     1      -6.330  -3.724  -2.282  1.00  0.00     0.164 HD
ENDROOT
BRANCH   2   5
ATOM      5  C   UNL     1      -7.871  -3.219  -3.683  1.00  0.00     0.171 C 
ATOM      6  C   UNL     1      -8.107  -0.332  -3.777  1.00  0.00     0.214 C 
ATOM      7  N   UNL     1      -8.950  -1.085  -2.878  1.00  0.00    -0.303 N 
ATOM      8  C   UNL     1      -7.727  -1.102  -5.031  1.00  0.00     0.057 C 
ATOM      9  C   UNL     1      -8.853  -2.460  -2.746  1.00  0.00     0.247 C 
ATOM     10  C   UNL     1      -7.029  -2.389  -4.651  1.00  0.00     0.040 C 
ATOM     11  O   UNL     1      -9.518  -3.088  -1.912  1.00  0.00    -0.272 OA
BRANCH   6  12
ATOM     12  O   UNL     1      -6.953   0.052  -3.065  1.00  0.00    -0.373 OA
ATOM     13  H   UNL     1      -7.020  -0.349  -2.172  1.00  0.00     0.213 HD
ENDBRANCH   6  12
BRANCH   7  14
ATOM     14  C   UNL     1      -9.834  -0.310  -1.981  1.00  0.00     0.177 C 
BRANCH  14  15
ATOM     15  C   UNL     1      -9.141   0.814  -1.187  1.00  0.00     0.038 C 
BRANCH  15  16
ATOM     16  C   UNL     1      -8.366   0.469   0.104  1.00  0.00    -0.015 C 
ATOM     17  C   UNL     1      -9.252  -0.206   1.154  1.00  0.00     0.007 C 
ATOM     18  C   UNL     1      -7.782   1.748   0.717  1.00  0.00     0.007 C 
ENDBRANCH  15  16
ENDBRANCH  14  15
BRANCH  14  19
ATOM     19  C   UNL     1     -11.284  -0.241  -2.573  1.00  0.00     0.245 C 
ATOM     20  O   UNL     1     -11.384   0.066  -3.772  1.00  0.00    -0.272 OA
BRANCH  19  21
ATOM     21  N   UNL     1     -12.433  -0.391  -1.817  1.00  0.00    -0.332 N 
ATOM     22  C   UNL     1     -12.896  -1.633  -1.225  1.00  0.00     0.147 C 
BRANCH  21  23
ATOM     23  C   UNL     1     -13.281   0.812  -1.595  1.00  0.00     0.178 C 
BRANCH  23  24
ATOM     24  C   UNL     1     -12.501   2.136  -1.463  1.00  0.00     0.070 C 
BRANCH  24  25
ATOM     25  C   UNL     1     -11.986   2.498  -0.089  1.00  0.00    -0.045 A 
ATOM     26  C   UNL     1     -12.357   1.750   1.036  1.00  0.00     0.004 A 
ATOM     27  C   UNL     1     -11.130   3.597   0.079  1.00  0.00     0.004 A 
ATOM     28  C   UNL     1     -11.890   2.101   2.305  1.00  0.00     0.000 A 
ATOM     29  C   UNL     1     -10.664   3.945   1.348  1.00  0.00     0.000 A 
ATOM     30  C   UNL     1     -11.047   3.199   2.460  1.00  0.00     0.000 A 
ENDBRANCH  24  25
ENDBRANCH  23  24
BRANCH  23  31
ATOM     31  C   UNL     1     -14.507   0.870  -2.537  1.00  0.00     0.243 C 
ATOM     32  O   UNL     1     -15.505   0.164  -2.410  1.00  0.00    -0.273 OA
ATOM     33  N   UNL     1     -14.308   1.661  -3.656  1.00  0.00    -0.341 N 
ATOM     34  H   UNL     1     -13.455   2.222  -3.708  1.00  0.00     0.164 HD
BRANCH  33  35
ATOM     35  C   UNL     1     -15.287   1.769  -4.742  1.00  0.00     0.194 C 
BRANCH  35  36
ATOM     36  C   UNL     1     -14.656   1.824  -6.162  1.00  0.00     0.017 C 
ATOM     37  C   UNL     1     -15.738   1.881  -7.253  1.00  0.00     0.010 C 
ATOM     38  C   UNL     1     -13.756   0.621  -6.470  1.00  0.00     0.010 C 
ENDBRANCH  35  36
BRANCH  35  39
ATOM     39  C   UNL     1     -16.307   2.920  -4.515  1.00  0.00     0.329 C 
ATOM     40  O   UNL     1     -16.033   4.110  -4.620  1.00  0.00    -0.250 OA
BRANCH  39  41
ATOM     41  O   UNL     1     -17.569   2.455  -4.270  1.00  0.00    -0.458 OA
BRANCH  41  42
ATOM     42  C   UNL     1     -18.394   3.267  -3.401  1.00  0.00     0.205 CG0
ATOM     43  C   UNL     1     -18.256   2.704  -1.988  1.00  0.00     0.056 C 
ATOM     44  G   UNL     1     -19.847   3.219  -3.915  1.00  0.00     0.000 G0
ENDBRANCH  41  42
ENDBRANCH  39  41
ENDBRANCH  35  39
ENDBRANCH  33  35
ENDBRANCH  23  31
ENDBRANCH  21  23
ENDBRANCH  19  21
ENDBRANCH  14  19
ENDBRANCH   7  14
ENDBRANCH   2   5
BRANCH   3  45
ATOM     45  C   UNL     1      -6.372  -6.298  -1.962  1.00  0.00     0.171 C 
BRANCH  45  46
ATOM     46  N   UNL     1      -5.098  -6.469  -2.648  1.00  0.00    -0.342 N 
ATOM     47  C   UNL     1      -4.031  -7.109  -2.070  1.00  0.00     0.247 C 
ATOM     48  O   UNL     1      -4.093  -7.647  -0.964  1.00  0.00    -0.273 OA
ATOM     49  H   UNL     1      -5.021  -6.088  -3.589  1.00  0.00     0.164 HD
BRANCH  47  50
ATOM     50  C   UNL     1      -2.735  -7.084  -2.892  1.00  0.00     0.212 CG0
ATOM     51  G   UNL     1      -1.797  -8.166  -2.321  1.00  0.00     0.000 G0
BRANCH  50  52
ATOM     52  N   UNL     1      -3.142  -7.342  -4.270  1.00  0.00    -0.339 N 
ATOM     53  C   UNL     1      -2.714  -6.591  -5.339  1.00  0.00     0.243 C 
ATOM     54  O   UNL     1      -1.993  -5.606  -5.209  1.00  0.00    -0.273 OA
ATOM     55  H   UNL     1      -3.828  -8.077  -4.431  1.00  0.00     0.164 HD
BRANCH  53  56
ATOM     56  C   UNL     1      -3.347  -6.999  -6.685  1.00  0.00     0.182 C 
BRANCH  56  57
ATOM     57  N   UNL     1      -4.771  -6.652  -6.724  1.00  0.00    -0.344 N 
ATOM     58  C   UNL     1      -5.221  -5.437  -7.180  1.00  0.00     0.220 C 
ATOM     59  O   UNL     1      -4.464  -4.533  -7.516  1.00  0.00    -0.275 OA
ATOM     60  H   UNL     1      -5.433  -7.405  -6.552  1.00  0.00     0.164 HD
BRANCH  58  61
ATOM     61  C   UNL     1      -6.734  -5.320  -7.186  1.00  0.00     0.100 C 
BRANCH  61  62
ATOM     62  C   UNL     1      -7.251  -4.059  -7.879  1.00  0.00     0.010 C 
BRANCH  62  63
ATOM     63  C   UNL     1      -7.267  -4.147  -9.410  1.00  0.00     0.000 C 
BRANCH  63  64
ATOM     64  C   UNL     1      -7.241  -5.573  -9.957  1.00  0.00    -0.003 C 
ATOM     65  C   UNL     1      -6.112  -5.762 -10.960  1.00  0.00     0.004 C 
ENDBRANCH  63  64
ENDBRANCH  62  63
ENDBRANCH  61  62
ENDBRANCH  58  61
ENDBRANCH  56  57
BRANCH  56  66
ATOM     66  C   UNL     1      -3.103  -8.475  -6.994  1.00  0.00     0.157 C 
BRANCH  66  67
ATOM     67  C   UNL     1      -3.019  -8.713  -8.474  1.00  0.00     0.305 C 
ATOM     68  O   UNL     1      -2.122  -9.287  -9.074  1.00  0.00    -0.252 OA
BRANCH  67  69
ATOM     69  O   UNL     1      -4.104  -8.259  -9.129  1.00  0.00    -0.481 OA
ATOM     70  H   UNL     1      -4.441  -7.524  -8.574  1.00  0.00     0.296 HD
ENDBRANCH  67  69
ENDBRANCH  66  67
ENDBRANCH  56  66
ENDBRANCH  53  56
ENDBRANCH  50  52
ENDBRANCH  47  50
ENDBRANCH  45  46
BRANCH  45  71
ATOM     71  C   UNL     1      -7.034  -7.646  -1.654  1.00  0.00     0.037 C 
BRANCH  71  72
ATOM     72  C   UNL     1      -7.450  -7.761  -0.185  1.00  0.00     0.026 C 
BRANCH  72  73
ATOM     73  C   UNL     1      -7.567  -6.387   0.473  1.00  0.00     0.146 C 
BRANCH  73  74
ATOM     74  N   UNL     1      -7.030  -6.493   1.826  1.00  0.00    -0.254 NA
ATOM     75  C   UNL     1      -5.845  -6.050   2.036  1.00  0.00     0.185 C 
ATOM     76  N   UNL     1      -5.324  -6.132   3.271  1.00  0.00    -0.370 N 
ATOM     77  N   UNL     1      -4.988  -5.484   1.169  1.00  0.00    -0.370 N 
ATOM     78  H   UNL     1      -5.901  -6.554   3.984  1.00  0.00     0.159 HD
ATOM     79  H   UNL     1      -4.359  -5.942   3.478  1.00  0.00     0.159 HD
ATOM     80  H   UNL     1      -5.247  -5.353   0.202  1.00  0.00     0.159 HD
ATOM     81  H   UNL     1      -4.124  -5.068   1.475  1.00  0.00     0.159 HD
ENDBRANCH  73  74
ENDBRANCH  72  73
ENDBRANCH  71  72
ENDBRANCH  45  71
ENDBRANCH   3  45
TORSDOF 20
ENDMDL
MODEL 30
REMARK VINA RESULT:    -5.915      4.786     14.071
REMARK INTER + INTRA:         -23.057
REMARK INTER:                 -17.341
REMARK INTRA:                  -5.716
REMARK UNBOUND:                -6.078
REMARK SMILES CCCCCC(=O)N[C@H](CC(=O)O)C(=O)N[C@H]1C(=O)N[C@H](CCCN=C(N)N)C(=O)N[C@@H]2CC[C@H](O)N(C2=O)[C@@H](CC(C)C)C(=O)N(C)[C@@H](Cc2ccccc2)C(=O)N[C@H](C(C)C)C(=O)O[C@@H]1C
REMARK SMILES IDX 30 1 31 2 29 3 32 5 35 6 37 7 34 8 38 9 33 10 39 11 36 12
REMARK SMILES IDX 40 14 41 15 42 16 43 17 44 18 45 19 46 20 47 21 48 22 49 23
REMARK SMILES IDX 50 24 51 25 52 26 56 27 53 28 55 29 54 30 57 31 58 32 59 33
REMARK SMILES IDX 60 35 61 36 62 37 63 38 64 39 65 40 66 41 67 42 68 43 21 45
REMARK SMILES IDX 20 46 18 47 19 48 17 50 16 52 14 53 15 54 9 56 8 57 6 58
REMARK SMILES IDX 7 59 5 61 4 62 3 63 2 64 1 65 10 66 11 67 12 68 13 69 22 71
REMARK SMILES IDX 23 72 24 73 25 74 26 75 27 76 28 77
REMARK H PARENT 31 4 36 13 59 34 20 49 16 55 8 60 13 70 27 78 27 79 28 80
REMARK H PARENT 28 81
REMARK Flexibility Score:  259.900
ROOT
ATOM      1  O   UNL     1     -10.721  -4.987   5.143  1.00  0.00    -0.273 OA
ATOM      2  N   UNL     1      -9.938  -4.429   3.068  1.00  0.00    -0.343 N 
ATOM      3  C   UNL     1      -9.951  -5.205   4.207  1.00  0.00     0.243 C 
ATOM      4  H   UNL     1      -9.300  -4.646   2.312  1.00  0.00     0.164 HD
ENDROOT
BRANCH   2   5
ATOM      5  C   UNL     1     -10.766  -3.231   2.976  1.00  0.00     0.171 C 
ATOM      6  C   UNL     1     -11.759  -1.699   0.724  1.00  0.00     0.214 C 
ATOM      7  N   UNL     1     -10.494  -1.342   1.323  1.00  0.00    -0.303 N 
ATOM      8  C   UNL     1     -12.737  -2.320   1.709  1.00  0.00     0.057 C 
ATOM      9  C   UNL     1      -9.938  -2.063   2.368  1.00  0.00     0.247 C 
ATOM     10  C   UNL     1     -12.119  -3.548   2.340  1.00  0.00     0.040 C 
ATOM     11  O   UNL     1      -8.814  -1.804   2.818  1.00  0.00    -0.272 OA
BRANCH   6  12
ATOM     12  O   UNL     1     -11.497  -2.588  -0.337  1.00  0.00    -0.373 OA
ATOM     13  H   UNL     1     -11.885  -3.454  -0.089  1.00  0.00     0.213 HD
ENDBRANCH   6  12
BRANCH   7  14
ATOM     14  C   UNL     1      -9.730  -0.253   0.679  1.00  0.00     0.177 C 
BRANCH  14  15
ATOM     15  C   UNL     1      -9.190   0.825   1.638  1.00  0.00     0.038 C 
BRANCH  15  16
ATOM     16  C   UNL     1     -10.162   1.549   2.596  1.00  0.00    -0.015 C 
ATOM     17  C   UNL     1     -11.088   2.524   1.863  1.00  0.00     0.007 C 
ATOM     18  C   UNL     1      -9.367   2.337   3.644  1.00  0.00     0.007 C 
ENDBRANCH  15  16
ENDBRANCH  14  15
BRANCH  14  19
ATOM     19  C   UNL     1      -8.989  -0.788  -0.594  1.00  0.00     0.245 C 
ATOM     20  O   UNL     1      -7.996  -1.508  -0.402  1.00  0.00    -0.272 OA
BRANCH  19  21
ATOM     21  N   UNL     1      -9.311  -0.414  -1.887  1.00  0.00    -0.332 N 
ATOM     22  C   UNL     1     -10.656  -0.250  -2.407  1.00  0.00     0.147 C 
BRANCH  21  23
ATOM     23  C   UNL     1      -8.192  -0.168  -2.839  1.00  0.00     0.178 C 
BRANCH  23  24
ATOM     24  C   UNL     1      -8.523  -0.465  -4.316  1.00  0.00     0.070 C 
BRANCH  24  25
ATOM     25  C   UNL     1      -8.083  -1.803  -4.864  1.00  0.00    -0.045 A 
ATOM     26  C   UNL     1      -7.028  -1.890  -5.781  1.00  0.00     0.004 A 
ATOM     27  C   UNL     1      -8.733  -2.980  -4.463  1.00  0.00     0.004 A 
ATOM     28  C   UNL     1      -6.638  -3.129  -6.296  1.00  0.00     0.000 A 
ATOM     29  C   UNL     1      -8.342  -4.217  -4.978  1.00  0.00     0.000 A 
ATOM     30  C   UNL     1      -7.296  -4.290  -5.897  1.00  0.00     0.000 A 
ENDBRANCH  24  25
ENDBRANCH  23  24
BRANCH  23  31
ATOM     31  C   UNL     1      -7.474   1.180  -2.591  1.00  0.00     0.243 C 
ATOM     32  O   UNL     1      -6.432   1.296  -1.952  1.00  0.00    -0.273 OA
ATOM     33  N   UNL     1      -8.210   2.281  -2.996  1.00  0.00    -0.341 N 
ATOM     34  H   UNL     1      -9.074   2.121  -3.520  1.00  0.00     0.164 HD
BRANCH  33  35
ATOM     35  C   UNL     1      -7.781   3.661  -2.753  1.00  0.00     0.194 C 
BRANCH  35  36
ATOM     36  C   UNL     1      -8.943   4.636  -2.409  1.00  0.00     0.017 C 
ATOM     37  C   UNL     1      -9.487   4.379  -0.993  1.00  0.00     0.010 C 
ATOM     38  C   UNL     1     -10.125   4.534  -3.381  1.00  0.00     0.010 C 
ENDBRANCH  35  36
BRANCH  35  39
ATOM     39  C   UNL     1      -6.877   4.215  -3.890  1.00  0.00     0.329 C 
ATOM     40  O   UNL     1      -6.880   3.788  -5.039  1.00  0.00    -0.250 OA
BRANCH  39  41
ATOM     41  O   UNL     1      -6.138   5.293  -3.488  1.00  0.00    -0.458 OA
BRANCH  41  42
ATOM     42  C   UNL     1      -5.812   6.265  -4.511  1.00  0.00     0.205 CG0
ATOM     43  C   UNL     1      -4.296   6.243  -4.691  1.00  0.00     0.056 C 
ATOM     44  G   UNL     1      -6.334   7.644  -4.062  1.00  0.00     0.000 G0
ENDBRANCH  41  42
ENDBRANCH  39  41
ENDBRANCH  35  39
ENDBRANCH  33  35
ENDBRANCH  23  31
ENDBRANCH  21  23
ENDBRANCH  19  21
ENDBRANCH  14  19
ENDBRANCH   7  14
ENDBRANCH   2   5
BRANCH   3  45
ATOM     45  C   UNL     1      -8.954  -6.371   4.219  1.00  0.00     0.171 C 
BRANCH  45  46
ATOM     46  N   UNL     1      -9.199  -7.086   5.465  1.00  0.00    -0.342 N 
ATOM     47  C   UNL     1      -9.488  -8.427   5.500  1.00  0.00     0.247 C 
ATOM     48  O   UNL     1      -9.491  -9.137   4.494  1.00  0.00    -0.273 OA
ATOM     49  H   UNL     1      -9.151  -6.547   6.328  1.00  0.00     0.164 HD
BRANCH  47  50
ATOM     50  C   UNL     1      -9.839  -8.980   6.889  1.00  0.00     0.212 CG0
ATOM     51  G   UNL     1      -8.783 -10.043   7.249  1.00  0.00     0.000 G0
BRANCH  50  52
ATOM     52  N   UNL     1      -9.825  -7.825   7.783  1.00  0.00    -0.339 N 
ATOM     53  C   UNL     1      -8.930  -7.680   8.815  1.00  0.00     0.243 C 
ATOM     54  O   UNL     1      -8.102  -8.541   9.100  1.00  0.00    -0.273 OA
ATOM     55  H   UNL     1     -10.558  -7.129   7.668  1.00  0.00     0.164 HD
BRANCH  53  56
ATOM     56  C   UNL     1      -9.164  -6.422   9.676  1.00  0.00     0.182 C 
BRANCH  56  57
ATOM     57  N   UNL     1     -10.153  -5.536   9.055  1.00  0.00    -0.344 N 
ATOM     58  C   UNL     1     -11.062  -4.817   9.791  1.00  0.00     0.220 C 
ATOM     59  O   UNL     1     -11.160  -4.921  11.009  1.00  0.00    -0.275 OA
ATOM     60  H   UNL     1     -10.040  -5.344   8.063  1.00  0.00     0.164 HD
BRANCH  58  61
ATOM     61  C   UNL     1     -11.949  -3.922   8.945  1.00  0.00     0.100 C 
BRANCH  61  62
ATOM     62  C   UNL     1     -13.406  -3.885   9.405  1.00  0.00     0.010 C 
BRANCH  62  63
ATOM     63  C   UNL     1     -14.399  -3.468   8.312  1.00  0.00     0.000 C 
BRANCH  63  64
ATOM     64  C   UNL     1     -13.750  -3.135   6.970  1.00  0.00    -0.003 C 
ATOM     65  C   UNL     1     -14.201  -4.098   5.881  1.00  0.00     0.004 C 
ENDBRANCH  63  64
ENDBRANCH  62  63
ENDBRANCH  61  62
ENDBRANCH  58  61
ENDBRANCH  56  57
BRANCH  56  66
ATOM     66  C   UNL     1      -7.852  -5.700   9.980  1.00  0.00     0.157 C 
BRANCH  66  67
ATOM     67  C   UNL     1      -7.733  -5.383  11.443  1.00  0.00     0.305 C 
ATOM     68  O   UNL     1      -6.864  -4.711  11.978  1.00  0.00    -0.252 OA
BRANCH  67  69
ATOM     69  O   UNL     1      -8.754  -5.888  12.161  1.00  0.00    -0.481 OA
ATOM     70  H   UNL     1      -8.377  -6.671  12.615  1.00  0.00     0.296 HD
ENDBRANCH  67  69
ENDBRANCH  66  67
ENDBRANCH  56  66
ENDBRANCH  53  56
ENDBRANCH  50  52
ENDBRANCH  47  50
ENDBRANCH  45  46
BRANCH  45  71
ATOM     71  C   UNL     1      -7.516  -5.846   4.142  1.00  0.00     0.037 C 
BRANCH  71  72
ATOM     72  C   UNL     1      -6.975  -5.446   5.517  1.00  0.00     0.026 C 
BRANCH  72  73
ATOM     73  C   UNL     1      -6.807  -3.932   5.634  1.00  0.00     0.146 C 
BRANCH  73  74
ATOM     74  N   UNL     1      -7.345  -3.522   6.928  1.00  0.00    -0.254 NA
ATOM     75  C   UNL     1      -8.365  -2.745   6.934  1.00  0.00     0.185 C 
ATOM     76  N   UNL     1      -8.883  -2.352   8.108  1.00  0.00    -0.370 N 
ATOM     77  N   UNL     1      -9.040  -2.230   5.892  1.00  0.00    -0.370 N 
ATOM     78  H   UNL     1      -8.429  -2.689   8.945  1.00  0.00     0.159 HD
ATOM     79  H   UNL     1      -9.583  -1.636   8.192  1.00  0.00     0.159 HD
ATOM     80  H   UNL     1      -8.765  -2.444   4.945  1.00  0.00     0.159 HD
ATOM     81  H   UNL     1      -9.900  -1.722   6.019  1.00  0.00     0.159 HD
ENDBRANCH  73  74
ENDBRANCH  72  73
ENDBRANCH  71  72
ENDBRANCH  45  71
ENDBRANCH   3  45
TORSDOF 20
ENDMDL
MODEL 31
REMARK VINA RESULT:    -5.891      4.813      8.129
REMARK INTER + INTRA:         -22.989
REMARK INTER:                 -15.827
REMARK INTRA:                  -7.162
REMARK UNBOUND:                -6.078
REMARK SMILES CCCCCC(=O)N[C@H](CC(=O)O)C(=O)N[C@H]1C(=O)N[C@H](CCCN=C(N)N)C(=O)N[C@@H]2CC[C@H](O)N(C2=O)[C@@H](CC(C)C)C(=O)N(C)[C@@H](Cc2ccccc2)C(=O)N[C@H](C(C)C)C(=O)O[C@@H]1C
REMARK SMILES IDX 30 1 31 2 29 3 32 5 35 6 37 7 34 8 38 9 33 10 39 11 36 12
REMARK SMILES IDX 40 14 41 15 42 16 43 17 44 18 45 19 46 20 47 21 48 22 49 23
REMARK SMILES IDX 50 24 51 25 52 26 56 27 53 28 55 29 54 30 57 31 58 32 59 33
REMARK SMILES IDX 60 35 61 36 62 37 63 38 64 39 65 40 66 41 67 42 68 43 21 45
REMARK SMILES IDX 20 46 18 47 19 48 17 50 16 52 14 53 15 54 9 56 8 57 6 58
REMARK SMILES IDX 7 59 5 61 4 62 3 63 2 64 1 65 10 66 11 67 12 68 13 69 22 71
REMARK SMILES IDX 23 72 24 73 25 74 26 75 27 76 28 77
REMARK H PARENT 31 4 36 13 59 34 20 49 16 55 8 60 13 70 27 78 27 79 28 80
REMARK H PARENT 28 81
REMARK Flexibility Score:  259.900
ROOT
ATOM      1  O   UNL     1      -3.817  -3.662  -6.224  1.00  0.00    -0.273 OA
ATOM      2  N   UNL     1      -5.991  -3.010  -6.512  1.00  0.00    -0.343 N 
ATOM      3  C   UNL     1      -4.771  -3.454  -6.975  1.00  0.00     0.243 C 
ATOM      4  H   UNL     1      -6.757  -2.864  -7.157  1.00  0.00     0.164 HD
ENDROOT
BRANCH   2   5
ATOM      5  C   UNL     1      -6.166  -2.652  -5.109  1.00  0.00     0.171 C 
ATOM      6  C   UNL     1      -8.514  -2.378  -3.430  1.00  0.00     0.214 C 
ATOM      7  N   UNL     1      -8.013  -1.226  -4.144  1.00  0.00    -0.303 N 
ATOM      8  C   UNL     1      -7.427  -3.374  -3.057  1.00  0.00     0.057 C 
ATOM      9  C   UNL     1      -6.927  -1.299  -5.002  1.00  0.00     0.247 C 
ATOM     10  C   UNL     1      -6.703  -3.834  -4.303  1.00  0.00     0.040 C 
ATOM     11  O   UNL     1      -6.558  -0.329  -5.676  1.00  0.00    -0.272 OA
BRANCH   6  12
ATOM     12  O   UNL     1      -9.490  -2.994  -4.238  1.00  0.00    -0.373 OA
ATOM     13  H   UNL     1      -9.298  -3.956  -4.237  1.00  0.00     0.213 HD
ENDBRANCH   6  12
BRANCH   7  14
ATOM     14  C   UNL     1      -8.799   0.021  -4.040  1.00  0.00     0.177 C 
BRANCH  14  15
ATOM     15  C   UNL     1      -9.309   0.589  -5.379  1.00  0.00     0.038 C 
BRANCH  15  16
ATOM     16  C   UNL     1      -9.634   2.095  -5.492  1.00  0.00    -0.015 C 
ATOM     17  C   UNL     1     -11.127   2.385  -5.315  1.00  0.00     0.007 C 
ATOM     18  C   UNL     1      -9.203   2.616  -6.869  1.00  0.00     0.007 C 
ENDBRANCH  15  16
ENDBRANCH  14  15
BRANCH  14  19
ATOM     19  C   UNL     1      -9.581   0.059  -2.682  1.00  0.00     0.245 C 
ATOM     20  O   UNL     1     -10.804  -0.157  -2.734  1.00  0.00    -0.272 OA
BRANCH  19  21
ATOM     21  N   UNL     1      -9.013   0.424  -1.474  1.00  0.00    -0.332 N 
ATOM     22  C   UNL     1      -7.835   1.258  -1.315  1.00  0.00     0.147 C 
BRANCH  21  23
ATOM     23  C   UNL     1      -9.646  -0.083  -0.226  1.00  0.00     0.178 C 
BRANCH  23  24
ATOM     24  C   UNL     1      -8.682  -0.799   0.742  1.00  0.00     0.070 C 
BRANCH  24  25
ATOM     25  C   UNL     1      -8.941  -2.263   1.014  1.00  0.00    -0.045 A 
ATOM     26  C   UNL     1      -8.672  -2.818   2.272  1.00  0.00     0.004 A 
ATOM     27  C   UNL     1      -9.454  -3.090   0.004  1.00  0.00     0.004 A 
ATOM     28  C   UNL     1      -8.898  -4.175   2.510  1.00  0.00     0.000 A 
ATOM     29  C   UNL     1      -9.681  -4.446   0.244  1.00  0.00     0.000 A 
ATOM     30  C   UNL     1      -9.400  -4.988   1.496  1.00  0.00     0.000 A 
ENDBRANCH  24  25
ENDBRANCH  23  24
BRANCH  23  31
ATOM     31  C   UNL     1     -10.586   0.952   0.438  1.00  0.00     0.243 C 
ATOM     32  O   UNL     1     -11.031   1.943  -0.136  1.00  0.00    -0.273 OA
ATOM     33  N   UNL     1     -10.737   0.767   1.802  1.00  0.00    -0.341 N 
ATOM     34  H   UNL     1     -10.338  -0.074   2.224  1.00  0.00     0.164 HD
BRANCH  33  35
ATOM     35  C   UNL     1     -11.485   1.695   2.655  1.00  0.00     0.194 C 
BRANCH  35  36
ATOM     36  C   UNL     1     -10.600   2.487   3.659  1.00  0.00     0.017 C 
ATOM     37  C   UNL     1     -10.673   4.001   3.394  1.00  0.00     0.010 C 
ATOM     38  C   UNL     1      -9.121   2.084   3.610  1.00  0.00     0.010 C 
ENDBRANCH  35  36
BRANCH  35  39
ATOM     39  C   UNL     1     -12.695   1.018   3.358  1.00  0.00     0.329 C 
ATOM     40  O   UNL     1     -13.445   0.217   2.812  1.00  0.00    -0.250 OA
BRANCH  39  41
ATOM     41  O   UNL     1     -12.779   1.348   4.682  1.00  0.00    -0.458 OA
BRANCH  41  42
ATOM     42  C   UNL     1     -14.062   1.836   5.141  1.00  0.00     0.205 CG0
ATOM     43  C   UNL     1     -14.125   3.327   4.815  1.00  0.00     0.056 C 
ATOM     44  G   UNL     1     -14.183   1.557   6.652  1.00  0.00     0.000 G0
ENDBRANCH  41  42
ENDBRANCH  39  41
ENDBRANCH  35  39
ENDBRANCH  33  35
ENDBRANCH  23  31
ENDBRANCH  21  23
ENDBRANCH  19  21
ENDBRANCH  14  19
ENDBRANCH   7  14
ENDBRANCH   2   5
BRANCH   3  45
ATOM     45  C   UNL     1      -4.690  -3.692  -8.489  1.00  0.00     0.171 C 
BRANCH  45  46
ATOM     46  N   UNL     1      -4.305  -5.088  -8.648  1.00  0.00    -0.342 N 
ATOM     47  C   UNL     1      -5.218  -6.077  -8.920  1.00  0.00     0.247 C 
ATOM     48  O   UNL     1      -6.411  -5.848  -9.121  1.00  0.00    -0.273 OA
ATOM     49  H   UNL     1      -3.318  -5.314  -8.545  1.00  0.00     0.164 HD
BRANCH  47  50
ATOM     50  C   UNL     1      -4.648  -7.502  -8.929  1.00  0.00     0.212 CG0
ATOM     51  G   UNL     1      -3.932  -7.711 -10.279  1.00  0.00     0.000 G0
BRANCH  50  52
ATOM     52  N   UNL     1      -3.748  -7.570  -7.782  1.00  0.00    -0.339 N 
ATOM     53  C   UNL     1      -4.134  -7.266  -6.499  1.00  0.00     0.243 C 
ATOM     54  O   UNL     1      -5.260  -6.860  -6.226  1.00  0.00    -0.273 OA
ATOM     55  H   UNL     1      -2.770  -7.793  -7.960  1.00  0.00     0.164 HD
BRANCH  53  56
ATOM     56  C   UNL     1      -2.989  -7.325  -5.468  1.00  0.00     0.182 C 
BRANCH  56  57
ATOM     57  N   UNL     1      -3.160  -6.302  -4.431  1.00  0.00    -0.344 N 
ATOM     58  C   UNL     1      -3.798  -6.559  -3.243  1.00  0.00     0.220 C 
ATOM     59  O   UNL     1      -4.332  -7.634  -2.995  1.00  0.00    -0.275 OA
ATOM     60  H   UNL     1      -2.647  -5.433  -4.553  1.00  0.00     0.164 HD
BRANCH  58  61
ATOM     61  C   UNL     1      -3.807  -5.372  -2.297  1.00  0.00     0.100 C 
BRANCH  61  62
ATOM     62  C   UNL     1      -4.872  -5.463  -1.203  1.00  0.00     0.010 C 
BRANCH  62  63
ATOM     63  C   UNL     1      -5.076  -4.163  -0.416  1.00  0.00     0.000 C 
BRANCH  63  64
ATOM     64  C   UNL     1      -5.429  -4.370   1.056  1.00  0.00    -0.003 C 
ATOM     65  C   UNL     1      -5.748  -5.829   1.350  1.00  0.00     0.004 C 
ENDBRANCH  63  64
ENDBRANCH  62  63
ENDBRANCH  61  62
ENDBRANCH  58  61
ENDBRANCH  56  57
BRANCH  56  66
ATOM     66  C   UNL     1      -1.621  -7.238  -6.144  1.00  0.00     0.157 C 
BRANCH  66  67
ATOM     67  C   UNL     1      -1.422  -5.902  -6.798  1.00  0.00     0.305 C 
ATOM     68  O   UNL     1      -1.450  -5.660  -7.995  1.00  0.00    -0.252 OA
BRANCH  67  69
ATOM     69  O   UNL     1      -1.246  -4.914  -5.900  1.00  0.00    -0.481 OA
ATOM     70  H   UNL     1      -0.507  -5.220  -5.333  1.00  0.00     0.296 HD
ENDBRANCH  67  69
ENDBRANCH  66  67
ENDBRANCH  56  66
ENDBRANCH  53  56
ENDBRANCH  50  52
ENDBRANCH  47  50
ENDBRANCH  45  46
BRANCH  45  71
ATOM     71  C   UNL     1      -3.663  -2.747  -9.123  1.00  0.00     0.037 C 
BRANCH  71  72
ATOM     72  C   UNL     1      -4.324  -1.520  -9.756  1.00  0.00     0.026 C 
BRANCH  72  73
ATOM     73  C   UNL     1      -4.539  -0.408  -8.731  1.00  0.00     0.146 C 
BRANCH  73  74
ATOM     74  N   UNL     1      -3.234   0.162  -8.410  1.00  0.00    -0.254 NA
ATOM     75  C   UNL     1      -2.818   0.062  -7.202  1.00  0.00     0.185 C 
ATOM     76  N   UNL     1      -1.620   0.576  -6.876  1.00  0.00    -0.370 N 
ATOM     77  N   UNL     1      -3.421  -0.508  -6.145  1.00  0.00    -0.370 N 
ATOM     78  H   UNL     1      -1.102   1.031  -7.614  1.00  0.00     0.159 HD
ATOM     79  H   UNL     1      -1.295   0.664  -5.930  1.00  0.00     0.159 HD
ATOM     80  H   UNL     1      -4.328  -0.939  -6.242  1.00  0.00     0.159 HD
ATOM     81  H   UNL     1      -2.945  -0.628  -5.266  1.00  0.00     0.159 HD
ENDBRANCH  73  74
ENDBRANCH  72  73
ENDBRANCH  71  72
ENDBRANCH  45  71
ENDBRANCH   3  45
TORSDOF 20
ENDMDL
MODEL 32
REMARK VINA RESULT:    -5.834      3.467     14.238
REMARK INTER + INTRA:         -22.825
REMARK INTER:                 -18.303
REMARK INTRA:                  -4.522
REMARK UNBOUND:                -6.078
REMARK SMILES CCCCCC(=O)N[C@H](CC(=O)O)C(=O)N[C@H]1C(=O)N[C@H](CCCN=C(N)N)C(=O)N[C@@H]2CC[C@H](O)N(C2=O)[C@@H](CC(C)C)C(=O)N(C)[C@@H](Cc2ccccc2)C(=O)N[C@H](C(C)C)C(=O)O[C@@H]1C
REMARK SMILES IDX 30 1 31 2 29 3 32 5 35 6 37 7 34 8 38 9 33 10 39 11 36 12
REMARK SMILES IDX 40 14 41 15 42 16 43 17 44 18 45 19 46 20 47 21 48 22 49 23
REMARK SMILES IDX 50 24 51 25 52 26 56 27 53 28 55 29 54 30 57 31 58 32 59 33
REMARK SMILES IDX 60 35 61 36 62 37 63 38 64 39 65 40 66 41 67 42 68 43 21 45
REMARK SMILES IDX 20 46 18 47 19 48 17 50 16 52 14 53 15 54 9 56 8 57 6 58
REMARK SMILES IDX 7 59 5 61 4 62 3 63 2 64 1 65 10 66 11 67 12 68 13 69 22 71
REMARK SMILES IDX 23 72 24 73 25 74 26 75 27 76 28 77
REMARK H PARENT 31 4 36 13 59 34 20 49 16 55 8 60 13 70 27 78 27 79 28 80
REMARK H PARENT 28 81
REMARK Flexibility Score:  259.900
ROOT
ATOM      1  O   UNL     1     -11.306  -3.781   5.288  1.00  0.00    -0.273 OA
ATOM      2  N   UNL     1     -10.892  -5.601   3.966  1.00  0.00    -0.343 N 
ATOM      3  C   UNL     1     -11.315  -5.002   5.134  1.00  0.00     0.243 C 
ATOM      4  H   UNL     1     -10.927  -6.608   3.870  1.00  0.00     0.164 HD
ENDROOT
BRANCH   2   5
ATOM      5  C   UNL     1     -10.300  -4.806   2.897  1.00  0.00     0.171 C 
ATOM      6  C   UNL     1      -9.800  -5.347   0.093  1.00  0.00     0.214 C 
ATOM      7  N   UNL     1      -8.777  -5.648   1.067  1.00  0.00    -0.303 N 
ATOM      8  C   UNL     1     -10.687  -4.179   0.492  1.00  0.00     0.057 C 
ATOM      9  C   UNL     1      -8.970  -5.462   2.427  1.00  0.00     0.247 C 
ATOM     10  C   UNL     1     -11.337  -4.463   1.829  1.00  0.00     0.040 C 
ATOM     11  O   UNL     1      -8.122  -5.803   3.262  1.00  0.00    -0.272 OA
BRANCH   6  12
ATOM     12  O   UNL     1     -10.572  -6.510  -0.094  1.00  0.00    -0.373 OA
ATOM     13  H   UNL     1     -10.226  -6.960  -0.895  1.00  0.00     0.213 HD
ENDBRANCH   6  12
BRANCH   7  14
ATOM     14  C   UNL     1      -7.552  -6.310   0.571  1.00  0.00     0.177 C 
BRANCH  14  15
ATOM     15  C   UNL     1      -7.185  -7.628   1.280  1.00  0.00     0.038 C 
BRANCH  15  16
ATOM     16  C   UNL     1      -5.700  -7.967   1.534  1.00  0.00    -0.015 C 
ATOM     17  C   UNL     1      -5.525  -9.119   2.528  1.00  0.00     0.007 C 
ATOM     18  C   UNL     1      -4.975  -6.736   2.093  1.00  0.00     0.007 C 
ENDBRANCH  15  16
ENDBRANCH  14  15
BRANCH  14  19
ATOM     19  C   UNL     1      -7.356  -6.016  -0.956  1.00  0.00     0.245 C 
ATOM     20  O   UNL     1      -7.920  -6.786  -1.751  1.00  0.00    -0.272 OA
BRANCH  19  21
ATOM     21  N   UNL     1      -6.516  -5.034  -1.451  1.00  0.00    -0.332 N 
ATOM     22  C   UNL     1      -5.221  -4.678  -0.901  1.00  0.00     0.147 C 
BRANCH  21  23
ATOM     23  C   UNL     1      -6.971  -4.264  -2.642  1.00  0.00     0.178 C 
BRANCH  23  24
ATOM     24  C   UNL     1      -6.857  -2.732  -2.501  1.00  0.00     0.070 C 
BRANCH  24  25
ATOM     25  C   UNL     1      -8.062  -2.000  -1.959  1.00  0.00    -0.045 A 
ATOM     26  C   UNL     1      -8.008  -1.348  -0.720  1.00  0.00     0.004 A 
ATOM     27  C   UNL     1      -9.259  -1.966  -2.691  1.00  0.00     0.004 A 
ATOM     28  C   UNL     1      -9.132  -0.688  -0.218  1.00  0.00     0.000 A 
ATOM     29  C   UNL     1     -10.380  -1.305  -2.188  1.00  0.00     0.000 A 
ATOM     30  C   UNL     1     -10.317  -0.668  -0.950  1.00  0.00     0.000 A 
ENDBRANCH  24  25
ENDBRANCH  23  24
BRANCH  23  31
ATOM     31  C   UNL     1      -6.433  -4.838  -3.974  1.00  0.00     0.243 C 
ATOM     32  O   UNL     1      -7.113  -5.482  -4.769  1.00  0.00    -0.273 OA
ATOM     33  N   UNL     1      -5.060  -4.723  -4.111  1.00  0.00    -0.341 N 
ATOM     34  H   UNL     1      -4.546  -4.179  -3.413  1.00  0.00     0.164 HD
BRANCH  33  35
ATOM     35  C   UNL     1      -4.318  -5.300  -5.235  1.00  0.00     0.194 C 
BRANCH  35  36
ATOM     36  C   UNL     1      -2.914  -5.849  -4.855  1.00  0.00     0.017 C 
ATOM     37  C   UNL     1      -2.519  -7.040  -5.745  1.00  0.00     0.010 C 
ATOM     38  C   UNL     1      -2.822  -6.315  -3.397  1.00  0.00     0.010 C 
ENDBRANCH  35  36
BRANCH  35  39
ATOM     39  C   UNL     1      -4.256  -4.349  -6.463  1.00  0.00     0.329 C 
ATOM     40  O   UNL     1      -3.716  -3.249  -6.452  1.00  0.00    -0.250 OA
BRANCH  39  41
ATOM     41  O   UNL     1      -4.798  -4.912  -7.585  1.00  0.00    -0.458 OA
BRANCH  41  42
ATOM     42  C   UNL     1      -4.009  -4.817  -8.795  1.00  0.00     0.205 CG0
ATOM     43  C   UNL     1      -4.897  -5.268  -9.953  1.00  0.00     0.056 C 
ATOM     44  G   UNL     1      -2.755  -5.698  -8.635  1.00  0.00     0.000 G0
ENDBRANCH  41  42
ENDBRANCH  39  41
ENDBRANCH  35  39
ENDBRANCH  33  35
ENDBRANCH  23  31
ENDBRANCH  21  23
ENDBRANCH  19  21
ENDBRANCH  14  19
ENDBRANCH   7  14
ENDBRANCH   2   5
BRANCH   3  45
ATOM     45  C   UNL     1     -11.817  -5.963   6.220  1.00  0.00     0.171 C 
BRANCH  45  46
ATOM     46  N   UNL     1     -12.199  -5.119   7.345  1.00  0.00    -0.342 N 
ATOM     47  C   UNL     1     -13.509  -4.902   7.691  1.00  0.00     0.247 C 
ATOM     48  O   UNL     1     -14.450  -5.459   7.125  1.00  0.00    -0.273 OA
ATOM     49  H   UNL     1     -11.447  -4.683   7.877  1.00  0.00     0.164 HD
BRANCH  47  50
ATOM     50  C   UNL     1     -13.723  -3.888   8.823  1.00  0.00     0.212 CG0
ATOM     51  G   UNL     1     -12.334  -3.464   9.340  1.00  0.00     0.000 G0
BRANCH  50  52
ATOM     52  N   UNL     1     -14.476  -2.789   8.225  1.00  0.00    -0.339 N 
ATOM     53  C   UNL     1     -15.803  -2.549   8.491  1.00  0.00     0.243 C 
ATOM     54  O   UNL     1     -16.474  -3.277   9.217  1.00  0.00    -0.273 OA
ATOM     55  H   UNL     1     -14.004  -2.216   7.528  1.00  0.00     0.164 HD
BRANCH  53  56
ATOM     56  C   UNL     1     -16.406  -1.387   7.676  1.00  0.00     0.182 C 
BRANCH  56  57
ATOM     57  N   UNL     1     -15.741  -1.255   6.376  1.00  0.00    -0.344 N 
ATOM     58  C   UNL     1     -16.114  -1.994   5.280  1.00  0.00     0.220 C 
ATOM     59  O   UNL     1     -16.976  -2.865   5.329  1.00  0.00    -0.275 OA
ATOM     60  H   UNL     1     -15.094  -0.478   6.266  1.00  0.00     0.164 HD
BRANCH  58  61
ATOM     61  C   UNL     1     -15.328  -1.651   4.028  1.00  0.00     0.100 C 
BRANCH  61  62
ATOM     62  C   UNL     1     -13.825  -1.507   4.263  1.00  0.00     0.010 C 
BRANCH  62  63
ATOM     63  C   UNL     1     -12.979  -1.589   2.986  1.00  0.00     0.000 C 
BRANCH  63  64
ATOM     64  C   UNL     1     -13.615  -0.920   1.769  1.00  0.00    -0.003 C 
ATOM     65  C   UNL     1     -13.767  -1.898   0.613  1.00  0.00     0.004 C 
ENDBRANCH  63  64
ENDBRANCH  62  63
ENDBRANCH  61  62
ENDBRANCH  58  61
ENDBRANCH  56  57
BRANCH  56  66
ATOM     66  C   UNL     1     -16.389  -0.080   8.468  1.00  0.00     0.157 C 
BRANCH  66  67
ATOM     67  C   UNL     1     -17.589   0.027   9.365  1.00  0.00     0.305 C 
ATOM     68  O   UNL     1     -18.699   0.433   9.058  1.00  0.00    -0.252 OA
BRANCH  67  69
ATOM     69  O   UNL     1     -17.343  -0.435  10.605  1.00  0.00    -0.481 OA
ATOM     70  H   UNL     1     -17.024   0.347  11.105  1.00  0.00     0.296 HD
ENDBRANCH  67  69
ENDBRANCH  66  67
ENDBRANCH  56  66
ENDBRANCH  53  56
ENDBRANCH  50  52
ENDBRANCH  47  50
ENDBRANCH  45  46
BRANCH  45  71
ATOM     71  C   UNL     1     -10.714  -6.955   6.607  1.00  0.00     0.037 C 
BRANCH  71  72
ATOM     72  C   UNL     1     -10.613  -7.142   8.122  1.00  0.00     0.026 C 
BRANCH  72  73
ATOM     73  C   UNL     1     -10.064  -8.521   8.481  1.00  0.00     0.146 C 
BRANCH  73  74
ATOM     74  N   UNL     1      -9.865  -8.561   9.927  1.00  0.00    -0.254 NA
ATOM     75  C   UNL     1      -9.246  -9.570  10.419  1.00  0.00     0.185 C 
ATOM     76  N   UNL     1      -9.046  -9.634  11.745  1.00  0.00    -0.370 N 
ATOM     77  N   UNL     1      -8.733 -10.638   9.784  1.00  0.00    -0.370 N 
ATOM     78  H   UNL     1      -9.409  -8.872  12.300  1.00  0.00     0.159 HD
ATOM     79  H   UNL     1      -8.703 -10.454  12.214  1.00  0.00     0.159 HD
ATOM     80  H   UNL     1      -8.805 -10.724   8.781  1.00  0.00     0.159 HD
ATOM     81  H   UNL     1      -8.164 -11.316  10.265  1.00  0.00     0.159 HD
ENDBRANCH  73  74
ENDBRANCH  72  73
ENDBRANCH  71  72
ENDBRANCH  45  71
ENDBRANCH   3  45
TORSDOF 20
ENDMDL
MODEL 33
REMARK VINA RESULT:    -5.820      6.851      9.861
REMARK INTER + INTRA:         -22.787
REMARK INTER:                 -17.169
REMARK INTRA:                  -5.618
REMARK UNBOUND:                -6.078
REMARK SMILES CCCCCC(=O)N[C@H](CC(=O)O)C(=O)N[C@H]1C(=O)N[C@H](CCCN=C(N)N)C(=O)N[C@@H]2CC[C@H](O)N(C2=O)[C@@H](CC(C)C)C(=O)N(C)[C@@H](Cc2ccccc2)C(=O)N[C@H](C(C)C)C(=O)O[C@@H]1C
REMARK SMILES IDX 30 1 31 2 29 3 32 5 35 6 37 7 34 8 38 9 33 10 39 11 36 12
REMARK SMILES IDX 40 14 41 15 42 16 43 17 44 18 45 19 46 20 47 21 48 22 49 23
REMARK SMILES IDX 50 24 51 25 52 26 56 27 53 28 55 29 54 30 57 31 58 32 59 33
REMARK SMILES IDX 60 35 61 36 62 37 63 38 64 39 65 40 66 41 67 42 68 43 21 45
REMARK SMILES IDX 20 46 18 47 19 48 17 50 16 52 14 53 15 54 9 56 8 57 6 58
REMARK SMILES IDX 7 59 5 61 4 62 3 63 2 64 1 65 10 66 11 67 12 68 13 69 22 71
REMARK SMILES IDX 23 72 24 73 25 74 26 75 27 76 28 77
REMARK H PARENT 31 4 36 13 59 34 20 49 16 55 8 60 13 70 27 78 27 79 28 80
REMARK H PARENT 28 81
REMARK Flexibility Score:  259.900
ROOT
ATOM      1  O   UNL     1      -8.366  -4.061  -2.262  1.00  0.00    -0.273 OA
ATOM      2  N   UNL     1      -7.216  -2.577  -0.956  1.00  0.00    -0.343 N 
ATOM      3  C   UNL     1      -7.607  -3.849  -1.317  1.00  0.00     0.243 C 
ATOM      4  H   UNL     1      -6.578  -2.442  -0.181  1.00  0.00     0.164 HD
ENDROOT
BRANCH   2   5
ATOM      5  C   UNL     1      -7.788  -1.409  -1.616  1.00  0.00     0.171 C 
ATOM      6  C   UNL     1      -7.637   1.432  -1.061  1.00  0.00     0.214 C 
ATOM      7  N   UNL     1      -8.709   0.652  -0.487  1.00  0.00    -0.303 N 
ATOM      8  C   UNL     1      -7.150   0.894  -2.398  1.00  0.00     0.057 C 
ATOM      9  C   UNL     1      -8.811  -0.717  -0.670  1.00  0.00     0.247 C 
ATOM     10  C   UNL     1      -6.696  -0.540  -2.238  1.00  0.00     0.040 C 
ATOM     11  O   UNL     1      -9.682  -1.391  -0.105  1.00  0.00    -0.272 OA
BRANCH   6  12
ATOM     12  O   UNL     1      -6.581   1.464  -0.129  1.00  0.00    -0.373 OA
ATOM     13  H   UNL     1      -6.086   0.622  -0.227  1.00  0.00     0.213 HD
ENDBRANCH   6  12
BRANCH   7  14
ATOM     14  C   UNL     1      -9.626   1.352   0.437  1.00  0.00     0.177 C 
BRANCH  14  15
ATOM     15  C   UNL     1      -9.069   1.599   1.853  1.00  0.00     0.038 C 
BRANCH  15  16
ATOM     16  C   UNL     1      -9.806   1.008   3.075  1.00  0.00    -0.015 C 
ATOM     17  C   UNL     1      -9.118  -0.246   3.622  1.00  0.00     0.007 C 
ATOM     18  C   UNL     1     -11.242   0.636   2.684  1.00  0.00     0.007 C 
ENDBRANCH  15  16
ENDBRANCH  14  15
BRANCH  14  19
ATOM     19  C   UNL     1     -10.552   2.336  -0.357  1.00  0.00     0.245 C 
ATOM     20  O   UNL     1     -11.243   1.844  -1.265  1.00  0.00    -0.272 OA
BRANCH  19  21
ATOM     21  N   UNL     1     -10.554   3.708  -0.178  1.00  0.00    -0.332 N 
ATOM     22  C   UNL     1      -9.499   4.614  -0.596  1.00  0.00     0.147 C 
BRANCH  21  23
ATOM     23  C   UNL     1     -11.724   4.318   0.511  1.00  0.00     0.178 C 
BRANCH  23  24
ATOM     24  C   UNL     1     -11.381   5.106   1.792  1.00  0.00     0.070 C 
BRANCH  24  25
ATOM     25  C   UNL     1     -11.686   4.439   3.113  1.00  0.00    -0.045 A 
ATOM     26  C   UNL     1     -12.941   3.865   3.354  1.00  0.00     0.004 A 
ATOM     27  C   UNL     1     -10.713   4.389   4.123  1.00  0.00     0.004 A 
ATOM     28  C   UNL     1     -13.221   3.266   4.584  1.00  0.00     0.000 A 
ATOM     29  C   UNL     1     -10.994   3.788   5.351  1.00  0.00     0.000 A 
ATOM     30  C   UNL     1     -12.249   3.229   5.581  1.00  0.00     0.000 A 
ENDBRANCH  24  25
ENDBRANCH  23  24
BRANCH  23  31
ATOM     31  C   UNL     1     -12.687   5.042  -0.460  1.00  0.00     0.243 C 
ATOM     32  O   UNL     1     -13.485   4.464  -1.193  1.00  0.00    -0.273 OA
ATOM     33  N   UNL     1     -12.442   6.400  -0.571  1.00  0.00    -0.341 N 
ATOM     34  H   UNL     1     -11.761   6.824   0.063  1.00  0.00     0.164 HD
BRANCH  33  35
ATOM     35  C   UNL     1     -13.151   7.265  -1.519  1.00  0.00     0.194 C 
BRANCH  35  36
ATOM     36  C   UNL     1     -12.437   7.423  -2.891  1.00  0.00     0.017 C 
ATOM     37  C   UNL     1     -13.146   6.608  -3.987  1.00  0.00     0.010 C 
ATOM     38  C   UNL     1     -10.970   6.976  -2.863  1.00  0.00     0.010 C 
ENDBRANCH  35  36
BRANCH  35  39
ATOM     39  C   UNL     1     -13.535   8.639  -0.903  1.00  0.00     0.329 C 
ATOM     40  O   UNL     1     -13.724   8.826   0.294  1.00  0.00    -0.250 OA
BRANCH  39  41
ATOM     41  O   UNL     1     -13.552   9.640  -1.834  1.00  0.00    -0.458 OA
BRANCH  41  42
ATOM     42  C   UNL     1     -14.855  10.162  -2.190  1.00  0.00     0.205 CG0
ATOM     43  C   UNL     1     -15.016   9.989  -3.699  1.00  0.00     0.056 C 
ATOM     44  G   UNL     1     -14.928  11.639  -1.755  1.00  0.00     0.000 G0
ENDBRANCH  41  42
ENDBRANCH  39  41
ENDBRANCH  35  39
ENDBRANCH  33  35
ENDBRANCH  23  31
ENDBRANCH  21  23
ENDBRANCH  19  21
ENDBRANCH  14  19
ENDBRANCH   7  14
ENDBRANCH   2   5
BRANCH   3  45
ATOM     45  C   UNL     1      -7.013  -4.983  -0.471  1.00  0.00     0.171 C 
BRANCH  45  46
ATOM     46  N   UNL     1      -6.148  -5.734  -1.371  1.00  0.00    -0.342 N 
ATOM     47  C   UNL     1      -4.914  -5.276  -1.760  1.00  0.00     0.247 C 
ATOM     48  O   UNL     1      -4.419  -4.236  -1.322  1.00  0.00    -0.273 OA
ATOM     49  H   UNL     1      -6.496  -6.628  -1.714  1.00  0.00     0.164 HD
BRANCH  47  50
ATOM     50  C   UNL     1      -4.200  -6.140  -2.809  1.00  0.00     0.212 CG0
ATOM     51  G   UNL     1      -4.926  -7.499  -2.867  1.00  0.00     0.000 G0
BRANCH  50  52
ATOM     52  N   UNL     1      -4.283  -5.387  -4.057  1.00  0.00    -0.339 N 
ATOM     53  C   UNL     1      -5.447  -5.235  -4.772  1.00  0.00     0.243 C 
ATOM     54  O   UNL     1      -6.502  -5.769  -4.440  1.00  0.00    -0.273 OA
ATOM     55  H   UNL     1      -3.418  -5.014  -4.442  1.00  0.00     0.164 HD
BRANCH  53  56
ATOM     56  C   UNL     1      -5.271  -4.473  -6.101  1.00  0.00     0.182 C 
BRANCH  56  57
ATOM     57  N   UNL     1      -4.022  -3.705  -6.107  1.00  0.00    -0.344 N 
ATOM     58  C   UNL     1      -3.249  -3.566  -7.233  1.00  0.00     0.220 C 
ATOM     59  O   UNL     1      -3.508  -4.131  -8.290  1.00  0.00    -0.275 OA
ATOM     60  H   UNL     1      -3.826  -3.140  -5.285  1.00  0.00     0.164 HD
BRANCH  58  61
ATOM     61  C   UNL     1      -2.034  -2.681  -7.023  1.00  0.00     0.100 C 
BRANCH  61  62
ATOM     62  C   UNL     1      -1.207  -2.459  -8.290  1.00  0.00     0.010 C 
BRANCH  62  63
ATOM     63  C   UNL     1      -1.364  -1.063  -8.906  1.00  0.00     0.000 C 
BRANCH  63  64
ATOM     64  C   UNL     1      -0.086  -0.505  -9.528  1.00  0.00    -0.003 C 
ATOM     65  C   UNL     1       0.428   0.701  -8.754  1.00  0.00     0.004 C 
ENDBRANCH  63  64
ENDBRANCH  62  63
ENDBRANCH  61  62
ENDBRANCH  58  61
ENDBRANCH  56  57
BRANCH  56  66
ATOM     66  C   UNL     1      -6.487  -3.601  -6.411  1.00  0.00     0.157 C 
BRANCH  66  67
ATOM     67  C   UNL     1      -7.332  -4.210  -7.493  1.00  0.00     0.305 C 
ATOM     68  O   UNL     1      -7.185  -4.079  -8.698  1.00  0.00    -0.252 OA
BRANCH  67  69
ATOM     69  O   UNL     1      -8.300  -5.005  -6.999  1.00  0.00    -0.481 OA
ATOM     70  H   UNL     1      -7.999  -5.234  -6.095  1.00  0.00     0.296 HD
ENDBRANCH  67  69
ENDBRANCH  66  67
ENDBRANCH  56  66
ENDBRANCH  53  56
ENDBRANCH  50  52
ENDBRANCH  47  50
ENDBRANCH  45  46
BRANCH  45  71
ATOM     71  C   UNL     1      -8.130  -5.862   0.104  1.00  0.00     0.037 C 
BRANCH  71  72
ATOM     72  C   UNL     1      -7.607  -7.221   0.577  1.00  0.00     0.026 C 
BRANCH  72  73
ATOM     73  C   UNL     1      -7.843  -7.421   2.073  1.00  0.00     0.146 C 
BRANCH  73  74
ATOM     74  N   UNL     1      -7.842  -6.106   2.705  1.00  0.00    -0.254 NA
ATOM     75  C   UNL     1      -8.815  -5.818   3.490  1.00  0.00     0.185 C 
ATOM     76  N   UNL     1      -8.842  -4.616   4.088  1.00  0.00    -0.370 N 
ATOM     77  N   UNL     1      -9.875  -6.570   3.832  1.00  0.00    -0.370 N 
ATOM     78  H   UNL     1      -8.083  -3.984   3.878  1.00  0.00     0.159 HD
ATOM     79  H   UNL     1      -9.636  -4.268   4.595  1.00  0.00     0.159 HD
ATOM     80  H   UNL     1      -9.985  -7.502   3.461  1.00  0.00     0.159 HD
ATOM     81  H   UNL     1     -10.519  -6.281   4.550  1.00  0.00     0.159 HD
ENDBRANCH  73  74
ENDBRANCH  72  73
ENDBRANCH  71  72
ENDBRANCH  45  71
ENDBRANCH   3  45
TORSDOF 20
ENDMDL
MODEL 34
REMARK VINA RESULT:    -5.807      4.697      8.482
REMARK INTER + INTRA:         -22.750
REMARK INTER:                 -16.536
REMARK INTRA:                  -6.214
REMARK UNBOUND:                -6.078
REMARK SMILES CCCCCC(=O)N[C@H](CC(=O)O)C(=O)N[C@H]1C(=O)N[C@H](CCCN=C(N)N)C(=O)N[C@@H]2CC[C@H](O)N(C2=O)[C@@H](CC(C)C)C(=O)N(C)[C@@H](Cc2ccccc2)C(=O)N[C@H](C(C)C)C(=O)O[C@@H]1C
REMARK SMILES IDX 30 1 31 2 29 3 32 5 35 6 37 7 34 8 38 9 33 10 39 11 36 12
REMARK SMILES IDX 40 14 41 15 42 16 43 17 44 18 45 19 46 20 47 21 48 22 49 23
REMARK SMILES IDX 50 24 51 25 52 26 56 27 53 28 55 29 54 30 57 31 58 32 59 33
REMARK SMILES IDX 60 35 61 36 62 37 63 38 64 39 65 40 66 41 67 42 68 43 21 45
REMARK SMILES IDX 20 46 18 47 19 48 17 50 16 52 14 53 15 54 9 56 8 57 6 58
REMARK SMILES IDX 7 59 5 61 4 62 3 63 2 64 1 65 10 66 11 67 12 68 13 69 22 71
REMARK SMILES IDX 23 72 24 73 25 74 26 75 27 76 28 77
REMARK H PARENT 31 4 36 13 59 34 20 49 16 55 8 60 13 70 27 78 27 79 28 80
REMARK H PARENT 28 81
REMARK Flexibility Score:  259.900
ROOT
ATOM      1  O   UNL     1      -9.174  -5.378  -0.518  1.00  0.00    -0.273 OA
ATOM      2  N   UNL     1      -7.469  -4.895   0.927  1.00  0.00    -0.343 N 
ATOM      3  C   UNL     1      -7.978  -5.437  -0.234  1.00  0.00     0.243 C 
ATOM      4  H   UNL     1      -6.476  -4.949   1.121  1.00  0.00     0.164 HD
ENDROOT
BRANCH   2   5
ATOM      5  C   UNL     1      -8.358  -4.326   1.933  1.00  0.00     0.171 C 
ATOM      6  C   UNL     1     -11.232  -3.954   2.029  1.00  0.00     0.214 C 
ATOM      7  N   UNL     1     -10.396  -2.901   1.501  1.00  0.00    -0.303 N 
ATOM      8  C   UNL     1     -10.541  -4.795   3.091  1.00  0.00     0.057 C 
ATOM      9  C   UNL     1      -9.023  -3.033   1.380  1.00  0.00     0.247 C 
ATOM     10  C   UNL     1      -9.274  -5.398   2.523  1.00  0.00     0.040 C 
ATOM     11  O   UNL     1      -8.324  -2.161   0.847  1.00  0.00    -0.272 OA
BRANCH   6  12
ATOM     12  O   UNL     1     -11.640  -4.762   0.950  1.00  0.00    -0.373 OA
ATOM     13  H   UNL     1     -12.608  -4.891   1.037  1.00  0.00     0.213 HD
ENDBRANCH   6  12
BRANCH   7  14
ATOM     14  C   UNL     1     -11.083  -1.713   0.951  1.00  0.00     0.177 C 
BRANCH  14  15
ATOM     15  C   UNL     1     -12.233  -2.015  -0.030  1.00  0.00     0.038 C 
BRANCH  15  16
ATOM     16  C   UNL     1     -13.430  -1.044  -0.121  1.00  0.00    -0.015 C 
ATOM     17  C   UNL     1     -14.671  -1.701  -0.733  1.00  0.00     0.007 C 
ATOM     18  C   UNL     1     -13.052   0.166  -0.984  1.00  0.00     0.007 C 
ENDBRANCH  15  16
ENDBRANCH  14  15
BRANCH  14  19
ATOM     19  C   UNL     1     -11.064  -0.542   1.993  1.00  0.00     0.245 C 
ATOM     20  O   UNL     1     -12.022  -0.479   2.781  1.00  0.00    -0.272 OA
BRANCH  19  21
ATOM     21  N   UNL     1     -10.114   0.465   2.005  1.00  0.00    -0.332 N 
ATOM     22  C   UNL     1      -9.190   0.739   3.091  1.00  0.00     0.147 C 
BRANCH  21  23
ATOM     23  C   UNL     1     -10.030   1.356   0.815  1.00  0.00     0.178 C 
BRANCH  23  24
ATOM     24  C   UNL     1      -9.919   2.859   1.141  1.00  0.00     0.070 C 
BRANCH  24  25
ATOM     25  C   UNL     1     -10.317   3.830   0.053  1.00  0.00    -0.045 A 
ATOM     26  C   UNL     1     -11.415   3.567  -0.777  1.00  0.00     0.004 A 
ATOM     27  C   UNL     1      -9.586   5.011  -0.143  1.00  0.00     0.004 A 
ATOM     28  C   UNL     1     -11.766   4.462  -1.790  1.00  0.00     0.000 A 
ATOM     29  C   UNL     1      -9.939   5.905  -1.155  1.00  0.00     0.000 A 
ATOM     30  C   UNL     1     -11.027   5.627  -1.980  1.00  0.00     0.000 A 
ENDBRANCH  24  25
ENDBRANCH  23  24
BRANCH  23  31
ATOM     31  C   UNL     1      -9.033   0.845  -0.252  1.00  0.00     0.243 C 
ATOM     32  O   UNL     1      -7.811   0.893  -0.130  1.00  0.00    -0.273 OA
ATOM     33  N   UNL     1      -9.634   0.494  -1.449  1.00  0.00    -0.341 N 
ATOM     34  H   UNL     1     -10.656   0.478  -1.492  1.00  0.00     0.164 HD
BRANCH  33  35
ATOM     35  C   UNL     1      -8.876   0.096  -2.638  1.00  0.00     0.194 C 
BRANCH  35  36
ATOM     36  C   UNL     1      -9.257   0.879  -3.926  1.00  0.00     0.017 C 
ATOM     37  C   UNL     1      -8.440   2.176  -4.054  1.00  0.00     0.010 C 
ATOM     38  C   UNL     1     -10.740   1.263  -3.982  1.00  0.00     0.010 C 
ENDBRANCH  35  36
BRANCH  35  39
ATOM     39  C   UNL     1      -8.888  -1.441  -2.868  1.00  0.00     0.329 C 
ATOM     40  O   UNL     1      -9.458  -2.241  -2.134  1.00  0.00    -0.250 OA
BRANCH  39  41
ATOM     41  O   UNL     1      -8.265  -1.798  -4.032  1.00  0.00    -0.458 OA
BRANCH  41  42
ATOM     42  C   UNL     1      -6.864  -2.148  -3.928  1.00  0.00     0.205 CG0
ATOM     43  C   UNL     1      -6.119  -1.364  -5.006  1.00  0.00     0.056 C 
ATOM     44  G   UNL     1      -6.724  -3.673  -4.104  1.00  0.00     0.000 G0
ENDBRANCH  41  42
ENDBRANCH  39  41
ENDBRANCH  35  39
ENDBRANCH  33  35
ENDBRANCH  23  31
ENDBRANCH  21  23
ENDBRANCH  19  21
ENDBRANCH  14  19
ENDBRANCH   7  14
ENDBRANCH   2   5
BRANCH   3  45
ATOM     45  C   UNL     1      -6.947  -6.100  -1.157  1.00  0.00     0.171 C 
BRANCH  45  46
ATOM     46  N   UNL     1      -7.082  -5.431  -2.444  1.00  0.00    -0.342 N 
ATOM     47  C   UNL     1      -6.337  -4.329  -2.783  1.00  0.00     0.247 C 
ATOM     48  O   UNL     1      -5.453  -3.872  -2.058  1.00  0.00    -0.273 OA
ATOM     49  H   UNL     1      -7.764  -5.812  -3.097  1.00  0.00     0.164 HD
BRANCH  47  50
ATOM     50  C   UNL     1      -6.705  -3.685  -4.127  1.00  0.00     0.212 CG0
ATOM     51  G   UNL     1      -6.865  -2.170  -3.891  1.00  0.00     0.000 G0
BRANCH  50  52
ATOM     52  N   UNL     1      -5.606  -4.015  -5.031  1.00  0.00    -0.339 N 
ATOM     53  C   UNL     1      -5.678  -5.009  -5.977  1.00  0.00     0.243 C 
ATOM     54  O   UNL     1      -6.660  -5.735  -6.100  1.00  0.00    -0.273 OA
ATOM     55  H   UNL     1      -4.725  -3.522  -4.903  1.00  0.00     0.164 HD
BRANCH  53  56
ATOM     56  C   UNL     1      -4.365  -5.231  -6.754  1.00  0.00     0.182 C 
BRANCH  56  57
ATOM     57  N   UNL     1      -3.686  -3.958  -7.016  1.00  0.00    -0.344 N 
ATOM     58  C   UNL     1      -2.330  -3.802  -6.861  1.00  0.00     0.220 C 
ATOM     59  O   UNL     1      -1.606  -4.689  -6.425  1.00  0.00    -0.275 OA
ATOM     60  H   UNL     1      -4.230  -3.232  -7.474  1.00  0.00     0.164 HD
BRANCH  58  61
ATOM     61  C   UNL     1      -1.837  -2.419  -7.245  1.00  0.00     0.100 C 
BRANCH  61  62
ATOM     62  C   UNL     1      -2.900  -1.328  -7.118  1.00  0.00     0.010 C 
BRANCH  62  63
ATOM     63  C   UNL     1      -3.516  -0.893  -8.455  1.00  0.00     0.000 C 
BRANCH  63  64
ATOM     64  C   UNL     1      -2.708   0.167  -9.201  1.00  0.00    -0.003 C 
ATOM     65  C   UNL     1      -1.929   1.052  -8.238  1.00  0.00     0.004 C 
ENDBRANCH  63  64
ENDBRANCH  62  63
ENDBRANCH  61  62
ENDBRANCH  58  61
ENDBRANCH  56  57
BRANCH  56  66
ATOM     66  C   UNL     1      -4.600  -6.034  -8.033  1.00  0.00     0.157 C 
BRANCH  66  67
ATOM     67  C   UNL     1      -3.753  -7.273  -8.061  1.00  0.00     0.305 C 
ATOM     68  O   UNL     1      -4.145  -8.426  -8.153  1.00  0.00    -0.252 OA
BRANCH  67  69
ATOM     69  O   UNL     1      -2.436  -6.994  -8.023  1.00  0.00    -0.481 OA
ATOM     70  H   UNL     1      -2.323  -6.238  -8.638  1.00  0.00     0.296 HD
ENDBRANCH  67  69
ENDBRANCH  66  67
ENDBRANCH  56  66
ENDBRANCH  53  56
ENDBRANCH  50  52
ENDBRANCH  47  50
ENDBRANCH  45  46
BRANCH  45  71
ATOM     71  C   UNL     1      -7.220  -7.604  -1.270  1.00  0.00     0.037 C 
BRANCH  71  72
ATOM     72  C   UNL     1      -5.992  -8.442  -0.905  1.00  0.00     0.026 C 
BRANCH  72  73
ATOM     73  C   UNL     1      -4.700  -7.645  -1.076  1.00  0.00     0.146 C 
BRANCH  73  74
ATOM     74  N   UNL     1      -4.138  -7.980  -2.381  1.00  0.00    -0.254 NA
ATOM     75  C   UNL     1      -3.588  -7.038  -3.055  1.00  0.00     0.185 C 
ATOM     76  N   UNL     1      -3.061  -7.315  -4.259  1.00  0.00    -0.370 N 
ATOM     77  N   UNL     1      -3.444  -5.741  -2.733  1.00  0.00    -0.370 N 
ATOM     78  H   UNL     1      -3.133  -8.269  -4.582  1.00  0.00     0.159 HD
ATOM     79  H   UNL     1      -2.747  -6.609  -4.902  1.00  0.00     0.159 HD
ATOM     80  H   UNL     1      -3.790  -5.389  -1.853  1.00  0.00     0.159 HD
ATOM     81  H   UNL     1      -2.890  -5.116  -3.295  1.00  0.00     0.159 HD
ENDBRANCH  73  74
ENDBRANCH  72  73
ENDBRANCH  71  72
ENDBRANCH  45  71
ENDBRANCH   3  45
TORSDOF 20
ENDMDL
MODEL 35
REMARK VINA RESULT:    -5.784      6.896     10.163
REMARK INTER + INTRA:         -22.683
REMARK INTER:                 -16.138
REMARK INTRA:                  -6.545
REMARK UNBOUND:                -6.078
REMARK SMILES CCCCCC(=O)N[C@H](CC(=O)O)C(=O)N[C@H]1C(=O)N[C@H](CCCN=C(N)N)C(=O)N[C@@H]2CC[C@H](O)N(C2=O)[C@@H](CC(C)C)C(=O)N(C)[C@@H](Cc2ccccc2)C(=O)N[C@H](C(C)C)C(=O)O[C@@H]1C
REMARK SMILES IDX 30 1 31 2 29 3 32 5 35 6 37 7 34 8 38 9 33 10 39 11 36 12
REMARK SMILES IDX 40 14 41 15 42 16 43 17 44 18 45 19 46 20 47 21 48 22 49 23
REMARK SMILES IDX 50 24 51 25 52 26 56 27 53 28 55 29 54 30 57 31 58 32 59 33
REMARK SMILES IDX 60 35 61 36 62 37 63 38 64 39 65 40 66 41 67 42 68 43 21 45
REMARK SMILES IDX 20 46 18 47 19 48 17 50 16 52 14 53 15 54 9 56 8 57 6 58
REMARK SMILES IDX 7 59 5 61 4 62 3 63 2 64 1 65 10 66 11 67 12 68 13 69 22 71
REMARK SMILES IDX 23 72 24 73 25 74 26 75 27 76 28 77
REMARK H PARENT 31 4 36 13 59 34 20 49 16 55 8 60 13 70 27 78 27 79 28 80
REMARK H PARENT 28 81
REMARK Flexibility Score:  259.900
ROOT
ATOM      1  O   UNL     1      -8.386  -4.497  -1.637  1.00  0.00    -0.273 OA
ATOM      2  N   UNL     1      -7.216  -2.852  -0.563  1.00  0.00    -0.343 N 
ATOM      3  C   UNL     1      -7.670  -4.146  -0.699  1.00  0.00     0.243 C 
ATOM      4  H   UNL     1      -6.617  -2.602   0.214  1.00  0.00     0.164 HD
ENDROOT
BRANCH   2   5
ATOM      5  C   UNL     1      -7.669  -1.806  -1.474  1.00  0.00     0.171 C 
ATOM      6  C   UNL     1      -7.281   1.066  -1.517  1.00  0.00     0.214 C 
ATOM      7  N   UNL     1      -8.430   0.515  -0.837  1.00  0.00    -0.303 N 
ATOM      8  C   UNL     1      -6.814   0.221  -2.692  1.00  0.00     0.057 C 
ATOM      9  C   UNL     1      -8.648  -0.850  -0.735  1.00  0.00     0.247 C 
ATOM     10  C   UNL     1      -6.492  -1.180  -2.219  1.00  0.00     0.040 C 
ATOM     11  O   UNL     1      -9.587  -1.316  -0.076  1.00  0.00    -0.272 OA
BRANCH   6  12
ATOM     12  O   UNL     1      -6.247   1.208  -0.571  1.00  0.00    -0.373 OA
ATOM     13  H   UNL     1      -6.098   0.324  -0.173  1.00  0.00     0.213 HD
ENDBRANCH   6  12
BRANCH   7  14
ATOM     14  C   UNL     1      -9.302   1.466  -0.115  1.00  0.00     0.177 C 
BRANCH  14  15
ATOM     15  C   UNL     1      -8.790   1.903   1.271  1.00  0.00     0.038 C 
BRANCH  15  16
ATOM     16  C   UNL     1      -9.781   2.001   2.452  1.00  0.00    -0.015 C 
ATOM     17  C   UNL     1      -9.107   1.743   3.803  1.00  0.00     0.007 C 
ATOM     18  C   UNL     1     -10.906   0.974   2.272  1.00  0.00     0.007 C 
ENDBRANCH  15  16
ENDBRANCH  14  15
BRANCH  14  19
ATOM     19  C   UNL     1     -10.064   2.383  -1.132  1.00  0.00     0.245 C 
ATOM     20  O   UNL     1     -10.633   1.816  -2.080  1.00  0.00    -0.272 OA
BRANCH  19  21
ATOM     21  N   UNL     1     -10.038   3.766  -1.092  1.00  0.00    -0.332 N 
ATOM     22  C   UNL     1      -8.983   4.606  -1.631  1.00  0.00     0.147 C 
BRANCH  21  23
ATOM     23  C   UNL     1     -11.177   4.464  -0.434  1.00  0.00     0.178 C 
BRANCH  23  24
ATOM     24  C   UNL     1     -10.777   5.407   0.719  1.00  0.00     0.070 C 
BRANCH  24  25
ATOM     25  C   UNL     1     -11.308   5.077   2.094  1.00  0.00    -0.045 A 
ATOM     26  C   UNL     1     -12.494   4.348   2.249  1.00  0.00     0.004 A 
ATOM     27  C   UNL     1     -10.619   5.502   3.240  1.00  0.00     0.004 A 
ATOM     28  C   UNL     1     -12.988   4.062   3.524  1.00  0.00     0.000 A 
ATOM     29  C   UNL     1     -11.113   5.214   4.513  1.00  0.00     0.000 A 
ATOM     30  C   UNL     1     -12.299   4.496   4.654  1.00  0.00     0.000 A 
ENDBRANCH  24  25
ENDBRANCH  23  24
BRANCH  23  31
ATOM     31  C   UNL     1     -12.184   5.062  -1.445  1.00  0.00     0.243 C 
ATOM     32  O   UNL     1     -12.338   4.644  -2.590  1.00  0.00    -0.273 OA
ATOM     33  N   UNL     1     -12.773   6.237  -1.010  1.00  0.00    -0.341 N 
ATOM     34  H   UNL     1     -12.603   6.538  -0.047  1.00  0.00     0.164 HD
BRANCH  33  35
ATOM     35  C   UNL     1     -13.668   7.040  -1.848  1.00  0.00     0.194 C 
BRANCH  35  36
ATOM     36  C   UNL     1     -13.144   8.473  -2.145  1.00  0.00     0.017 C 
ATOM     37  C   UNL     1     -11.900   8.437  -3.050  1.00  0.00     0.010 C 
ATOM     38  C   UNL     1     -12.768   9.254  -0.879  1.00  0.00     0.010 C 
ENDBRANCH  35  36
BRANCH  35  39
ATOM     39  C   UNL     1     -15.130   7.055  -1.318  1.00  0.00     0.329 C 
ATOM     40  O   UNL     1     -15.485   6.528  -0.271  1.00  0.00    -0.250 OA
BRANCH  39  41
ATOM     41  O   UNL     1     -15.962   7.798  -2.110  1.00  0.00    -0.458 OA
BRANCH  41  42
ATOM     42  C   UNL     1     -16.695   8.858  -1.451  1.00  0.00     0.205 CG0
ATOM     43  C   UNL     1     -18.147   8.399  -1.331  1.00  0.00     0.056 C 
ATOM     44  G   UNL     1     -16.551  10.147  -2.285  1.00  0.00     0.000 G0
ENDBRANCH  41  42
ENDBRANCH  39  41
ENDBRANCH  35  39
ENDBRANCH  33  35
ENDBRANCH  23  31
ENDBRANCH  21  23
ENDBRANCH  19  21
ENDBRANCH  14  19
ENDBRANCH   7  14
ENDBRANCH   2   5
BRANCH   3  45
ATOM     45  C   UNL     1      -7.204  -5.123   0.389  1.00  0.00     0.171 C 
BRANCH  45  46
ATOM     46  N   UNL     1      -6.397  -6.122  -0.299  1.00  0.00    -0.342 N 
ATOM     47  C   UNL     1      -5.381  -6.803   0.323  1.00  0.00     0.247 C 
ATOM     48  O   UNL     1      -5.125  -6.673   1.521  1.00  0.00    -0.273 OA
ATOM     49  H   UNL     1      -6.613  -6.301  -1.278  1.00  0.00     0.164 HD
BRANCH  47  50
ATOM     50  C   UNL     1      -4.561  -7.724  -0.591  1.00  0.00     0.212 CG0
ATOM     51  G   UNL     1      -5.395  -8.995  -0.845  1.00  0.00     0.000 G0
BRANCH  50  52
ATOM     52  N   UNL     1      -4.310  -6.947  -1.802  1.00  0.00    -0.339 N 
ATOM     53  C   UNL     1      -3.715  -7.469  -2.925  1.00  0.00     0.243 C 
ATOM     54  O   UNL     1      -3.298  -8.623  -2.978  1.00  0.00    -0.273 OA
ATOM     55  H   UNL     1      -4.532  -5.954  -1.782  1.00  0.00     0.164 HD
BRANCH  53  56
ATOM     56  C   UNL     1      -3.476  -6.438  -4.046  1.00  0.00     0.182 C 
BRANCH  56  57
ATOM     57  N   UNL     1      -4.722  -6.135  -4.758  1.00  0.00    -0.344 N 
ATOM     58  C   UNL     1      -5.560  -5.116  -4.375  1.00  0.00     0.220 C 
ATOM     59  O   UNL     1      -5.364  -4.438  -3.372  1.00  0.00    -0.275 OA
ATOM     60  H   UNL     1      -4.869  -6.603  -5.648  1.00  0.00     0.164 HD
BRANCH  58  61
ATOM     61  C   UNL     1      -6.759  -4.947  -5.289  1.00  0.00     0.100 C 
BRANCH  61  62
ATOM     62  C   UNL     1      -6.666  -3.729  -6.208  1.00  0.00     0.010 C 
BRANCH  62  63
ATOM     63  C   UNL     1      -5.970  -4.003  -7.547  1.00  0.00     0.000 C 
BRANCH  63  64
ATOM     64  C   UNL     1      -6.839  -3.729  -8.773  1.00  0.00    -0.003 C 
ATOM     65  C   UNL     1      -7.560  -4.988  -9.235  1.00  0.00     0.004 C 
ENDBRANCH  63  64
ENDBRANCH  62  63
ENDBRANCH  61  62
ENDBRANCH  58  61
ENDBRANCH  56  57
BRANCH  56  66
ATOM     66  C   UNL     1      -2.365  -6.887  -4.994  1.00  0.00     0.157 C 
BRANCH  66  67
ATOM     67  C   UNL     1      -2.297  -6.007  -6.208  1.00  0.00     0.305 C 
ATOM     68  O   UNL     1      -1.628  -4.994  -6.342  1.00  0.00    -0.252 OA
BRANCH  67  69
ATOM     69  O   UNL     1      -3.043  -6.479  -7.225  1.00  0.00    -0.481 OA
ATOM     70  H   UNL     1      -2.992  -5.784  -7.916  1.00  0.00     0.296 HD
ENDBRANCH  67  69
ENDBRANCH  66  67
ENDBRANCH  56  66
ENDBRANCH  53  56
ENDBRANCH  50  52
ENDBRANCH  47  50
ENDBRANCH  45  46
BRANCH  45  71
ATOM     71  C   UNL     1      -8.411  -5.756   1.090  1.00  0.00     0.037 C 
BRANCH  71  72
ATOM     72  C   UNL     1      -8.386  -5.521   2.603  1.00  0.00     0.026 C 
BRANCH  72  73
ATOM     73  C   UNL     1      -8.126  -4.054   2.938  1.00  0.00     0.146 C 
BRANCH  73  74
ATOM     74  N   UNL     1      -7.274  -4.011   4.123  1.00  0.00    -0.254 NA
ATOM     75  C   UNL     1      -6.007  -3.928   3.946  1.00  0.00     0.185 C 
ATOM     76  N   UNL     1      -5.197  -3.884   5.016  1.00  0.00    -0.370 N 
ATOM     77  N   UNL     1      -5.316  -3.873   2.794  1.00  0.00    -0.370 N 
ATOM     78  H   UNL     1      -5.636  -3.928   5.925  1.00  0.00     0.159 HD
ATOM     79  H   UNL     1      -4.197  -3.965   4.958  1.00  0.00     0.159 HD
ATOM     80  H   UNL     1      -5.795  -3.892   1.906  1.00  0.00     0.159 HD
ATOM     81  H   UNL     1      -4.326  -3.692   2.780  1.00  0.00     0.159 HD
ENDBRANCH  73  74
ENDBRANCH  72  73
ENDBRANCH  71  72
ENDBRANCH  45  71
ENDBRANCH   3  45
TORSDOF 20
ENDMDL
MODEL 36
REMARK VINA RESULT:    -5.767      7.163     11.281
REMARK INTER + INTRA:         -22.633
REMARK INTER:                 -16.862
REMARK INTRA:                  -5.770
REMARK UNBOUND:                -6.078
REMARK SMILES CCCCCC(=O)N[C@H](CC(=O)O)C(=O)N[C@H]1C(=O)N[C@H](CCCN=C(N)N)C(=O)N[C@@H]2CC[C@H](O)N(C2=O)[C@@H](CC(C)C)C(=O)N(C)[C@@H](Cc2ccccc2)C(=O)N[C@H](C(C)C)C(=O)O[C@@H]1C
REMARK SMILES IDX 30 1 31 2 29 3 32 5 35 6 37 7 34 8 38 9 33 10 39 11 36 12
REMARK SMILES IDX 40 14 41 15 42 16 43 17 44 18 45 19 46 20 47 21 48 22 49 23
REMARK SMILES IDX 50 24 51 25 52 26 56 27 53 28 55 29 54 30 57 31 58 32 59 33
REMARK SMILES IDX 60 35 61 36 62 37 63 38 64 39 65 40 66 41 67 42 68 43 21 45
REMARK SMILES IDX 20 46 18 47 19 48 17 50 16 52 14 53 15 54 9 56 8 57 6 58
REMARK SMILES IDX 7 59 5 61 4 62 3 63 2 64 1 65 10 66 11 67 12 68 13 69 22 71
REMARK SMILES IDX 23 72 24 73 25 74 26 75 27 76 28 77
REMARK H PARENT 31 4 36 13 59 34 20 49 16 55 8 60 13 70 27 78 27 79 28 80
REMARK H PARENT 28 81
REMARK Flexibility Score:  259.900
ROOT
ATOM      1  O   UNL     1      -5.898  -0.883  -3.883  1.00  0.00    -0.273 OA
ATOM      2  N   UNL     1      -8.005  -1.557  -3.300  1.00  0.00    -0.343 N 
ATOM      3  C   UNL     1      -6.825  -1.685  -4.002  1.00  0.00     0.243 C 
ATOM      4  H   UNL     1      -8.740  -2.244  -3.412  1.00  0.00     0.164 HD
ENDROOT
BRANCH   2   5
ATOM      5  C   UNL     1      -8.250  -0.384  -2.468  1.00  0.00     0.171 C 
ATOM      6  C   UNL     1     -10.287   0.239  -0.502  1.00  0.00     0.214 C 
ATOM      7  N   UNL     1     -10.500   0.598  -1.884  1.00  0.00    -0.303 N 
ATOM      8  C   UNL     1      -8.821   0.239  -0.099  1.00  0.00     0.057 C 
ATOM      9  C   UNL     1      -9.592   0.285  -2.882  1.00  0.00     0.247 C 
ATOM     10  C   UNL     1      -8.045  -0.708  -0.989  1.00  0.00     0.040 C 
ATOM     11  O   UNL     1      -9.821   0.520  -4.075  1.00  0.00    -0.272 OA
BRANCH   6  12
ATOM     12  O   UNL     1     -10.854  -1.035  -0.296  1.00  0.00    -0.373 OA
ATOM     13  H   UNL     1     -11.199  -1.050   0.622  1.00  0.00     0.213 HD
ENDBRANCH   6  12
BRANCH   7  14
ATOM     14  C   UNL     1     -11.810   1.192  -2.228  1.00  0.00     0.177 C 
BRANCH  14  15
ATOM     15  C   UNL     1     -12.800   0.239  -2.924  1.00  0.00     0.038 C 
BRANCH  15  16
ATOM     16  C   UNL     1     -13.688   0.770  -4.071  1.00  0.00    -0.015 C 
ATOM     17  C   UNL     1     -12.957   1.786  -4.954  1.00  0.00     0.007 C 
ATOM     18  C   UNL     1     -14.935   1.449  -3.490  1.00  0.00     0.007 C 
ENDBRANCH  15  16
ENDBRANCH  14  15
BRANCH  14  19
ATOM     19  C   UNL     1     -12.196   2.298  -1.185  1.00  0.00     0.245 C 
ATOM     20  O   UNL     1     -13.080   2.006  -0.362  1.00  0.00    -0.272 OA
BRANCH  19  21
ATOM     21  N   UNL     1     -11.695   3.587  -1.207  1.00  0.00    -0.332 N 
ATOM     22  C   UNL     1     -10.633   4.064  -2.075  1.00  0.00     0.147 C 
BRANCH  21  23
ATOM     23  C   UNL     1     -12.276   4.576  -0.257  1.00  0.00     0.178 C 
BRANCH  23  24
ATOM     24  C   UNL     1     -11.245   5.297   0.635  1.00  0.00     0.070 C 
BRANCH  24  25
ATOM     25  C   UNL     1     -11.015   4.731   2.017  1.00  0.00    -0.045 A 
ATOM     26  C   UNL     1     -10.490   3.444   2.188  1.00  0.00     0.004 A 
ATOM     27  C   UNL     1     -11.332   5.490   3.154  1.00  0.00     0.004 A 
ATOM     28  C   UNL     1     -10.297   2.922   3.468  1.00  0.00     0.000 A 
ATOM     29  C   UNL     1     -11.137   4.967   4.434  1.00  0.00     0.000 A 
ATOM     30  C   UNL     1     -10.622   3.682   4.589  1.00  0.00     0.000 A 
ENDBRANCH  24  25
ENDBRANCH  23  24
BRANCH  23  31
ATOM     31  C   UNL     1     -13.327   5.500  -0.916  1.00  0.00     0.243 C 
ATOM     32  O   UNL     1     -13.908   5.240  -1.967  1.00  0.00    -0.273 OA
ATOM     33  N   UNL     1     -13.425   6.743  -0.315  1.00  0.00    -0.341 N 
ATOM     34  H   UNL     1     -12.912   6.903   0.556  1.00  0.00     0.164 HD
BRANCH  33  35
ATOM     35  C   UNL     1     -14.268   7.821  -0.840  1.00  0.00     0.194 C 
BRANCH  35  36
ATOM     36  C   UNL     1     -13.479   9.083  -1.288  1.00  0.00     0.017 C 
ATOM     37  C   UNL     1     -13.993   9.615  -2.637  1.00  0.00     0.010 C 
ATOM     38  C   UNL     1     -11.973   8.833  -1.438  1.00  0.00     0.010 C 
ENDBRANCH  35  36
BRANCH  35  39
ATOM     39  C   UNL     1     -15.443   8.179   0.112  1.00  0.00     0.329 C 
ATOM     40  O   UNL     1     -15.319   8.358   1.318  1.00  0.00    -0.250 OA
BRANCH  39  41
ATOM     41  O   UNL     1     -16.621   8.358  -0.560  1.00  0.00    -0.458 OA
BRANCH  41  42
ATOM     42  C   UNL     1     -17.462   9.443  -0.103  1.00  0.00     0.205 CG0
ATOM     43  C   UNL     1     -17.053  10.693  -0.880  1.00  0.00     0.056 C 
ATOM     44  G   UNL     1     -17.270   9.606   1.418  1.00  0.00     0.000 G0
ENDBRANCH  41  42
ENDBRANCH  39  41
ENDBRANCH  35  39
ENDBRANCH  33  35
ENDBRANCH  23  31
ENDBRANCH  21  23
ENDBRANCH  19  21
ENDBRANCH  14  19
ENDBRANCH   7  14
ENDBRANCH   2   5
BRANCH   3  45
ATOM     45  C   UNL     1      -6.739  -2.909  -4.924  1.00  0.00     0.171 C 
BRANCH  45  46
ATOM     46  N   UNL     1      -5.931  -3.886  -4.206  1.00  0.00    -0.342 N 
ATOM     47  C   UNL     1      -6.395  -5.141  -3.899  1.00  0.00     0.247 C 
ATOM     48  O   UNL     1      -7.493  -5.557  -4.269  1.00  0.00    -0.273 OA
ATOM     49  H   UNL     1      -4.993  -3.603  -3.930  1.00  0.00     0.164 HD
BRANCH  47  50
ATOM     50  C   UNL     1      -5.452  -5.988  -3.032  1.00  0.00     0.212 CG0
ATOM     51  G   UNL     1      -4.110  -5.237  -2.930  1.00  0.00     0.000 G0
BRANCH  50  52
ATOM     52  N   UNL     1      -6.131  -6.134  -1.747  1.00  0.00    -0.339 N 
ATOM     53  C   UNL     1      -6.684  -7.315  -1.315  1.00  0.00     0.243 C 
ATOM     54  O   UNL     1      -6.697  -8.331  -2.004  1.00  0.00    -0.273 OA
ATOM     55  H   UNL     1      -6.251  -5.299  -1.178  1.00  0.00     0.164 HD
BRANCH  53  56
ATOM     56  C   UNL     1      -7.422  -7.205   0.034  1.00  0.00     0.182 C 
BRANCH  56  57
ATOM     57  N   UNL     1      -7.649  -5.802   0.397  1.00  0.00    -0.344 N 
ATOM     58  C   UNL     1      -8.887  -5.212   0.318  1.00  0.00     0.220 C 
ATOM     59  O   UNL     1      -9.871  -5.792  -0.129  1.00  0.00    -0.275 OA
ATOM     60  H   UNL     1      -6.887  -5.319   0.866  1.00  0.00     0.164 HD
BRANCH  58  61
ATOM     61  C   UNL     1      -8.899  -3.773   0.799  1.00  0.00     0.100 C 
BRANCH  61  62
ATOM     62  C   UNL     1      -7.995  -3.519   2.006  1.00  0.00     0.010 C 
BRANCH  62  63
ATOM     63  C   UNL     1      -8.738  -3.031   3.256  1.00  0.00     0.000 C 
BRANCH  63  64
ATOM     64  C   UNL     1      -9.856  -2.029   2.969  1.00  0.00    -0.003 C 
ATOM     65  C   UNL     1      -9.492  -0.636   3.461  1.00  0.00     0.004 C 
ENDBRANCH  63  64
ENDBRANCH  62  63
ENDBRANCH  61  62
ENDBRANCH  58  61
ENDBRANCH  56  57
BRANCH  56  66
ATOM     66  C   UNL     1      -6.695  -7.975   1.135  1.00  0.00     0.157 C 
BRANCH  66  67
ATOM     67  C   UNL     1      -5.240  -7.609   1.185  1.00  0.00     0.305 C 
ATOM     68  O   UNL     1      -4.290  -8.359   1.021  1.00  0.00    -0.252 OA
BRANCH  67  69
ATOM     69  O   UNL     1      -5.050  -6.292   1.389  1.00  0.00    -0.481 OA
ATOM     70  H   UNL     1      -5.256  -5.873   0.527  1.00  0.00     0.296 HD
ENDBRANCH  67  69
ENDBRANCH  66  67
ENDBRANCH  56  66
ENDBRANCH  53  56
ENDBRANCH  50  52
ENDBRANCH  47  50
ENDBRANCH  45  46
BRANCH  45  71
ATOM     71  C   UNL     1      -6.102  -2.524  -6.264  1.00  0.00     0.037 C 
BRANCH  71  72
ATOM     72  C   UNL     1      -6.854  -3.128  -7.453  1.00  0.00     0.026 C 
BRANCH  72  73
ATOM     73  C   UNL     1      -6.499  -4.600  -7.650  1.00  0.00     0.146 C 
BRANCH  73  74
ATOM     74  N   UNL     1      -5.920  -4.746  -8.982  1.00  0.00    -0.254 NA
ATOM     75  C   UNL     1      -6.688  -5.144  -9.928  1.00  0.00     0.185 C 
ATOM     76  N   UNL     1      -6.185  -5.287 -11.165  1.00  0.00    -0.370 N 
ATOM     77  N   UNL     1      -7.994  -5.460  -9.880  1.00  0.00    -0.370 N 
ATOM     78  H   UNL     1      -5.205  -5.076 -11.287  1.00  0.00     0.159 HD
ATOM     79  H   UNL     1      -6.683  -5.728 -11.918  1.00  0.00     0.159 HD
ATOM     80  H   UNL     1      -8.507  -5.396  -9.014  1.00  0.00     0.159 HD
ATOM     81  H   UNL     1      -8.522  -5.651 -10.716  1.00  0.00     0.159 HD
ENDBRANCH  73  74
ENDBRANCH  72  73
ENDBRANCH  71  72
ENDBRANCH  45  71
ENDBRANCH   3  45
TORSDOF 20
ENDMDL
MODEL 37
REMARK VINA RESULT:    -5.735      5.313      8.864
REMARK INTER + INTRA:         -22.543
REMARK INTER:                 -16.475
REMARK INTRA:                  -6.068
REMARK UNBOUND:                -6.078
REMARK SMILES CCCCCC(=O)N[C@H](CC(=O)O)C(=O)N[C@H]1C(=O)N[C@H](CCCN=C(N)N)C(=O)N[C@@H]2CC[C@H](O)N(C2=O)[C@@H](CC(C)C)C(=O)N(C)[C@@H](Cc2ccccc2)C(=O)N[C@H](C(C)C)C(=O)O[C@@H]1C
REMARK SMILES IDX 30 1 31 2 29 3 32 5 35 6 37 7 34 8 38 9 33 10 39 11 36 12
REMARK SMILES IDX 40 14 41 15 42 16 43 17 44 18 45 19 46 20 47 21 48 22 49 23
REMARK SMILES IDX 50 24 51 25 52 26 56 27 53 28 55 29 54 30 57 31 58 32 59 33
REMARK SMILES IDX 60 35 61 36 62 37 63 38 64 39 65 40 66 41 67 42 68 43 21 45
REMARK SMILES IDX 20 46 18 47 19 48 17 50 16 52 14 53 15 54 9 56 8 57 6 58
REMARK SMILES IDX 7 59 5 61 4 62 3 63 2 64 1 65 10 66 11 67 12 68 13 69 22 71
REMARK SMILES IDX 23 72 24 73 25 74 26 75 27 76 28 77
REMARK H PARENT 31 4 36 13 59 34 20 49 16 55 8 60 13 70 27 78 27 79 28 80
REMARK H PARENT 28 81
REMARK Flexibility Score:  259.900
ROOT
ATOM      1  O   UNL     1      -8.071  -2.582   1.740  1.00  0.00    -0.273 OA
ATOM      2  N   UNL     1      -9.738  -2.912   0.210  1.00  0.00    -0.343 N 
ATOM      3  C   UNL     1      -8.457  -3.089   0.687  1.00  0.00     0.243 C 
ATOM      4  H   UNL     1     -10.025  -3.357  -0.653  1.00  0.00     0.164 HD
ENDROOT
BRANCH   2   5
ATOM      5  C   UNL     1     -10.663  -2.007   0.884  1.00  0.00     0.171 C 
ATOM      6  C   UNL     1     -13.343  -1.104   0.245  1.00  0.00     0.214 C 
ATOM      7  N   UNL     1     -12.207  -0.343  -0.221  1.00  0.00    -0.303 N 
ATOM      8  C   UNL     1     -13.081  -1.836   1.552  1.00  0.00     0.057 C 
ATOM      9  C   UNL     1     -10.900  -0.746   0.005  1.00  0.00     0.247 C 
ATOM     10  C   UNL     1     -11.892  -2.758   1.393  1.00  0.00     0.040 C 
ATOM     11  O   UNL     1      -9.934  -0.136  -0.472  1.00  0.00    -0.272 OA
BRANCH   6  12
ATOM     12  O   UNL     1     -13.695  -2.016  -0.769  1.00  0.00    -0.373 OA
ATOM     13  H   UNL     1     -13.104  -1.841  -1.532  1.00  0.00     0.213 HD
ENDBRANCH   6  12
BRANCH   7  14
ATOM     14  C   UNL     1     -12.489   0.821  -1.087  1.00  0.00     0.177 C 
BRANCH  14  15
ATOM     15  C   UNL     1     -13.477   0.557  -2.240  1.00  0.00     0.038 C 
BRANCH  15  16
ATOM     16  C   UNL     1     -14.836   1.290  -2.261  1.00  0.00    -0.015 C 
ATOM     17  C   UNL     1     -15.997   0.359  -2.623  1.00  0.00     0.007 C 
ATOM     18  C   UNL     1     -14.796   2.429  -3.287  1.00  0.00     0.007 C 
ENDBRANCH  15  16
ENDBRANCH  14  15
BRANCH  14  19
ATOM     19  C   UNL     1     -12.395   2.149  -0.260  1.00  0.00     0.245 C 
ATOM     20  O   UNL     1     -13.013   2.182   0.817  1.00  0.00    -0.272 OA
BRANCH  19  21
ATOM     21  N   UNL     1     -11.768   3.296  -0.712  1.00  0.00    -0.332 N 
ATOM     22  C   UNL     1     -12.351   4.278  -1.609  1.00  0.00     0.147 C 
BRANCH  21  23
ATOM     23  C   UNL     1     -10.373   3.552  -0.257  1.00  0.00     0.178 C 
BRANCH  23  24
ATOM     24  C   UNL     1      -9.968   2.809   1.033  1.00  0.00     0.070 C 
BRANCH  24  25
ATOM     25  C   UNL     1     -10.355   3.450   2.346  1.00  0.00    -0.045 A 
ATOM     26  C   UNL     1     -10.758   4.790   2.399  1.00  0.00     0.004 A 
ATOM     27  C   UNL     1     -10.309   2.708   3.535  1.00  0.00     0.004 A 
ATOM     28  C   UNL     1     -11.097   5.380   3.619  1.00  0.00     0.000 A 
ATOM     29  C   UNL     1     -10.649   3.298   4.754  1.00  0.00     0.000 A 
ATOM     30  C   UNL     1     -11.040   4.635   4.795  1.00  0.00     0.000 A 
ENDBRANCH  24  25
ENDBRANCH  23  24
BRANCH  23  31
ATOM     31  C   UNL     1      -9.339   3.473  -1.406  1.00  0.00     0.243 C 
ATOM     32  O   UNL     1      -8.848   4.455  -1.956  1.00  0.00    -0.273 OA
ATOM     33  N   UNL     1      -9.150   2.191  -1.892  1.00  0.00    -0.341 N 
ATOM     34  H   UNL     1      -9.590   1.413  -1.395  1.00  0.00     0.164 HD
BRANCH  33  35
ATOM     35  C   UNL     1      -8.308   1.894  -3.054  1.00  0.00     0.194 C 
BRANCH  35  36
ATOM     36  C   UNL     1      -9.096   1.735  -4.385  1.00  0.00     0.017 C 
ATOM     37  C   UNL     1      -9.005   3.008  -5.244  1.00  0.00     0.010 C 
ATOM     38  C   UNL     1     -10.583   1.428  -4.173  1.00  0.00     0.010 C 
ENDBRANCH  35  36
BRANCH  35  39
ATOM     39  C   UNL     1      -7.344   0.700  -2.805  1.00  0.00     0.329 C 
ATOM     40  O   UNL     1      -6.326   0.771  -2.125  1.00  0.00    -0.250 OA
BRANCH  39  41
ATOM     41  O   UNL     1      -7.803  -0.463  -3.357  1.00  0.00    -0.458 OA
BRANCH  41  42
ATOM     42  C   UNL     1      -6.807  -1.323  -3.961  1.00  0.00     0.205 CG0
ATOM     43  C   UNL     1      -6.657  -0.891  -5.418  1.00  0.00     0.056 C 
ATOM     44  G   UNL     1      -7.273  -2.786  -3.824  1.00  0.00     0.000 G0
ENDBRANCH  41  42
ENDBRANCH  39  41
ENDBRANCH  35  39
ENDBRANCH  33  35
ENDBRANCH  23  31
ENDBRANCH  21  23
ENDBRANCH  19  21
ENDBRANCH  14  19
ENDBRANCH   7  14
ENDBRANCH   2   5
BRANCH   3  45
ATOM     45  C   UNL     1      -7.553  -3.980  -0.175  1.00  0.00     0.171 C 
BRANCH  45  46
ATOM     46  N   UNL     1      -7.817  -3.593  -1.554  1.00  0.00    -0.342 N 
ATOM     47  C   UNL     1      -6.812  -3.300  -2.442  1.00  0.00     0.247 C 
ATOM     48  O   UNL     1      -5.619  -3.413  -2.161  1.00  0.00    -0.273 OA
ATOM     49  H   UNL     1      -8.792  -3.542  -1.845  1.00  0.00     0.164 HD
BRANCH  47  50
ATOM     50  C   UNL     1      -7.283  -2.791  -3.812  1.00  0.00     0.212 CG0
ATOM     51  G   UNL     1      -6.801  -1.335  -3.960  1.00  0.00     0.000 G0
BRANCH  50  52
ATOM     52  N   UNL     1      -6.689  -3.699  -4.790  1.00  0.00    -0.339 N 
ATOM     53  C   UNL     1      -7.429  -4.471  -5.652  1.00  0.00     0.243 C 
ATOM     54  O   UNL     1      -8.656  -4.497  -5.629  1.00  0.00    -0.273 OA
ATOM     55  H   UNL     1      -5.676  -3.805  -4.782  1.00  0.00     0.164 HD
BRANCH  53  56
ATOM     56  C   UNL     1      -6.584  -5.414  -6.532  1.00  0.00     0.182 C 
BRANCH  56  57
ATOM     57  N   UNL     1      -5.157  -5.091  -6.431  1.00  0.00    -0.344 N 
ATOM     58  C   UNL     1      -4.257  -5.921  -5.807  1.00  0.00     0.220 C 
ATOM     59  O   UNL     1      -4.593  -6.949  -5.231  1.00  0.00    -0.275 OA
ATOM     60  H   UNL     1      -4.823  -4.304  -6.980  1.00  0.00     0.164 HD
BRANCH  58  61
ATOM     61  C   UNL     1      -2.828  -5.416  -5.873  1.00  0.00     0.100 C 
BRANCH  61  62
ATOM     62  C   UNL     1      -2.482  -4.714  -7.187  1.00  0.00     0.010 C 
BRANCH  62  63
ATOM     63  C   UNL     1      -2.015  -3.262  -7.019  1.00  0.00     0.000 C 
BRANCH  63  64
ATOM     64  C   UNL     1      -1.321  -2.681  -8.249  1.00  0.00    -0.003 C 
ATOM     65  C   UNL     1      -2.327  -2.311  -9.330  1.00  0.00     0.004 C 
ENDBRANCH  63  64
ENDBRANCH  62  63
ENDBRANCH  61  62
ENDBRANCH  58  61
ENDBRANCH  56  57
BRANCH  56  66
ATOM     66  C   UNL     1      -7.073  -5.416  -7.979  1.00  0.00     0.157 C 
BRANCH  66  67
ATOM     67  C   UNL     1      -5.995  -4.958  -8.919  1.00  0.00     0.305 C 
ATOM     68  O   UNL     1      -5.065  -5.623  -9.348  1.00  0.00    -0.252 OA
BRANCH  67  69
ATOM     69  O   UNL     1      -6.171  -3.684  -9.317  1.00  0.00    -0.481 OA
ATOM     70  H   UNL     1      -5.489  -3.173  -8.832  1.00  0.00     0.296 HD
ENDBRANCH  67  69
ENDBRANCH  66  67
ENDBRANCH  56  66
ENDBRANCH  53  56
ENDBRANCH  50  52
ENDBRANCH  47  50
ENDBRANCH  45  46
BRANCH  45  71
ATOM     71  C   UNL     1      -7.872  -5.460   0.069  1.00  0.00     0.037 C 
BRANCH  71  72
ATOM     72  C   UNL     1      -8.101  -6.222  -1.239  1.00  0.00     0.026 C 
BRANCH  72  73
ATOM     73  C   UNL     1      -7.409  -7.583  -1.222  1.00  0.00     0.146 C 
BRANCH  73  74
ATOM     74  N   UNL     1      -6.258  -7.511  -2.116  1.00  0.00    -0.254 NA
ATOM     75  C   UNL     1      -5.096  -7.392  -1.588  1.00  0.00     0.185 C 
ATOM     76  N   UNL     1      -4.017  -7.324  -2.385  1.00  0.00    -0.370 N 
ATOM     77  N   UNL     1      -4.762  -7.320  -0.288  1.00  0.00    -0.370 N 
ATOM     78  H   UNL     1      -4.180  -7.363  -3.381  1.00  0.00     0.159 HD
ATOM     79  H   UNL     1      -3.098  -7.086  -2.054  1.00  0.00     0.159 HD
ATOM     80  H   UNL     1      -5.471  -7.362   0.428  1.00  0.00     0.159 HD
ATOM     81  H   UNL     1      -3.801  -7.343   0.013  1.00  0.00     0.159 HD
ENDBRANCH  73  74
ENDBRANCH  72  73
ENDBRANCH  71  72
ENDBRANCH  45  71
ENDBRANCH   3  45
TORSDOF 20
ENDMDL
MODEL 38
REMARK VINA RESULT:    -5.729      3.367      6.389
REMARK INTER + INTRA:         -22.525
REMARK INTER:                 -17.897
REMARK INTRA:                  -4.628
REMARK UNBOUND:                -6.078
REMARK SMILES CCCCCC(=O)N[C@H](CC(=O)O)C(=O)N[C@H]1C(=O)N[C@H](CCCN=C(N)N)C(=O)N[C@@H]2CC[C@H](O)N(C2=O)[C@@H](CC(C)C)C(=O)N(C)[C@@H](Cc2ccccc2)C(=O)N[C@H](C(C)C)C(=O)O[C@@H]1C
REMARK SMILES IDX 30 1 31 2 29 3 32 5 35 6 37 7 34 8 38 9 33 10 39 11 36 12
REMARK SMILES IDX 40 14 41 15 42 16 43 17 44 18 45 19 46 20 47 21 48 22 49 23
REMARK SMILES IDX 50 24 51 25 52 26 56 27 53 28 55 29 54 30 57 31 58 32 59 33
REMARK SMILES IDX 60 35 61 36 62 37 63 38 64 39 65 40 66 41 67 42 68 43 21 45
REMARK SMILES IDX 20 46 18 47 19 48 17 50 16 52 14 53 15 54 9 56 8 57 6 58
REMARK SMILES IDX 7 59 5 61 4 62 3 63 2 64 1 65 10 66 11 67 12 68 13 69 22 71
REMARK SMILES IDX 23 72 24 73 25 74 26 75 27 76 28 77
REMARK H PARENT 31 4 36 13 59 34 20 49 16 55 8 60 13 70 27 78 27 79 28 80
REMARK H PARENT 28 81
REMARK Flexibility Score:  259.900
ROOT
ATOM      1  O   UNL     1      -4.564  -5.009  -2.560  1.00  0.00    -0.273 OA
ATOM      2  N   UNL     1      -6.525  -5.434  -3.658  1.00  0.00    -0.343 N 
ATOM      3  C   UNL     1      -5.176  -5.152  -3.618  1.00  0.00     0.243 C 
ATOM      4  H   UNL     1      -6.992  -5.559  -4.547  1.00  0.00     0.164 HD
ENDROOT
BRANCH   2   5
ATOM      5  C   UNL     1      -7.314  -5.458  -2.431  1.00  0.00     0.171 C 
ATOM      6  C   UNL     1      -6.623  -5.073   0.358  1.00  0.00     0.214 C 
ATOM      7  N   UNL     1      -6.597  -6.403  -0.203  1.00  0.00    -0.303 N 
ATOM      8  C   UNL     1      -7.645  -4.161  -0.302  1.00  0.00     0.057 C 
ATOM      9  C   UNL     1      -6.867  -6.651  -1.539  1.00  0.00     0.247 C 
ATOM     10  C   UNL     1      -7.370  -4.073  -1.788  1.00  0.00     0.040 C 
ATOM     11  O   UNL     1      -6.758  -7.782  -2.031  1.00  0.00    -0.272 OA
BRANCH   6  12
ATOM     12  O   UNL     1      -5.328  -4.530   0.237  1.00  0.00    -0.373 OA
ATOM     13  H   UNL     1      -5.340  -3.656   0.683  1.00  0.00     0.213 HD
ENDBRANCH   6  12
BRANCH   7  14
ATOM     14  C   UNL     1      -6.124  -7.493   0.677  1.00  0.00     0.177 C 
BRANCH  14  15
ATOM     15  C   UNL     1      -4.599  -7.545   0.894  1.00  0.00     0.038 C 
BRANCH  15  16
ATOM     16  C   UNL     1      -3.796  -8.756   0.367  1.00  0.00    -0.015 C 
ATOM     17  C   UNL     1      -4.703  -9.886  -0.130  1.00  0.00     0.007 C 
ATOM     18  C   UNL     1      -2.904  -9.312   1.484  1.00  0.00     0.007 C 
ENDBRANCH  15  16
ENDBRANCH  14  15
BRANCH  14  19
ATOM     19  C   UNL     1      -7.206  -7.825   1.762  1.00  0.00     0.245 C 
ATOM     20  O   UNL     1      -8.394  -7.698   1.423  1.00  0.00    -0.272 OA
BRANCH  19  21
ATOM     21  N   UNL     1      -6.910  -8.134   3.077  1.00  0.00    -0.332 N 
ATOM     22  C   UNL     1      -6.129  -9.275   3.519  1.00  0.00     0.147 C 
BRANCH  21  23
ATOM     23  C   UNL     1      -7.439  -7.235   4.139  1.00  0.00     0.178 C 
BRANCH  23  24
ATOM     24  C   UNL     1      -7.719  -5.789   3.681  1.00  0.00     0.070 C 
BRANCH  24  25
ATOM     25  C   UNL     1      -7.025  -4.680   4.438  1.00  0.00    -0.045 A 
ATOM     26  C   UNL     1      -5.648  -4.468   4.296  1.00  0.00     0.004 A 
ATOM     27  C   UNL     1      -7.754  -3.848   5.300  1.00  0.00     0.004 A 
ATOM     28  C   UNL     1      -5.011  -3.453   5.012  1.00  0.00     0.000 A 
ATOM     29  C   UNL     1      -7.116  -2.832   6.014  1.00  0.00     0.000 A 
ATOM     30  C   UNL     1      -5.744  -2.637   5.871  1.00  0.00     0.000 A 
ENDBRANCH  24  25
ENDBRANCH  23  24
BRANCH  23  31
ATOM     31  C   UNL     1      -8.570  -7.885   4.972  1.00  0.00     0.243 C 
ATOM     32  O   UNL     1      -9.491  -8.537   4.488  1.00  0.00    -0.273 OA
ATOM     33  N   UNL     1      -8.560  -7.511   6.305  1.00  0.00    -0.341 N 
ATOM     34  H   UNL     1      -7.768  -6.962   6.649  1.00  0.00     0.164 HD
BRANCH  33  35
ATOM     35  C   UNL     1      -9.603  -7.909   7.254  1.00  0.00     0.194 C 
BRANCH  35  36
ATOM     36  C   UNL     1     -10.525  -6.743   7.711  1.00  0.00     0.017 C 
ATOM     37  C   UNL     1     -11.505  -6.336   6.597  1.00  0.00     0.010 C 
ATOM     38  C   UNL     1      -9.749  -5.486   8.122  1.00  0.00     0.010 C 
ENDBRANCH  35  36
BRANCH  35  39
ATOM     39  C   UNL     1      -9.040  -8.710   8.461  1.00  0.00     0.329 C 
ATOM     40  O   UNL     1      -7.849  -8.939   8.637  1.00  0.00    -0.250 OA
BRANCH  39  41
ATOM     41  O   UNL     1     -10.014  -9.057   9.356  1.00  0.00    -0.458 OA
BRANCH  41  42
ATOM     42  C   UNL     1      -9.762  -8.722  10.741  1.00  0.00     0.205 CG0
ATOM     43  C   UNL     1      -9.494 -10.029  11.484  1.00  0.00     0.056 C 
ATOM     44  G   UNL     1     -10.989  -7.970  11.296  1.00  0.00     0.000 G0
ENDBRANCH  41  42
ENDBRANCH  39  41
ENDBRANCH  35  39
ENDBRANCH  33  35
ENDBRANCH  23  31
ENDBRANCH  21  23
ENDBRANCH  19  21
ENDBRANCH  14  19
ENDBRANCH   7  14
ENDBRANCH   2   5
BRANCH   3  45
ATOM     45  C   UNL     1      -4.487  -5.049  -4.985  1.00  0.00     0.171 C 
BRANCH  45  46
ATOM     46  N   UNL     1      -5.301  -4.129  -5.769  1.00  0.00    -0.342 N 
ATOM     47  C   UNL     1      -4.762  -3.064  -6.447  1.00  0.00     0.247 C 
ATOM     48  O   UNL     1      -3.551  -2.852  -6.504  1.00  0.00    -0.273 OA
ATOM     49  H   UNL     1      -6.304  -4.302  -5.795  1.00  0.00     0.164 HD
BRANCH  47  50
ATOM     50  C   UNL     1      -5.786  -2.134  -7.114  1.00  0.00     0.212 CG0
ATOM     51  G   UNL     1      -6.366  -2.875  -8.335  1.00  0.00     0.000 G0
BRANCH  50  52
ATOM     52  N   UNL     1      -6.782  -1.849  -6.084  1.00  0.00    -0.339 N 
ATOM     53  C   UNL     1      -7.098  -0.578  -5.670  1.00  0.00     0.243 C 
ATOM     54  O   UNL     1      -6.526   0.420  -6.099  1.00  0.00    -0.273 OA
ATOM     55  H   UNL     1      -7.212  -2.641  -5.611  1.00  0.00     0.164 HD
BRANCH  53  56
ATOM     56  C   UNL     1      -8.115  -0.531  -4.511  1.00  0.00     0.182 C 
BRANCH  56  57
ATOM     57  N   UNL     1      -8.692   0.810  -4.371  1.00  0.00    -0.344 N 
ATOM     58  C   UNL     1     -10.046   1.036  -4.405  1.00  0.00     0.220 C 
ATOM     59  O   UNL     1     -10.862   0.147  -4.626  1.00  0.00    -0.275 OA
ATOM     60  H   UNL     1      -8.061   1.555  -4.086  1.00  0.00     0.164 HD
BRANCH  58  61
ATOM     61  C   UNL     1     -10.419   2.490  -4.181  1.00  0.00     0.100 C 
BRANCH  61  62
ATOM     62  C   UNL     1      -9.307   3.319  -3.539  1.00  0.00     0.010 C 
BRANCH  62  63
ATOM     63  C   UNL     1      -9.528   3.620  -2.051  1.00  0.00     0.000 C 
BRANCH  63  64
ATOM     64  C   UNL     1      -9.119   5.031  -1.630  1.00  0.00    -0.003 C 
ATOM     65  C   UNL     1     -10.270   6.013  -1.791  1.00  0.00     0.004 C 
ENDBRANCH  63  64
ENDBRANCH  62  63
ENDBRANCH  61  62
ENDBRANCH  58  61
ENDBRANCH  56  57
BRANCH  56  66
ATOM     66  C   UNL     1      -7.501  -1.034  -3.206  1.00  0.00     0.157 C 
BRANCH  66  67
ATOM     67  C   UNL     1      -6.575  -0.012  -2.612  1.00  0.00     0.305 C 
ATOM     68  O   UNL     1      -6.852   1.138  -2.305  1.00  0.00    -0.252 OA
BRANCH  67  69
ATOM     69  O   UNL     1      -5.344  -0.508  -2.383  1.00  0.00    -0.481 OA
ATOM     70  H   UNL     1      -4.732   0.151  -2.773  1.00  0.00     0.296 HD
ENDBRANCH  67  69
ENDBRANCH  66  67
ENDBRANCH  56  66
ENDBRANCH  53  56
ENDBRANCH  50  52
ENDBRANCH  47  50
ENDBRANCH  45  46
BRANCH  45  71
ATOM     71  C   UNL     1      -4.400  -6.430  -5.645  1.00  0.00     0.037 C 
BRANCH  71  72
ATOM     72  C   UNL     1      -3.832  -6.355  -7.064  1.00  0.00     0.026 C 
BRANCH  72  73
ATOM     73  C   UNL     1      -3.852  -7.721  -7.748  1.00  0.00     0.146 C 
BRANCH  73  74
ATOM     74  N   UNL     1      -5.226  -8.211  -7.726  1.00  0.00    -0.254 NA
ATOM     75  C   UNL     1      -5.975  -7.941  -8.731  1.00  0.00     0.185 C 
ATOM     76  N   UNL     1      -7.244  -8.380  -8.740  1.00  0.00    -0.370 N 
ATOM     77  N   UNL     1      -5.678  -7.249  -9.844  1.00  0.00    -0.370 N 
ATOM     78  H   UNL     1      -7.553  -8.905  -7.934  1.00  0.00     0.159 HD
ATOM     79  H   UNL     1      -7.926  -8.088  -9.418  1.00  0.00     0.159 HD
ATOM     80  H   UNL     1      -4.756  -6.861  -9.977  1.00  0.00     0.159 HD
ATOM     81  H   UNL     1      -6.315  -7.199 -10.622  1.00  0.00     0.159 HD
ENDBRANCH  73  74
ENDBRANCH  72  73
ENDBRANCH  71  72
ENDBRANCH  45  71
ENDBRANCH   3  45
TORSDOF 20
ENDMDL
MODEL 39
REMARK VINA RESULT:    -5.710      4.329      6.808
REMARK INTER + INTRA:         -22.469
REMARK INTER:                 -17.242
REMARK INTRA:                  -5.227
REMARK UNBOUND:                -6.078
REMARK SMILES CCCCCC(=O)N[C@H](CC(=O)O)C(=O)N[C@H]1C(=O)N[C@H](CCCN=C(N)N)C(=O)N[C@@H]2CC[C@H](O)N(C2=O)[C@@H](CC(C)C)C(=O)N(C)[C@@H](Cc2ccccc2)C(=O)N[C@H](C(C)C)C(=O)O[C@@H]1C
REMARK SMILES IDX 30 1 31 2 29 3 32 5 35 6 37 7 34 8 38 9 33 10 39 11 36 12
REMARK SMILES IDX 40 14 41 15 42 16 43 17 44 18 45 19 46 20 47 21 48 22 49 23
REMARK SMILES IDX 50 24 51 25 52 26 56 27 53 28 55 29 54 30 57 31 58 32 59 33
REMARK SMILES IDX 60 35 61 36 62 37 63 38 64 39 65 40 66 41 67 42 68 43 21 45
REMARK SMILES IDX 20 46 18 47 19 48 17 50 16 52 14 53 15 54 9 56 8 57 6 58
REMARK SMILES IDX 7 59 5 61 4 62 3 63 2 64 1 65 10 66 11 67 12 68 13 69 22 71
REMARK SMILES IDX 23 72 24 73 25 74 26 75 27 76 28 77
REMARK H PARENT 31 4 36 13 59 34 20 49 16 55 8 60 13 70 27 78 27 79 28 80
REMARK H PARENT 28 81
REMARK Flexibility Score:  259.900
ROOT
ATOM      1  O   UNL     1      -7.532  -2.439  -0.686  1.00  0.00    -0.273 OA
ATOM      2  N   UNL     1      -9.470  -2.848  -1.829  1.00  0.00    -0.343 N 
ATOM      3  C   UNL     1      -8.105  -2.671  -1.751  1.00  0.00     0.243 C 
ATOM      4  H   UNL     1      -9.906  -3.051  -2.720  1.00  0.00     0.164 HD
ENDROOT
BRANCH   2   5
ATOM      5  C   UNL     1     -10.313  -2.648  -0.656  1.00  0.00     0.171 C 
ATOM      6  C   UNL     1      -9.712  -2.045   2.115  1.00  0.00     0.214 C 
ATOM      7  N   UNL     1      -9.821  -3.423   1.696  1.00  0.00    -0.303 N 
ATOM      8  C   UNL     1     -10.585  -1.099   1.306  1.00  0.00     0.057 C 
ATOM      9  C   UNL     1     -10.055  -3.782   0.378  1.00  0.00     0.247 C 
ATOM     10  C   UNL     1     -10.232  -1.205  -0.162  1.00  0.00     0.040 C 
ATOM     11  O   UNL     1     -10.061  -4.964   0.011  1.00  0.00    -0.272 OA
BRANCH   6  12
ATOM     12  O   UNL     1      -8.358  -1.670   2.017  1.00  0.00    -0.373 OA
ATOM     13  H   UNL     1      -8.215  -1.347   1.102  1.00  0.00     0.213 HD
ENDBRANCH   6  12
BRANCH   7  14
ATOM     14  C   UNL     1      -9.524  -4.458   2.709  1.00  0.00     0.177 C 
BRANCH  14  15
ATOM     15  C   UNL     1      -8.033  -4.617   3.066  1.00  0.00     0.038 C 
BRANCH  15  16
ATOM     16  C   UNL     1      -7.508  -5.988   3.548  1.00  0.00    -0.015 C 
ATOM     17  C   UNL     1      -5.996  -6.134   3.356  1.00  0.00     0.007 C 
ATOM     18  C   UNL     1      -8.202  -7.112   2.768  1.00  0.00     0.007 C 
ENDBRANCH  15  16
ENDBRANCH  14  15
BRANCH  14  19
ATOM     19  C   UNL     1     -10.717  -4.591   3.716  1.00  0.00     0.245 C 
ATOM     20  O   UNL     1     -11.714  -3.880   3.500  1.00  0.00    -0.272 OA
BRANCH  19  21
ATOM     21  N   UNL     1     -10.673  -5.355   4.868  1.00  0.00    -0.332 N 
ATOM     22  C   UNL     1     -11.176  -6.711   5.000  1.00  0.00     0.147 C 
BRANCH  21  23
ATOM     23  C   UNL     1     -10.070  -4.746   6.085  1.00  0.00     0.178 C 
BRANCH  23  24
ATOM     24  C   UNL     1      -9.977  -3.206   6.058  1.00  0.00     0.070 C 
BRANCH  24  25
ATOM     25  C   UNL     1      -8.703  -2.584   6.581  1.00  0.00    -0.045 A 
ATOM     26  C   UNL     1      -7.681  -2.197   5.706  1.00  0.00     0.004 A 
ATOM     27  C   UNL     1      -8.525  -2.390   7.959  1.00  0.00     0.004 A 
ATOM     28  C   UNL     1      -6.500  -1.638   6.199  1.00  0.00     0.000 A 
ATOM     29  C   UNL     1      -7.345  -1.830   8.451  1.00  0.00     0.000 A 
ATOM     30  C   UNL     1      -6.332  -1.458   7.570  1.00  0.00     0.000 A 
ENDBRANCH  24  25
ENDBRANCH  23  24
BRANCH  23  31
ATOM     31  C   UNL     1     -10.630  -5.341   7.399  1.00  0.00     0.243 C 
ATOM     32  O   UNL     1     -10.213  -6.374   7.918  1.00  0.00    -0.273 OA
ATOM     33  N   UNL     1     -11.775  -4.706   7.850  1.00  0.00    -0.341 N 
ATOM     34  H   UNL     1     -12.077  -3.853   7.374  1.00  0.00     0.164 HD
BRANCH  33  35
ATOM     35  C   UNL     1     -12.543  -5.173   9.008  1.00  0.00     0.194 C 
BRANCH  35  36
ATOM     36  C   UNL     1     -13.995  -4.621   9.070  1.00  0.00     0.017 C 
ATOM     37  C   UNL     1     -14.079  -3.200   8.487  1.00  0.00     0.010 C 
ATOM     38  C   UNL     1     -14.561  -4.567  10.495  1.00  0.00     0.010 C 
ENDBRANCH  35  36
BRANCH  35  39
ATOM     39  C   UNL     1     -11.786  -4.968  10.350  1.00  0.00     0.329 C 
ATOM     40  O   UNL     1     -11.371  -3.884  10.745  1.00  0.00    -0.250 OA
BRANCH  39  41
ATOM     41  O   UNL     1     -11.710  -6.118  11.085  1.00  0.00    -0.458 OA
BRANCH  41  42
ATOM     42  C   UNL     1     -10.597  -6.219  12.005  1.00  0.00     0.205 CG0
ATOM     43  C   UNL     1      -9.432  -6.844  11.240  1.00  0.00     0.056 C 
ATOM     44  G   UNL     1     -11.033  -7.070  13.214  1.00  0.00     0.000 G0
ENDBRANCH  41  42
ENDBRANCH  39  41
ENDBRANCH  35  39
ENDBRANCH  33  35
ENDBRANCH  23  31
ENDBRANCH  21  23
ENDBRANCH  19  21
ENDBRANCH  14  19
ENDBRANCH   7  14
ENDBRANCH   2   5
BRANCH   3  45
ATOM     45  C   UNL     1      -7.348  -2.803  -3.079  1.00  0.00     0.171 C 
BRANCH  45  46
ATOM     46  N   UNL     1      -7.943  -1.817  -3.971  1.00  0.00    -0.342 N 
ATOM     47  C   UNL     1      -7.244  -0.733  -4.442  1.00  0.00     0.247 C 
ATOM     48  O   UNL     1      -6.049  -0.555  -4.205  1.00  0.00    -0.273 OA
ATOM     49  H   UNL     1      -8.916  -1.957  -4.238  1.00  0.00     0.164 HD
BRANCH  47  50
ATOM     50  C   UNL     1      -8.069   0.263  -5.268  1.00  0.00     0.212 CG0
ATOM     51  G   UNL     1      -7.666   0.092  -6.746  1.00  0.00     0.000 G0
BRANCH  50  52
ATOM     52  N   UNL     1      -9.466  -0.076  -5.007  1.00  0.00    -0.339 N 
ATOM     53  C   UNL     1     -10.507   0.796  -5.212  1.00  0.00     0.243 C 
ATOM     54  O   UNL     1     -10.336   1.954  -5.582  1.00  0.00    -0.273 OA
ATOM     55  H   UNL     1      -9.662  -0.986  -4.593  1.00  0.00     0.164 HD
BRANCH  53  56
ATOM     56  C   UNL     1     -11.882   0.244  -4.784  1.00  0.00     0.182 C 
BRANCH  56  57
ATOM     57  N   UNL     1     -12.915   1.281  -4.870  1.00  0.00    -0.344 N 
ATOM     58  C   UNL     1     -13.997   1.174  -5.710  1.00  0.00     0.220 C 
ATOM     59  O   UNL     1     -14.137   0.244  -6.497  1.00  0.00    -0.275 OA
ATOM     60  H   UNL     1     -12.891   2.014  -4.167  1.00  0.00     0.164 HD
BRANCH  58  61
ATOM     61  C   UNL     1     -14.968   2.334  -5.590  1.00  0.00     0.100 C 
BRANCH  61  62
ATOM     62  C   UNL     1     -15.870   2.511  -6.812  1.00  0.00     0.010 C 
BRANCH  62  63
ATOM     63  C   UNL     1     -16.939   3.599  -6.651  1.00  0.00     0.000 C 
BRANCH  63  64
ATOM     64  C   UNL     1     -17.312   3.901  -5.200  1.00  0.00    -0.003 C 
ATOM     65  C   UNL     1     -18.772   3.573  -4.923  1.00  0.00     0.004 C 
ENDBRANCH  63  64
ENDBRANCH  62  63
ENDBRANCH  61  62
ENDBRANCH  58  61
ENDBRANCH  56  57
BRANCH  56  66
ATOM     66  C   UNL     1     -11.821  -0.397  -3.399  1.00  0.00     0.157 C 
BRANCH  66  67
ATOM     67  C   UNL     1     -13.153  -0.327  -2.709  1.00  0.00     0.305 C 
ATOM     68  O   UNL     1     -13.511   0.504  -1.888  1.00  0.00    -0.252 OA
BRANCH  67  69
ATOM     69  O   UNL     1     -13.998  -1.288  -3.130  1.00  0.00    -0.481 OA
ATOM     70  H   UNL     1     -13.898  -2.013  -2.477  1.00  0.00     0.296 HD
ENDBRANCH  67  69
ENDBRANCH  66  67
ENDBRANCH  56  66
ENDBRANCH  53  56
ENDBRANCH  50  52
ENDBRANCH  47  50
ENDBRANCH  45  46
BRANCH  45  71
ATOM     71  C   UNL     1      -7.488  -4.225  -3.634  1.00  0.00     0.037 C 
BRANCH  71  72
ATOM     72  C   UNL     1      -6.128  -4.882  -3.884  1.00  0.00     0.026 C 
BRANCH  72  73
ATOM     73  C   UNL     1      -5.673  -5.704  -2.679  1.00  0.00     0.146 C 
BRANCH  73  74
ATOM     74  N   UNL     1      -6.696  -6.710  -2.413  1.00  0.00    -0.254 NA
ATOM     75  C   UNL     1      -7.325  -6.645  -1.298  1.00  0.00     0.185 C 
ATOM     76  N   UNL     1      -8.273  -7.557  -1.025  1.00  0.00    -0.370 N 
ATOM     77  N   UNL     1      -7.181  -5.759  -0.297  1.00  0.00    -0.370 N 
ATOM     78  H   UNL     1      -8.440  -8.266  -1.724  1.00  0.00     0.159 HD
ATOM     79  H   UNL     1      -8.701  -7.656  -0.122  1.00  0.00     0.159 HD
ATOM     80  H   UNL     1      -6.506  -5.012  -0.366  1.00  0.00     0.159 HD
ATOM     81  H   UNL     1      -7.814  -5.739   0.485  1.00  0.00     0.159 HD
ENDBRANCH  73  74
ENDBRANCH  72  73
ENDBRANCH  71  72
ENDBRANCH  45  71
ENDBRANCH   3  45
TORSDOF 20
ENDMDL
MODEL 40
REMARK VINA RESULT:    -5.681      7.545     13.071
REMARK INTER + INTRA:         -22.386
REMARK INTER:                 -16.594
REMARK INTRA:                  -5.792
REMARK UNBOUND:                -6.078
REMARK SMILES CCCCCC(=O)N[C@H](CC(=O)O)C(=O)N[C@H]1C(=O)N[C@H](CCCN=C(N)N)C(=O)N[C@@H]2CC[C@H](O)N(C2=O)[C@@H](CC(C)C)C(=O)N(C)[C@@H](Cc2ccccc2)C(=O)N[C@H](C(C)C)C(=O)O[C@@H]1C
REMARK SMILES IDX 30 1 31 2 29 3 32 5 35 6 37 7 34 8 38 9 33 10 39 11 36 12
REMARK SMILES IDX 40 14 41 15 42 16 43 17 44 18 45 19 46 20 47 21 48 22 49 23
REMARK SMILES IDX 50 24 51 25 52 26 56 27 53 28 55 29 54 30 57 31 58 32 59 33
REMARK SMILES IDX 60 35 61 36 62 37 63 38 64 39 65 40 66 41 67 42 68 43 21 45
REMARK SMILES IDX 20 46 18 47 19 48 17 50 16 52 14 53 15 54 9 56 8 57 6 58
REMARK SMILES IDX 7 59 5 61 4 62 3 63 2 64 1 65 10 66 11 67 12 68 13 69 22 71
REMARK SMILES IDX 23 72 24 73 25 74 26 75 27 76 28 77
REMARK H PARENT 31 4 36 13 59 34 20 49 16 55 8 60 13 70 27 78 27 79 28 80
REMARK H PARENT 28 81
REMARK Flexibility Score:  259.900
ROOT
ATOM      1  O   UNL     1      -8.819  -3.557  -1.396  1.00  0.00    -0.273 OA
ATOM      2  N   UNL     1      -8.357  -1.437  -0.673  1.00  0.00    -0.343 N 
ATOM      3  C   UNL     1      -8.503  -2.794  -0.482  1.00  0.00     0.243 C 
ATOM      4  H   UNL     1      -8.082  -0.842   0.099  1.00  0.00     0.164 HD
ENDROOT
BRANCH   2   5
ATOM      5  C   UNL     1      -8.690  -0.827  -1.956  1.00  0.00     0.171 C 
ATOM      6  C   UNL     1      -7.984   1.711  -3.166  1.00  0.00     0.214 C 
ATOM      7  N   UNL     1      -9.187   1.612  -2.374  1.00  0.00    -0.303 N 
ATOM      8  C   UNL     1      -7.613   0.411  -3.861  1.00  0.00     0.057 C 
ATOM      9  C   UNL     1      -9.556   0.445  -1.726  1.00  0.00     0.247 C 
ATOM     10  C   UNL     1      -7.449  -0.690  -2.836  1.00  0.00     0.040 C 
ATOM     11  O   UNL     1     -10.542   0.392  -0.979  1.00  0.00    -0.272 OA
BRANCH   6  12
ATOM     12  O   UNL     1      -6.941   2.129  -2.316  1.00  0.00    -0.373 OA
ATOM     13  H   UNL     1      -7.356   2.607  -1.566  1.00  0.00     0.213 HD
ENDBRANCH   6  12
BRANCH   7  14
ATOM     14  C   UNL     1      -9.949   2.860  -2.154  1.00  0.00     0.177 C 
BRANCH  14  15
ATOM     15  C   UNL     1      -9.253   3.904  -1.259  1.00  0.00     0.038 C 
BRANCH  15  16
ATOM     16  C   UNL     1     -10.106   4.814  -0.347  1.00  0.00    -0.015 C 
ATOM     17  C   UNL     1      -9.494   6.207  -0.174  1.00  0.00     0.007 C 
ATOM     18  C   UNL     1     -10.244   4.174   1.041  1.00  0.00     0.007 C 
ENDBRANCH  15  16
ENDBRANCH  14  15
BRANCH  14  19
ATOM     19  C   UNL     1     -10.834   3.185  -3.406  1.00  0.00     0.245 C 
ATOM     20  O   UNL     1     -11.861   2.501  -3.558  1.00  0.00    -0.272 OA
BRANCH  19  21
ATOM     21  N   UNL     1     -10.479   4.094  -4.387  1.00  0.00    -0.332 N 
ATOM     22  C   UNL     1      -9.645   3.806  -5.540  1.00  0.00     0.147 C 
BRANCH  21  23
ATOM     23  C   UNL     1     -10.978   5.490  -4.255  1.00  0.00     0.178 C 
BRANCH  23  24
ATOM     24  C   UNL     1      -9.902   6.526  -3.867  1.00  0.00     0.070 C 
BRANCH  24  25
ATOM     25  C   UNL     1      -8.484   6.240  -4.302  1.00  0.00    -0.045 A 
ATOM     26  C   UNL     1      -8.003   6.706  -5.532  1.00  0.00     0.004 A 
ATOM     27  C   UNL     1      -7.627   5.497  -3.476  1.00  0.00     0.004 A 
ATOM     28  C   UNL     1      -6.696   6.424  -5.934  1.00  0.00     0.000 A 
ATOM     29  C   UNL     1      -6.320   5.216  -3.879  1.00  0.00     0.000 A 
ATOM     30  C   UNL     1      -5.857   5.678  -5.109  1.00  0.00     0.000 A 
ENDBRANCH  24  25
ENDBRANCH  23  24
BRANCH  23  31
ATOM     31  C   UNL     1     -11.900   5.915  -5.422  1.00  0.00     0.243 C 
ATOM     32  O   UNL     1     -12.890   5.283  -5.780  1.00  0.00    -0.273 OA
ATOM     33  N   UNL     1     -11.407   6.980  -6.157  1.00  0.00    -0.341 N 
ATOM     34  H   UNL     1     -10.574   7.464  -5.812  1.00  0.00     0.164 HD
BRANCH  33  35
ATOM     35  C   UNL     1     -12.052   7.476  -7.376  1.00  0.00     0.194 C 
BRANCH  35  36
ATOM     36  C   UNL     1     -11.387   6.982  -8.692  1.00  0.00     0.017 C 
ATOM     37  C   UNL     1     -12.133   5.769  -9.275  1.00  0.00     0.010 C 
ATOM     38  C   UNL     1      -9.919   6.574  -8.512  1.00  0.00     0.010 C 
ENDBRANCH  35  36
BRANCH  35  39
ATOM     39  C   UNL     1     -12.243   9.018  -7.366  1.00  0.00     0.329 C 
ATOM     40  O   UNL     1     -12.869   9.627  -6.506  1.00  0.00    -0.250 OA
BRANCH  39  41
ATOM     41  O   UNL     1     -11.560   9.634  -8.379  1.00  0.00    -0.458 OA
BRANCH  41  42
ATOM     42  C   UNL     1     -12.247  10.718  -9.048  1.00  0.00     0.205 CG0
ATOM     43  C   UNL     1     -13.207  10.093 -10.058  1.00  0.00     0.056 C 
ATOM     44  G   UNL     1     -11.196  11.626  -9.718  1.00  0.00     0.000 G0
ENDBRANCH  41  42
ENDBRANCH  39  41
ENDBRANCH  35  39
ENDBRANCH  33  35
ENDBRANCH  23  31
ENDBRANCH  21  23
ENDBRANCH  19  21
ENDBRANCH  14  19
ENDBRANCH   7  14
ENDBRANCH   2   5
BRANCH   3  45
ATOM     45  C   UNL     1      -8.226  -3.291   0.943  1.00  0.00     0.171 C 
BRANCH  45  46
ATOM     46  N   UNL     1      -7.177  -4.294   0.813  1.00  0.00    -0.342 N 
ATOM     47  C   UNL     1      -6.075  -4.318   1.631  1.00  0.00     0.247 C 
ATOM     48  O   UNL     1      -5.928  -3.543   2.576  1.00  0.00    -0.273 OA
ATOM     49  H   UNL     1      -7.287  -4.990   0.077  1.00  0.00     0.164 HD
BRANCH  47  50
ATOM     50  C   UNL     1      -5.017  -5.368   1.265  1.00  0.00     0.212 CG0
ATOM     51  G   UNL     1      -4.975  -6.406   2.405  1.00  0.00     0.000 G0
BRANCH  50  52
ATOM     52  N   UNL     1      -5.450  -5.930  -0.011  1.00  0.00    -0.339 N 
ATOM     53  C   UNL     1      -5.192  -5.339  -1.224  1.00  0.00     0.243 C 
ATOM     54  O   UNL     1      -4.618  -4.258  -1.325  1.00  0.00    -0.273 OA
ATOM     55  H   UNL     1      -6.027  -6.769   0.013  1.00  0.00     0.164 HD
BRANCH  53  56
ATOM     56  C   UNL     1      -5.823  -6.071  -2.426  1.00  0.00     0.182 C 
BRANCH  56  57
ATOM     57  N   UNL     1      -6.696  -5.173  -3.189  1.00  0.00    -0.344 N 
ATOM     58  C   UNL     1      -6.253  -4.469  -4.282  1.00  0.00     0.220 C 
ATOM     59  O   UNL     1      -5.083  -4.485  -4.652  1.00  0.00    -0.275 OA
ATOM     60  H   UNL     1      -7.690  -5.209  -2.980  1.00  0.00     0.164 HD
BRANCH  58  61
ATOM     61  C   UNL     1      -7.341  -3.650  -4.952  1.00  0.00     0.100 C 
BRANCH  61  62
ATOM     62  C   UNL     1      -7.251  -3.638  -6.478  1.00  0.00     0.010 C 
BRANCH  62  63
ATOM     63  C   UNL     1      -7.459  -5.011  -7.130  1.00  0.00     0.000 C 
BRANCH  63  64
ATOM     64  C   UNL     1      -7.421  -4.992  -8.657  1.00  0.00    -0.003 C 
ATOM     65  C   UNL     1      -6.820  -3.695  -9.181  1.00  0.00     0.004 C 
ENDBRANCH  63  64
ENDBRANCH  62  63
ENDBRANCH  61  62
ENDBRANCH  58  61
ENDBRANCH  56  57
BRANCH  56  66
ATOM     66  C   UNL     1      -6.546  -7.344  -1.990  1.00  0.00     0.157 C 
BRANCH  66  67
ATOM     67  C   UNL     1      -8.034  -7.148  -1.978  1.00  0.00     0.305 C 
ATOM     68  O   UNL     1      -8.844  -7.633  -2.754  1.00  0.00    -0.252 OA
BRANCH  67  69
ATOM     69  O   UNL     1      -8.442  -6.383  -0.947  1.00  0.00    -0.481 OA
ATOM     70  H   UNL     1      -7.731  -6.469  -0.276  1.00  0.00     0.296 HD
ENDBRANCH  67  69
ENDBRANCH  66  67
ENDBRANCH  56  66
ENDBRANCH  53  56
ENDBRANCH  50  52
ENDBRANCH  47  50
ENDBRANCH  45  46
BRANCH  45  71
ATOM     71  C   UNL     1      -9.498  -3.881   1.560  1.00  0.00     0.037 C 
BRANCH  71  72
ATOM     72  C   UNL     1     -10.118  -2.948   2.604  1.00  0.00     0.026 C 
BRANCH  72  73
ATOM     73  C   UNL     1      -9.053  -2.107   3.306  1.00  0.00     0.146 C 
BRANCH  73  74
ATOM     74  N   UNL     1      -9.480  -0.712   3.255  1.00  0.00    -0.254 NA
ATOM     75  C   UNL     1     -10.013  -0.210   4.308  1.00  0.00     0.185 C 
ATOM     76  N   UNL     1     -10.415   1.071   4.292  1.00  0.00    -0.370 N 
ATOM     77  N   UNL     1     -10.247  -0.793   5.496  1.00  0.00    -0.370 N 
ATOM     78  H   UNL     1     -10.281   1.582   3.431  1.00  0.00     0.159 HD
ATOM     79  H   UNL     1     -10.966   1.487   5.022  1.00  0.00     0.159 HD
ATOM     80  H   UNL     1      -9.993  -1.756   5.655  1.00  0.00     0.159 HD
ATOM     81  H   UNL     1     -10.567  -0.264   6.290  1.00  0.00     0.159 HD
ENDBRANCH  73  74
ENDBRANCH  72  73
ENDBRANCH  71  72
ENDBRANCH  45  71
ENDBRANCH   3  45
TORSDOF 20
ENDMDL
MODEL 41
REMARK VINA RESULT:    -5.679      5.929     12.126
REMARK INTER + INTRA:         -22.382
REMARK INTER:                 -15.145
REMARK INTRA:                  -7.237
REMARK UNBOUND:                -6.078
REMARK SMILES CCCCCC(=O)N[C@H](CC(=O)O)C(=O)N[C@H]1C(=O)N[C@H](CCCN=C(N)N)C(=O)N[C@@H]2CC[C@H](O)N(C2=O)[C@@H](CC(C)C)C(=O)N(C)[C@@H](Cc2ccccc2)C(=O)N[C@H](C(C)C)C(=O)O[C@@H]1C
REMARK SMILES IDX 30 1 31 2 29 3 32 5 35 6 37 7 34 8 38 9 33 10 39 11 36 12
REMARK SMILES IDX 40 14 41 15 42 16 43 17 44 18 45 19 46 20 47 21 48 22 49 23
REMARK SMILES IDX 50 24 51 25 52 26 56 27 53 28 55 29 54 30 57 31 58 32 59 33
REMARK SMILES IDX 60 35 61 36 62 37 63 38 64 39 65 40 66 41 67 42 68 43 21 45
REMARK SMILES IDX 20 46 18 47 19 48 17 50 16 52 14 53 15 54 9 56 8 57 6 58
REMARK SMILES IDX 7 59 5 61 4 62 3 63 2 64 1 65 10 66 11 67 12 68 13 69 22 71
REMARK SMILES IDX 23 72 24 73 25 74 26 75 27 76 28 77
REMARK H PARENT 31 4 36 13 59 34 20 49 16 55 8 60 13 70 27 78 27 79 28 80
REMARK H PARENT 28 81
REMARK Flexibility Score:  259.900
ROOT
ATOM      1  O   UNL     1      -8.063  -5.453   3.365  1.00  0.00    -0.273 OA
ATOM      2  N   UNL     1      -9.794  -5.444   1.871  1.00  0.00    -0.343 N 
ATOM      3  C   UNL     1      -8.658  -5.988   2.429  1.00  0.00     0.243 C 
ATOM      4  H   UNL     1     -10.266  -5.920   1.112  1.00  0.00     0.164 HD
ENDROOT
BRANCH   2   5
ATOM      5  C   UNL     1     -10.276  -4.134   2.295  1.00  0.00     0.171 C 
ATOM      6  C   UNL     1     -12.230  -2.305   1.182  1.00  0.00     0.214 C 
ATOM      7  N   UNL     1     -10.844  -2.186   0.794  1.00  0.00    -0.303 N 
ATOM      8  C   UNL     1     -12.417  -2.848   2.590  1.00  0.00     0.057 C 
ATOM      9  C   UNL     1      -9.868  -3.058   1.249  1.00  0.00     0.247 C 
ATOM     10  C   UNL     1     -11.745  -4.198   2.711  1.00  0.00     0.040 C 
ATOM     11  O   UNL     1      -8.699  -3.003   0.845  1.00  0.00    -0.272 OA
BRANCH   6  12
ATOM     12  O   UNL     1     -12.870  -3.139   0.244  1.00  0.00    -0.373 OA
ATOM     13  H   UNL     1     -13.648  -3.533   0.693  1.00  0.00     0.213 HD
ENDBRANCH   6  12
BRANCH   7  14
ATOM     14  C   UNL     1     -10.520  -1.175  -0.234  1.00  0.00     0.177 C 
BRANCH  14  15
ATOM     15  C   UNL     1     -10.655  -1.656  -1.692  1.00  0.00     0.038 C 
BRANCH  15  16
ATOM     16  C   UNL     1      -9.742  -1.049  -2.781  1.00  0.00    -0.015 C 
ATOM     17  C   UNL     1     -10.536  -0.502  -3.971  1.00  0.00     0.007 C 
ATOM     18  C   UNL     1      -8.773  -2.120  -3.301  1.00  0.00     0.007 C 
ENDBRANCH  15  16
ENDBRANCH  14  15
BRANCH  14  19
ATOM     19  C   UNL     1     -10.878   0.261   0.283  1.00  0.00     0.245 C 
ATOM     20  O   UNL     1     -11.997   0.407   0.802  1.00  0.00    -0.272 OA
BRANCH  19  21
ATOM     21  N   UNL     1     -10.074   1.371   0.093  1.00  0.00    -0.332 N 
ATOM     22  C   UNL     1      -8.639   1.345  -0.127  1.00  0.00     0.147 C 
BRANCH  21  23
ATOM     23  C   UNL     1     -10.720   2.712   0.127  1.00  0.00     0.178 C 
BRANCH  23  24
ATOM     24  C   UNL     1      -9.982   3.764   0.981  1.00  0.00     0.070 C 
BRANCH  24  25
ATOM     25  C   UNL     1     -10.423   3.915   2.418  1.00  0.00    -0.045 A 
ATOM     26  C   UNL     1     -10.236   2.876   3.339  1.00  0.00     0.004 A 
ATOM     27  C   UNL     1     -11.032   5.102   2.850  1.00  0.00     0.004 A 
ATOM     28  C   UNL     1     -10.662   3.017   4.662  1.00  0.00     0.000 A 
ATOM     29  C   UNL     1     -11.456   5.242   4.173  1.00  0.00     0.000 A 
ATOM     30  C   UNL     1     -11.272   4.198   5.077  1.00  0.00     0.000 A 
ENDBRANCH  24  25
ENDBRANCH  23  24
BRANCH  23  31
ATOM     31  C   UNL     1     -11.164   3.204  -1.272  1.00  0.00     0.243 C 
ATOM     32  O   UNL     1     -11.145   2.506  -2.283  1.00  0.00    -0.273 OA
ATOM     33  N   UNL     1     -11.412   4.565  -1.327  1.00  0.00    -0.341 N 
ATOM     34  H   UNL     1     -11.407   5.095  -0.452  1.00  0.00     0.164 HD
BRANCH  33  35
ATOM     35  C   UNL     1     -11.729   5.269  -2.572  1.00  0.00     0.194 C 
BRANCH  35  36
ATOM     36  C   UNL     1     -10.507   5.960  -3.241  1.00  0.00     0.017 C 
ATOM     37  C   UNL     1     -10.254   5.404  -4.653  1.00  0.00     0.010 C 
ATOM     38  C   UNL     1      -9.208   5.794  -2.442  1.00  0.00     0.010 C 
ENDBRANCH  35  36
BRANCH  35  39
ATOM     39  C   UNL     1     -12.933   6.241  -2.419  1.00  0.00     0.329 C 
ATOM     40  O   UNL     1     -13.930   5.999  -1.749  1.00  0.00    -0.250 OA
BRANCH  39  41
ATOM     41  O   UNL     1     -12.718   7.437  -3.046  1.00  0.00    -0.458 OA
BRANCH  41  42
ATOM     42  C   UNL     1     -13.143   8.622  -2.331  1.00  0.00     0.205 CG0
ATOM     43  C   UNL     1     -12.128   8.869  -1.217  1.00  0.00     0.056 C 
ATOM     44  G   UNL     1     -14.567   8.384  -1.789  1.00  0.00     0.000 G0
ENDBRANCH  41  42
ENDBRANCH  39  41
ENDBRANCH  35  39
ENDBRANCH  33  35
ENDBRANCH  23  31
ENDBRANCH  21  23
ENDBRANCH  19  21
ENDBRANCH  14  19
ENDBRANCH   7  14
ENDBRANCH   2   5
BRANCH   3  45
ATOM     45  C   UNL     1      -8.197  -7.318   1.818  1.00  0.00     0.171 C 
BRANCH  45  46
ATOM     46  N   UNL     1      -7.028  -7.722   2.588  1.00  0.00    -0.342 N 
ATOM     47  C   UNL     1      -7.114  -8.563   3.669  1.00  0.00     0.247 C 
ATOM     48  O   UNL     1      -8.168  -9.095   4.021  1.00  0.00    -0.273 OA
ATOM     49  H   UNL     1      -6.127  -7.350   2.296  1.00  0.00     0.164 HD
BRANCH  47  50
ATOM     50  C   UNL     1      -5.799  -8.777   4.432  1.00  0.00     0.212 CG0
ATOM     51  G   UNL     1      -4.641  -8.535   3.444  1.00  0.00     0.000 G0
BRANCH  50  52
ATOM     52  N   UNL     1      -5.828  -7.819   5.534  1.00  0.00    -0.339 N 
ATOM     53  C   UNL     1      -5.412  -6.516   5.412  1.00  0.00     0.243 C 
ATOM     54  O   UNL     1      -4.931  -6.068   4.375  1.00  0.00    -0.273 OA
ATOM     55  H   UNL     1      -6.112  -8.161   6.450  1.00  0.00     0.164 HD
BRANCH  53  56
ATOM     56  C   UNL     1      -5.454  -5.718   6.732  1.00  0.00     0.182 C 
BRANCH  56  57
ATOM     57  N   UNL     1      -6.810  -5.239   7.014  1.00  0.00    -0.344 N 
ATOM     58  C   UNL     1      -7.427  -5.445   8.224  1.00  0.00     0.220 C 
ATOM     59  O   UNL     1      -6.918  -6.105   9.124  1.00  0.00    -0.275 OA
ATOM     60  H   UNL     1      -7.225  -4.604   6.337  1.00  0.00     0.164 HD
BRANCH  58  61
ATOM     61  C   UNL     1      -8.803  -4.812   8.314  1.00  0.00     0.100 C 
BRANCH  61  62
ATOM     62  C   UNL     1      -8.897  -3.443   7.638  1.00  0.00     0.010 C 
BRANCH  62  63
ATOM     63  C   UNL     1      -9.849  -3.401   6.436  1.00  0.00     0.000 C 
BRANCH  63  64
ATOM     64  C   UNL     1      -9.308  -2.628   5.235  1.00  0.00    -0.003 C 
ATOM     65  C   UNL     1      -9.961  -1.259   5.115  1.00  0.00     0.004 C 
ENDBRANCH  63  64
ENDBRANCH  62  63
ENDBRANCH  61  62
ENDBRANCH  58  61
ENDBRANCH  56  57
BRANCH  56  66
ATOM     66  C   UNL     1      -4.429  -4.585   6.734  1.00  0.00     0.157 C 
BRANCH  66  67
ATOM     67  C   UNL     1      -5.082  -3.262   6.455  1.00  0.00     0.305 C 
ATOM     68  O   UNL     1      -5.373  -2.401   7.272  1.00  0.00    -0.252 OA
BRANCH  67  69
ATOM     69  O   UNL     1      -5.291  -3.062   5.140  1.00  0.00    -0.481 OA
ATOM     70  H   UNL     1      -4.663  -2.350   4.892  1.00  0.00     0.296 HD
ENDBRANCH  67  69
ENDBRANCH  66  67
ENDBRANCH  56  66
ENDBRANCH  53  56
ENDBRANCH  50  52
ENDBRANCH  47  50
ENDBRANCH  45  46
BRANCH  45  71
ATOM     71  C   UNL     1      -7.860  -7.135   0.334  1.00  0.00     0.037 C 
BRANCH  71  72
ATOM     72  C   UNL     1      -6.414  -7.525   0.019  1.00  0.00     0.026 C 
BRANCH  72  73
ATOM     73  C   UNL     1      -5.560  -6.300  -0.303  1.00  0.00     0.146 C 
BRANCH  73  74
ATOM     74  N   UNL     1      -5.145  -5.700   0.961  1.00  0.00    -0.254 NA
ATOM     75  C   UNL     1      -5.350  -4.445   1.124  1.00  0.00     0.185 C 
ATOM     76  N   UNL     1      -4.980  -3.864   2.277  1.00  0.00    -0.370 N 
ATOM     77  N   UNL     1      -5.909  -3.563   0.277  1.00  0.00    -0.370 N 
ATOM     78  H   UNL     1      -4.543  -4.457   2.968  1.00  0.00     0.159 HD
ATOM     79  H   UNL     1      -4.975  -2.870   2.419  1.00  0.00     0.159 HD
ATOM     80  H   UNL     1      -6.240  -3.860  -0.629  1.00  0.00     0.159 HD
ATOM     81  H   UNL     1      -6.124  -2.622   0.561  1.00  0.00     0.159 HD
ENDBRANCH  73  74
ENDBRANCH  72  73
ENDBRANCH  71  72
ENDBRANCH  45  71
ENDBRANCH   3  45
TORSDOF 20
ENDMDL
MODEL 42
REMARK VINA RESULT:    -5.660      7.589     12.555
REMARK INTER + INTRA:         -22.326
REMARK INTER:                 -15.585
REMARK INTRA:                  -6.741
REMARK UNBOUND:                -6.078
REMARK SMILES CCCCCC(=O)N[C@H](CC(=O)O)C(=O)N[C@H]1C(=O)N[C@H](CCCN=C(N)N)C(=O)N[C@@H]2CC[C@H](O)N(C2=O)[C@@H](CC(C)C)C(=O)N(C)[C@@H](Cc2ccccc2)C(=O)N[C@H](C(C)C)C(=O)O[C@@H]1C
REMARK SMILES IDX 30 1 31 2 29 3 32 5 35 6 37 7 34 8 38 9 33 10 39 11 36 12
REMARK SMILES IDX 40 14 41 15 42 16 43 17 44 18 45 19 46 20 47 21 48 22 49 23
REMARK SMILES IDX 50 24 51 25 52 26 56 27 53 28 55 29 54 30 57 31 58 32 59 33
REMARK SMILES IDX 60 35 61 36 62 37 63 38 64 39 65 40 66 41 67 42 68 43 21 45
REMARK SMILES IDX 20 46 18 47 19 48 17 50 16 52 14 53 15 54 9 56 8 57 6 58
REMARK SMILES IDX 7 59 5 61 4 62 3 63 2 64 1 65 10 66 11 67 12 68 13 69 22 71
REMARK SMILES IDX 23 72 24 73 25 74 26 75 27 76 28 77
REMARK H PARENT 31 4 36 13 59 34 20 49 16 55 8 60 13 70 27 78 27 79 28 80
REMARK H PARENT 28 81
REMARK Flexibility Score:  259.900
ROOT
ATOM      1  O   UNL     1      -7.992  -2.340   1.411  1.00  0.00    -0.273 OA
ATOM      2  N   UNL     1      -9.924  -1.201   1.859  1.00  0.00    -0.343 N 
ATOM      3  C   UNL     1      -9.182  -2.355   1.728  1.00  0.00     0.243 C 
ATOM      4  H   UNL     1     -10.897  -1.251   2.135  1.00  0.00     0.164 HD
ENDROOT
BRANCH   2   5
ATOM      5  C   UNL     1      -9.352   0.094   1.506  1.00  0.00     0.171 C 
ATOM      6  C   UNL     1     -10.541   2.666   0.894  1.00  0.00     0.214 C 
ATOM      7  N   UNL     1     -10.274   1.734  -0.176  1.00  0.00    -0.303 N 
ATOM      8  C   UNL     1      -9.574   2.537   2.060  1.00  0.00     0.057 C 
ATOM      9  C   UNL     1      -9.755   0.470   0.052  1.00  0.00     0.247 C 
ATOM     10  C   UNL     1      -9.612   1.125   2.604  1.00  0.00     0.040 C 
ATOM     11  O   UNL     1      -9.609  -0.354  -0.861  1.00  0.00    -0.272 OA
BRANCH   6  12
ATOM     12  O   UNL     1     -11.865   2.455   1.327  1.00  0.00    -0.373 OA
ATOM     13  H   UNL     1     -12.361   2.085   0.566  1.00  0.00     0.213 HD
ENDBRANCH   6  12
BRANCH   7  14
ATOM     14  C   UNL     1     -10.715   2.126  -1.532  1.00  0.00     0.177 C 
BRANCH  14  15
ATOM     15  C   UNL     1     -12.116   1.626  -1.936  1.00  0.00     0.038 C 
BRANCH  15  16
ATOM     16  C   UNL     1     -12.248   0.485  -2.969  1.00  0.00    -0.015 C 
ATOM     17  C   UNL     1     -11.009   0.358  -3.861  1.00  0.00     0.007 C 
ATOM     18  C   UNL     1     -13.463   0.740  -3.870  1.00  0.00     0.007 C 
ENDBRANCH  15  16
ENDBRANCH  14  15
BRANCH  14  19
ATOM     19  C   UNL     1     -10.099   3.513  -1.924  1.00  0.00     0.245 C 
ATOM     20  O   UNL     1      -8.860   3.583  -1.964  1.00  0.00    -0.272 OA
BRANCH  19  21
ATOM     21  N   UNL     1     -10.846   4.662  -2.114  1.00  0.00    -0.332 N 
ATOM     22  C   UNL     1     -11.401   5.490  -1.058  1.00  0.00     0.147 C 
BRANCH  21  23
ATOM     23  C   UNL     1     -11.120   5.091  -3.513  1.00  0.00     0.178 C 
BRANCH  23  24
ATOM     24  C   UNL     1     -12.267   4.330  -4.209  1.00  0.00     0.070 C 
BRANCH  24  25
ATOM     25  C   UNL     1     -11.960   3.696  -5.546  1.00  0.00    -0.045 A 
ATOM     26  C   UNL     1     -12.960   3.548  -6.516  1.00  0.00     0.004 A 
ATOM     27  C   UNL     1     -10.664   3.241  -5.833  1.00  0.00     0.004 A 
ATOM     28  C   UNL     1     -12.672   2.945  -7.743  1.00  0.00     0.000 A 
ATOM     29  C   UNL     1     -10.378   2.640  -7.060  1.00  0.00     0.000 A 
ATOM     30  C   UNL     1     -11.384   2.490  -8.013  1.00  0.00     0.000 A 
ENDBRANCH  24  25
ENDBRANCH  23  24
BRANCH  23  31
ATOM     31  C   UNL     1     -11.167   6.630  -3.675  1.00  0.00     0.243 C 
ATOM     32  O   UNL     1     -10.201   7.368  -3.504  1.00  0.00    -0.273 OA
ATOM     33  N   UNL     1     -12.447   7.128  -3.850  1.00  0.00    -0.341 N 
ATOM     34  H   UNL     1     -13.213   6.463  -3.980  1.00  0.00     0.164 HD
BRANCH  33  35
ATOM     35  C   UNL     1     -12.745   8.562  -3.906  1.00  0.00     0.194 C 
BRANCH  35  36
ATOM     36  C   UNL     1     -13.447   9.115  -2.634  1.00  0.00     0.017 C 
ATOM     37  C   UNL     1     -12.497   9.111  -1.424  1.00  0.00     0.010 C 
ATOM     38  C   UNL     1     -14.697   8.319  -2.239  1.00  0.00     0.010 C 
ENDBRANCH  35  36
BRANCH  35  39
ATOM     39  C   UNL     1     -13.496   8.966  -5.206  1.00  0.00     0.329 C 
ATOM     40  O   UNL     1     -14.040   8.168  -5.960  1.00  0.00    -0.250 OA
BRANCH  39  41
ATOM     41  O   UNL     1     -13.557  10.322  -5.371  1.00  0.00    -0.458 OA
BRANCH  41  42
ATOM     42  C   UNL     1     -13.810  10.793  -6.716  1.00  0.00     0.205 CG0
ATOM     43  C   UNL     1     -12.495  11.350  -7.258  1.00  0.00     0.056 C 
ATOM     44  G   UNL     1     -14.924  11.858  -6.662  1.00  0.00     0.000 G0
ENDBRANCH  41  42
ENDBRANCH  39  41
ENDBRANCH  35  39
ENDBRANCH  33  35
ENDBRANCH  23  31
ENDBRANCH  21  23
ENDBRANCH  19  21
ENDBRANCH  14  19
ENDBRANCH   7  14
ENDBRANCH   2   5
BRANCH   3  45
ATOM     45  C   UNL     1      -9.935  -3.658   2.026  1.00  0.00     0.171 C 
BRANCH  45  46
ATOM     46  N   UNL     1      -9.353  -4.660   1.143  1.00  0.00    -0.342 N 
ATOM     47  C   UNL     1      -8.863  -5.855   1.607  1.00  0.00     0.247 C 
ATOM     48  O   UNL     1      -8.945  -6.198   2.787  1.00  0.00    -0.273 OA
ATOM     49  H   UNL     1      -9.316  -4.441   0.149  1.00  0.00     0.164 HD
BRANCH  47  50
ATOM     50  C   UNL     1      -8.175  -6.730   0.550  1.00  0.00     0.212 CG0
ATOM     51  G   UNL     1      -9.229  -7.709  -0.004  1.00  0.00     0.000 G0
BRANCH  50  52
ATOM     52  N   UNL     1      -7.666  -5.800  -0.454  1.00  0.00    -0.339 N 
ATOM     53  C   UNL     1      -7.623  -6.087  -1.797  1.00  0.00     0.243 C 
ATOM     54  O   UNL     1      -7.963  -7.176  -2.253  1.00  0.00    -0.273 OA
ATOM     55  H   UNL     1      -7.266  -4.923  -0.127  1.00  0.00     0.164 HD
BRANCH  53  56
ATOM     56  C   UNL     1      -6.965  -4.987  -2.654  1.00  0.00     0.182 C 
BRANCH  56  57
ATOM     57  N   UNL     1      -5.503  -5.097  -2.621  1.00  0.00    -0.344 N 
ATOM     58  C   UNL     1      -4.800  -5.834  -3.542  1.00  0.00     0.220 C 
ATOM     59  O   UNL     1      -5.347  -6.508  -4.409  1.00  0.00    -0.275 OA
ATOM     60  H   UNL     1      -5.009  -4.477  -1.985  1.00  0.00     0.164 HD
BRANCH  58  61
ATOM     61  C   UNL     1      -3.297  -5.759  -3.351  1.00  0.00     0.100 C 
BRANCH  61  62
ATOM     62  C   UNL     1      -2.501  -6.484  -4.437  1.00  0.00     0.010 C 
BRANCH  62  63
ATOM     63  C   UNL     1      -2.104  -5.596  -5.623  1.00  0.00     0.000 C 
BRANCH  63  64
ATOM     64  C   UNL     1      -1.421  -6.345  -6.766  1.00  0.00    -0.003 C 
ATOM     65  C   UNL     1      -0.869  -5.384  -7.809  1.00  0.00     0.004 C 
ENDBRANCH  63  64
ENDBRANCH  62  63
ENDBRANCH  61  62
ENDBRANCH  58  61
ENDBRANCH  56  57
BRANCH  56  66
ATOM     66  C   UNL     1      -7.447  -3.596  -2.245  1.00  0.00     0.157 C 
BRANCH  66  67
ATOM     67  C   UNL     1      -6.340  -2.799  -1.617  1.00  0.00     0.305 C 
ATOM     68  O   UNL     1      -5.749  -1.851  -2.110  1.00  0.00    -0.252 OA
BRANCH  67  69
ATOM     69  O   UNL     1      -6.064  -3.207  -0.364  1.00  0.00    -0.481 OA
ATOM     70  H   UNL     1      -5.300  -2.659  -0.085  1.00  0.00     0.296 HD
ENDBRANCH  67  69
ENDBRANCH  66  67
ENDBRANCH  56  66
ENDBRANCH  53  56
ENDBRANCH  50  52
ENDBRANCH  47  50
ENDBRANCH  45  46
BRANCH  45  71
ATOM     71  C   UNL     1     -11.435  -3.479   1.766  1.00  0.00     0.037 C 
BRANCH  71  72
ATOM     72  C   UNL     1     -11.769  -3.514   0.272  1.00  0.00     0.026 C 
BRANCH  72  73
ATOM     73  C   UNL     1     -12.665  -2.344  -0.129  1.00  0.00     0.146 C 
BRANCH  73  74
ATOM     74  N   UNL     1     -13.733  -2.239   0.860  1.00  0.00    -0.254 NA
ATOM     75  C   UNL     1     -13.981  -1.082   1.353  1.00  0.00     0.185 C 
ATOM     76  N   UNL     1     -14.959  -0.953   2.265  1.00  0.00    -0.370 N 
ATOM     77  N   UNL     1     -13.386   0.094   1.089  1.00  0.00    -0.370 N 
ATOM     78  H   UNL     1     -15.454  -1.794   2.527  1.00  0.00     0.159 HD
ATOM     79  H   UNL     1     -15.113  -0.115   2.797  1.00  0.00     0.159 HD
ATOM     80  H   UNL     1     -12.634   0.150   0.419  1.00  0.00     0.159 HD
ATOM     81  H   UNL     1     -13.745   0.961   1.454  1.00  0.00     0.159 HD
ENDBRANCH  73  74
ENDBRANCH  72  73
ENDBRANCH  71  72
ENDBRANCH  45  71
ENDBRANCH   3  45
TORSDOF 20
ENDMDL
MODEL 43
REMARK VINA RESULT:    -5.658      6.274     10.754
REMARK INTER + INTRA:         -22.320
REMARK INTER:                 -13.714
REMARK INTRA:                  -8.605
REMARK UNBOUND:                -6.078
REMARK SMILES CCCCCC(=O)N[C@H](CC(=O)O)C(=O)N[C@H]1C(=O)N[C@H](CCCN=C(N)N)C(=O)N[C@@H]2CC[C@H](O)N(C2=O)[C@@H](CC(C)C)C(=O)N(C)[C@@H](Cc2ccccc2)C(=O)N[C@H](C(C)C)C(=O)O[C@@H]1C
REMARK SMILES IDX 30 1 31 2 29 3 32 5 35 6 37 7 34 8 38 9 33 10 39 11 36 12
REMARK SMILES IDX 40 14 41 15 42 16 43 17 44 18 45 19 46 20 47 21 48 22 49 23
REMARK SMILES IDX 50 24 51 25 52 26 56 27 53 28 55 29 54 30 57 31 58 32 59 33
REMARK SMILES IDX 60 35 61 36 62 37 63 38 64 39 65 40 66 41 67 42 68 43 21 45
REMARK SMILES IDX 20 46 18 47 19 48 17 50 16 52 14 53 15 54 9 56 8 57 6 58
REMARK SMILES IDX 7 59 5 61 4 62 3 63 2 64 1 65 10 66 11 67 12 68 13 69 22 71
REMARK SMILES IDX 23 72 24 73 25 74 26 75 27 76 28 77
REMARK H PARENT 31 4 36 13 59 34 20 49 16 55 8 60 13 70 27 78 27 79 28 80
REMARK H PARENT 28 81
REMARK Flexibility Score:  259.900
ROOT
ATOM      1  O   UNL     1      -7.244   2.637  -5.376  1.00  0.00    -0.273 OA
ATOM      2  N   UNL     1      -8.759   1.030  -4.781  1.00  0.00    -0.343 N 
ATOM      3  C   UNL     1      -8.416   2.289  -5.226  1.00  0.00     0.243 C 
ATOM      4  H   UNL     1      -9.733   0.773  -4.683  1.00  0.00     0.164 HD
ENDROOT
BRANCH   2   5
ATOM      5  C   UNL     1      -7.730   0.088  -4.353  1.00  0.00     0.171 C 
ATOM      6  C   UNL     1      -7.826  -2.700  -3.565  1.00  0.00     0.214 C 
ATOM      7  N   UNL     1      -7.961  -1.673  -2.559  1.00  0.00    -0.303 N 
ATOM      8  C   UNL     1      -6.968  -2.276  -4.747  1.00  0.00     0.057 C 
ATOM      9  C   UNL     1      -7.976  -0.324  -2.873  1.00  0.00     0.247 C 
ATOM     10  C   UNL     1      -7.548  -1.029  -5.379  1.00  0.00     0.040 C 
ATOM     11  O   UNL     1      -8.179   0.547  -2.017  1.00  0.00    -0.272 OA
BRANCH   6  12
ATOM     12  O   UNL     1      -9.120  -3.053  -3.997  1.00  0.00    -0.373 OA
ATOM     13  H   UNL     1      -9.440  -3.760  -3.397  1.00  0.00     0.213 HD
ENDBRANCH   6  12
BRANCH   7  14
ATOM     14  C   UNL     1      -8.235  -2.120  -1.177  1.00  0.00     0.177 C 
BRANCH  14  15
ATOM     15  C   UNL     1      -9.725  -2.178  -0.789  1.00  0.00     0.038 C 
BRANCH  15  16
ATOM     16  C   UNL     1     -10.221  -1.395   0.447  1.00  0.00    -0.015 C 
ATOM     17  C   UNL     1     -11.357  -0.425   0.107  1.00  0.00     0.007 C 
ATOM     18  C   UNL     1      -9.064  -0.588   1.048  1.00  0.00     0.007 C 
ENDBRANCH  15  16
ENDBRANCH  14  15
BRANCH  14  19
ATOM     19  C   UNL     1      -7.135  -3.133  -0.705  1.00  0.00     0.245 C 
ATOM     20  O   UNL     1      -5.957  -2.743  -0.757  1.00  0.00    -0.272 OA
BRANCH  19  21
ATOM     21  N   UNL     1      -7.396  -4.444  -0.351  1.00  0.00    -0.332 N 
ATOM     22  C   UNL     1      -7.691  -5.525  -1.275  1.00  0.00     0.147 C 
BRANCH  21  23
ATOM     23  C   UNL     1      -7.386  -4.789   1.098  1.00  0.00     0.178 C 
BRANCH  23  24
ATOM     24  C   UNL     1      -8.682  -5.447   1.614  1.00  0.00     0.070 C 
BRANCH  24  25
ATOM     25  C   UNL     1      -9.681  -4.549   2.306  1.00  0.00    -0.045 A 
ATOM     26  C   UNL     1      -9.266  -3.626   3.275  1.00  0.00     0.004 A 
ATOM     27  C   UNL     1     -11.046  -4.633   1.990  1.00  0.00     0.004 A 
ATOM     28  C   UNL     1     -10.198  -2.812   3.922  1.00  0.00     0.000 A 
ATOM     29  C   UNL     1     -11.975  -3.818   2.638  1.00  0.00     0.000 A 
ATOM     30  C   UNL     1     -11.551  -2.910   3.606  1.00  0.00     0.000 A 
ENDBRANCH  24  25
ENDBRANCH  23  24
BRANCH  23  31
ATOM     31  C   UNL     1      -6.079  -5.486   1.544  1.00  0.00     0.243 C 
ATOM     32  O   UNL     1      -4.994  -4.918   1.639  1.00  0.00    -0.273 OA
ATOM     33  N   UNL     1      -6.195  -6.862   1.652  1.00  0.00    -0.341 N 
ATOM     34  H   UNL     1      -7.125  -7.279   1.557  1.00  0.00     0.164 HD
BRANCH  33  35
ATOM     35  C   UNL     1      -5.059  -7.739   1.945  1.00  0.00     0.194 C 
BRANCH  35  36
ATOM     36  C   UNL     1      -4.556  -8.557   0.722  1.00  0.00     0.017 C 
ATOM     37  C   UNL     1      -5.732  -9.134  -0.086  1.00  0.00     0.010 C 
ATOM     38  C   UNL     1      -3.648  -9.730   1.111  1.00  0.00     0.010 C 
ENDBRANCH  35  36
BRANCH  35  39
ATOM     39  C   UNL     1      -5.305  -8.642   3.186  1.00  0.00     0.329 C 
ATOM     40  O   UNL     1      -6.170  -9.508   3.244  1.00  0.00    -0.250 OA
BRANCH  39  41
ATOM     41  O   UNL     1      -4.389  -8.423   4.178  1.00  0.00    -0.458 OA
BRANCH  41  42
ATOM     42  C   UNL     1      -3.948  -9.590   4.912  1.00  0.00     0.205 CG0
ATOM     43  C   UNL     1      -2.468  -9.793   4.596  1.00  0.00     0.056 C 
ATOM     44  G   UNL     1      -4.812 -10.794   4.488  1.00  0.00     0.000 G0
ENDBRANCH  41  42
ENDBRANCH  39  41
ENDBRANCH  35  39
ENDBRANCH  33  35
ENDBRANCH  23  31
ENDBRANCH  21  23
ENDBRANCH  19  21
ENDBRANCH  14  19
ENDBRANCH   7  14
ENDBRANCH   2   5
BRANCH   3  45
ATOM     45  C   UNL     1      -9.595   3.218  -5.540  1.00  0.00     0.171 C 
BRANCH  45  46
ATOM     46  N   UNL     1      -9.379   4.415  -4.738  1.00  0.00    -0.342 N 
ATOM     47  C   UNL     1      -9.491   5.680  -5.257  1.00  0.00     0.247 C 
ATOM     48  O   UNL     1      -9.853   5.898  -6.414  1.00  0.00    -0.273 OA
ATOM     49  H   UNL     1      -9.133   4.280  -3.759  1.00  0.00     0.164 HD
BRANCH  47  50
ATOM     50  C   UNL     1      -9.106   6.813  -4.296  1.00  0.00     0.212 CG0
ATOM     51  G   UNL     1      -9.470   8.148  -4.976  1.00  0.00     0.000 G0
BRANCH  50  52
ATOM     52  N   UNL     1      -9.865   6.563  -3.073  1.00  0.00    -0.339 N 
ATOM     53  C   UNL     1     -11.158   6.987  -2.887  1.00  0.00     0.243 C 
ATOM     54  O   UNL     1     -11.761   7.660  -3.719  1.00  0.00    -0.273 OA
ATOM     55  H   UNL     1      -9.382   6.106  -2.302  1.00  0.00     0.164 HD
BRANCH  53  56
ATOM     56  C   UNL     1     -11.722   6.682  -1.484  1.00  0.00     0.182 C 
BRANCH  56  57
ATOM     57  N   UNL     1     -11.360   5.327  -1.054  1.00  0.00    -0.344 N 
ATOM     58  C   UNL     1     -10.275   5.076  -0.250  1.00  0.00     0.220 C 
ATOM     59  O   UNL     1      -9.494   5.953   0.104  1.00  0.00    -0.275 OA
ATOM     60  H   UNL     1     -12.034   4.590  -1.240  1.00  0.00     0.164 HD
BRANCH  58  61
ATOM     61  C   UNL     1     -10.125   3.611   0.117  1.00  0.00     0.100 C 
BRANCH  61  62
ATOM     62  C   UNL     1      -9.869   3.372   1.605  1.00  0.00     0.010 C 
BRANCH  62  63
ATOM     63  C   UNL     1     -10.895   2.450   2.278  1.00  0.00     0.000 C 
BRANCH  63  64
ATOM     64  C   UNL     1     -10.358   1.699   3.495  1.00  0.00    -0.003 C 
ATOM     65  C   UNL     1     -11.430   0.817   4.119  1.00  0.00     0.004 C 
ENDBRANCH  63  64
ENDBRANCH  62  63
ENDBRANCH  61  62
ENDBRANCH  58  61
ENDBRANCH  56  57
BRANCH  56  66
ATOM     66  C   UNL     1     -13.230   6.922  -1.423  1.00  0.00     0.157 C 
BRANCH  66  67
ATOM     67  C   UNL     1     -13.970   5.655  -1.105  1.00  0.00     0.305 C 
ATOM     68  O   UNL     1     -14.300   5.257   0.002  1.00  0.00    -0.252 OA
BRANCH  67  69
ATOM     69  O   UNL     1     -14.308   4.968  -2.213  1.00  0.00    -0.481 OA
ATOM     70  H   UNL     1     -13.608   5.185  -2.865  1.00  0.00     0.296 HD
ENDBRANCH  67  69
ENDBRANCH  66  67
ENDBRANCH  56  66
ENDBRANCH  53  56
ENDBRANCH  50  52
ENDBRANCH  47  50
ENDBRANCH  45  46
BRANCH  45  71
ATOM     71  C   UNL     1     -10.922   2.535  -5.191  1.00  0.00     0.037 C 
BRANCH  71  72
ATOM     72  C   UNL     1     -11.633   3.221  -4.022  1.00  0.00     0.026 C 
BRANCH  72  73
ATOM     73  C   UNL     1     -12.129   2.206  -2.994  1.00  0.00     0.146 C 
BRANCH  73  74
ATOM     74  N   UNL     1     -11.378   0.970  -3.189  1.00  0.00    -0.254 NA
ATOM     75  C   UNL     1     -12.041  -0.104  -3.413  1.00  0.00     0.185 C 
ATOM     76  N   UNL     1     -11.378  -1.258  -3.597  1.00  0.00    -0.370 N 
ATOM     77  N   UNL     1     -13.372  -0.273  -3.499  1.00  0.00    -0.370 N 
ATOM     78  H   UNL     1     -10.371  -1.221  -3.541  1.00  0.00     0.159 HD
ATOM     79  H   UNL     1     -11.829  -2.155  -3.632  1.00  0.00     0.159 HD
ATOM     80  H   UNL     1     -13.997   0.510  -3.385  1.00  0.00     0.159 HD
ATOM     81  H   UNL     1     -13.775  -1.147  -3.795  1.00  0.00     0.159 HD
ENDBRANCH  73  74
ENDBRANCH  72  73
ENDBRANCH  71  72
ENDBRANCH  45  71
ENDBRANCH   3  45
TORSDOF 20
ENDMDL
MODEL 44
REMARK VINA RESULT:    -5.646      8.071     12.233
REMARK INTER + INTRA:         -22.286
REMARK INTER:                 -14.246
REMARK INTRA:                  -8.040
REMARK UNBOUND:                -6.078
REMARK SMILES CCCCCC(=O)N[C@H](CC(=O)O)C(=O)N[C@H]1C(=O)N[C@H](CCCN=C(N)N)C(=O)N[C@@H]2CC[C@H](O)N(C2=O)[C@@H](CC(C)C)C(=O)N(C)[C@@H](Cc2ccccc2)C(=O)N[C@H](C(C)C)C(=O)O[C@@H]1C
REMARK SMILES IDX 30 1 31 2 29 3 32 5 35 6 37 7 34 8 38 9 33 10 39 11 36 12
REMARK SMILES IDX 40 14 41 15 42 16 43 17 44 18 45 19 46 20 47 21 48 22 49 23
REMARK SMILES IDX 50 24 51 25 52 26 56 27 53 28 55 29 54 30 57 31 58 32 59 33
REMARK SMILES IDX 60 35 61 36 62 37 63 38 64 39 65 40 66 41 67 42 68 43 21 45
REMARK SMILES IDX 20 46 18 47 19 48 17 50 16 52 14 53 15 54 9 56 8 57 6 58
REMARK SMILES IDX 7 59 5 61 4 62 3 63 2 64 1 65 10 66 11 67 12 68 13 69 22 71
REMARK SMILES IDX 23 72 24 73 25 74 26 75 27 76 28 77
REMARK H PARENT 31 4 36 13 59 34 20 49 16 55 8 60 13 70 27 78 27 79 28 80
REMARK H PARENT 28 81
REMARK Flexibility Score:  259.900
ROOT
ATOM      1  O   UNL     1      -9.616  -1.055   3.307  1.00  0.00    -0.273 OA
ATOM      2  N   UNL     1     -10.652  -0.126   5.123  1.00  0.00    -0.343 N 
ATOM      3  C   UNL     1      -9.942  -1.125   4.493  1.00  0.00     0.243 C 
ATOM      4  H   UNL     1     -10.889  -0.212   6.104  1.00  0.00     0.164 HD
ENDROOT
BRANCH   2   5
ATOM      5  C   UNL     1     -11.156   1.016   4.368  1.00  0.00     0.171 C 
ATOM      6  C   UNL     1     -12.218   3.590   5.175  1.00  0.00     0.214 C 
ATOM      7  N   UNL     1     -13.119   2.477   4.987  1.00  0.00    -0.303 N 
ATOM      8  C   UNL     1     -10.986   3.524   4.285  1.00  0.00     0.057 C 
ATOM      9  C   UNL     1     -12.673   1.209   4.652  1.00  0.00     0.247 C 
ATOM     10  C   UNL     1     -10.243   2.230   4.535  1.00  0.00     0.040 C 
ATOM     11  O   UNL     1     -13.442   0.241   4.579  1.00  0.00    -0.272 OA
BRANCH   6  12
ATOM     12  O   UNL     1     -11.843   3.617   6.533  1.00  0.00    -0.373 OA
ATOM     13  H   UNL     1     -10.904   3.897   6.566  1.00  0.00     0.213 HD
ENDBRANCH   6  12
BRANCH   7  14
ATOM     14  C   UNL     1     -14.543   2.705   5.313  1.00  0.00     0.177 C 
BRANCH  14  15
ATOM     15  C   UNL     1     -15.010   2.117   6.659  1.00  0.00     0.038 C 
BRANCH  15  16
ATOM     16  C   UNL     1     -16.392   1.432   6.751  1.00  0.00    -0.015 C 
ATOM     17  C   UNL     1     -17.089   1.700   8.088  1.00  0.00     0.007 C 
ATOM     18  C   UNL     1     -16.231  -0.084   6.588  1.00  0.00     0.007 C 
ENDBRANCH  15  16
ENDBRANCH  14  15
BRANCH  14  19
ATOM     19  C   UNL     1     -15.031   4.062   4.697  1.00  0.00     0.245 C 
ATOM     20  O   UNL     1     -15.328   4.964   5.498  1.00  0.00    -0.272 OA
BRANCH  19  21
ATOM     21  N   UNL     1     -15.249   4.261   3.346  1.00  0.00    -0.332 N 
ATOM     22  C   UNL     1     -16.186   3.515   2.525  1.00  0.00     0.147 C 
BRANCH  21  23
ATOM     23  C   UNL     1     -14.455   5.318   2.661  1.00  0.00     0.178 C 
BRANCH  23  24
ATOM     24  C   UNL     1     -14.020   4.969   1.223  1.00  0.00     0.070 C 
BRANCH  24  25
ATOM     25  C   UNL     1     -12.581   4.556   1.021  1.00  0.00    -0.045 A 
ATOM     26  C   UNL     1     -11.542   5.488   1.144  1.00  0.00     0.004 A 
ATOM     27  C   UNL     1     -12.265   3.227   0.701  1.00  0.00     0.004 A 
ATOM     28  C   UNL     1     -10.216   5.101   0.939  1.00  0.00     0.000 A 
ATOM     29  C   UNL     1     -10.939   2.842   0.497  1.00  0.00     0.000 A 
ATOM     30  C   UNL     1      -9.915   3.780   0.614  1.00  0.00     0.000 A 
ENDBRANCH  24  25
ENDBRANCH  23  24
BRANCH  23  31
ATOM     31  C   UNL     1     -15.058   6.733   2.834  1.00  0.00     0.243 C 
ATOM     32  O   UNL     1     -14.395   7.736   3.087  1.00  0.00    -0.273 OA
ATOM     33  N   UNL     1     -16.442   6.744   2.863  1.00  0.00    -0.341 N 
ATOM     34  H   UNL     1     -16.939   5.876   2.651  1.00  0.00     0.164 HD
BRANCH  33  35
ATOM     35  C   UNL     1     -17.225   7.953   3.135  1.00  0.00     0.194 C 
BRANCH  35  36
ATOM     36  C   UNL     1     -17.940   7.950   4.516  1.00  0.00     0.017 C 
ATOM     37  C   UNL     1     -17.005   8.450   5.631  1.00  0.00     0.010 C 
ATOM     38  C   UNL     1     -18.447   6.563   4.930  1.00  0.00     0.010 C 
ENDBRANCH  35  36
BRANCH  35  39
ATOM     39  C   UNL     1     -18.201   8.306   1.977  1.00  0.00     0.329 C 
ATOM     40  O   UNL     1     -18.934   7.493   1.426  1.00  0.00    -0.250 OA
BRANCH  39  41
ATOM     41  O   UNL     1     -18.214   9.645   1.699  1.00  0.00    -0.458 OA
BRANCH  41  42
ATOM     42  C   UNL     1     -18.645  10.018   0.368  1.00  0.00     0.205 CG0
ATOM     43  C   UNL     1     -17.395  10.114  -0.504  1.00  0.00     0.056 C 
ATOM     44  G   UNL     1     -19.407  11.355   0.455  1.00  0.00     0.000 G0
ENDBRANCH  41  42
ENDBRANCH  39  41
ENDBRANCH  35  39
ENDBRANCH  33  35
ENDBRANCH  23  31
ENDBRANCH  21  23
ENDBRANCH  19  21
ENDBRANCH  14  19
ENDBRANCH   7  14
ENDBRANCH   2   5
BRANCH   3  45
ATOM     45  C   UNL     1      -9.565  -2.322   5.377  1.00  0.00     0.171 C 
BRANCH  45  46
ATOM     46  N   UNL     1      -9.099  -3.356   4.463  1.00  0.00    -0.342 N 
ATOM     47  C   UNL     1      -7.853  -3.920   4.564  1.00  0.00     0.247 C 
ATOM     48  O   UNL     1      -7.067  -3.648   5.473  1.00  0.00    -0.273 OA
ATOM     49  H   UNL     1      -9.740  -3.651   3.729  1.00  0.00     0.164 HD
BRANCH  47  50
ATOM     50  C   UNL     1      -7.491  -4.901   3.440  1.00  0.00     0.212 CG0
ATOM     51  G   UNL     1      -7.702  -6.330   3.980  1.00  0.00     0.000 G0
BRANCH  50  52
ATOM     52  N   UNL     1      -8.379  -4.567   2.330  1.00  0.00    -0.339 N 
ATOM     53  C   UNL     1      -8.881  -5.501   1.456  1.00  0.00     0.243 C 
ATOM     54  O   UNL     1      -8.576  -6.689   1.511  1.00  0.00    -0.273 OA
ATOM     55  H   UNL     1      -8.580  -3.583   2.165  1.00  0.00     0.164 HD
BRANCH  53  56
ATOM     56  C   UNL     1      -9.726  -4.901   0.314  1.00  0.00     0.182 C 
BRANCH  56  57
ATOM     57  N   UNL     1      -9.300  -3.532   0.007  1.00  0.00    -0.344 N 
ATOM     58  C   UNL     1      -8.702  -3.198  -1.184  1.00  0.00     0.220 C 
ATOM     59  O   UNL     1      -8.417  -4.028  -2.040  1.00  0.00    -0.275 OA
ATOM     60  H   UNL     1      -9.607  -2.801   0.642  1.00  0.00     0.164 HD
BRANCH  58  61
ATOM     61  C   UNL     1      -8.399  -1.716  -1.309  1.00  0.00     0.100 C 
BRANCH  61  62
ATOM     62  C   UNL     1      -8.759  -0.906  -0.063  1.00  0.00     0.010 C 
BRANCH  62  63
ATOM     63  C   UNL     1      -8.339   0.568  -0.130  1.00  0.00     0.000 C 
BRANCH  63  64
ATOM     64  C   UNL     1      -7.291   0.873  -1.199  1.00  0.00    -0.003 C 
ATOM     65  C   UNL     1      -7.778   1.945  -2.164  1.00  0.00     0.004 C 
ENDBRANCH  63  64
ENDBRANCH  62  63
ENDBRANCH  61  62
ENDBRANCH  58  61
ENDBRANCH  56  57
BRANCH  56  66
ATOM     66  C   UNL     1     -11.221  -4.985   0.620  1.00  0.00     0.157 C 
BRANCH  66  67
ATOM     67  C   UNL     1     -11.738  -3.685   1.164  1.00  0.00     0.305 C 
ATOM     68  O   UNL     1     -12.481  -2.897   0.598  1.00  0.00    -0.252 OA
BRANCH  67  69
ATOM     69  O   UNL     1     -11.331  -3.461   2.428  1.00  0.00    -0.481 OA
ATOM     70  H   UNL     1     -10.375  -3.677   2.425  1.00  0.00     0.296 HD
ENDBRANCH  67  69
ENDBRANCH  66  67
ENDBRANCH  56  66
ENDBRANCH  53  56
ENDBRANCH  50  52
ENDBRANCH  47  50
ENDBRANCH  45  46
BRANCH  45  71
ATOM     71  C   UNL     1     -10.779  -2.789   6.188  1.00  0.00     0.037 C 
BRANCH  71  72
ATOM     72  C   UNL     1     -10.437  -3.958   7.115  1.00  0.00     0.026 C 
BRANCH  72  73
ATOM     73  C   UNL     1     -11.279  -5.192   6.794  1.00  0.00     0.146 C 
BRANCH  73  74
ATOM     74  N   UNL     1     -10.408  -6.172   6.153  1.00  0.00    -0.254 NA
ATOM     75  C   UNL     1     -10.658  -6.490   4.936  1.00  0.00     0.185 C 
ATOM     76  N   UNL     1      -9.874  -7.388   4.318  1.00  0.00    -0.370 N 
ATOM     77  N   UNL     1     -11.637  -6.042   4.130  1.00  0.00    -0.370 N 
ATOM     78  H   UNL     1      -9.116  -7.781   4.857  1.00  0.00     0.159 HD
ATOM     79  H   UNL     1     -10.092  -7.791   3.424  1.00  0.00     0.159 HD
ATOM     80  H   UNL     1     -12.301  -5.358   4.460  1.00  0.00     0.159 HD
ATOM     81  H   UNL     1     -11.665  -6.279   3.152  1.00  0.00     0.159 HD
ENDBRANCH  73  74
ENDBRANCH  72  73
ENDBRANCH  71  72
ENDBRANCH  45  71
ENDBRANCH   3  45
TORSDOF 20
ENDMDL
MODEL 45
REMARK VINA RESULT:    -5.642      5.501     12.767
REMARK INTER + INTRA:         -22.275
REMARK INTER:                 -14.092
REMARK INTRA:                  -8.183
REMARK UNBOUND:                -6.078
REMARK SMILES CCCCCC(=O)N[C@H](CC(=O)O)C(=O)N[C@H]1C(=O)N[C@H](CCCN=C(N)N)C(=O)N[C@@H]2CC[C@H](O)N(C2=O)[C@@H](CC(C)C)C(=O)N(C)[C@@H](Cc2ccccc2)C(=O)N[C@H](C(C)C)C(=O)O[C@@H]1C
REMARK SMILES IDX 30 1 31 2 29 3 32 5 35 6 37 7 34 8 38 9 33 10 39 11 36 12
REMARK SMILES IDX 40 14 41 15 42 16 43 17 44 18 45 19 46 20 47 21 48 22 49 23
REMARK SMILES IDX 50 24 51 25 52 26 56 27 53 28 55 29 54 30 57 31 58 32 59 33
REMARK SMILES IDX 60 35 61 36 62 37 63 38 64 39 65 40 66 41 67 42 68 43 21 45
REMARK SMILES IDX 20 46 18 47 19 48 17 50 16 52 14 53 15 54 9 56 8 57 6 58
REMARK SMILES IDX 7 59 5 61 4 62 3 63 2 64 1 65 10 66 11 67 12 68 13 69 22 71
REMARK SMILES IDX 23 72 24 73 25 74 26 75 27 76 28 77
REMARK H PARENT 31 4 36 13 59 34 20 49 16 55 8 60 13 70 27 78 27 79 28 80
REMARK H PARENT 28 81
REMARK Flexibility Score:  259.900
ROOT
ATOM      1  O   UNL     1      -7.935  -3.702   4.495  1.00  0.00    -0.273 OA
ATOM      2  N   UNL     1      -9.198  -4.753   2.904  1.00  0.00    -0.343 N 
ATOM      3  C   UNL     1      -8.137  -4.685   3.782  1.00  0.00     0.243 C 
ATOM      4  H   UNL     1      -9.341  -5.584   2.344  1.00  0.00     0.164 HD
ENDROOT
BRANCH   2   5
ATOM      5  C   UNL     1     -10.066  -3.599   2.697  1.00  0.00     0.171 C 
ATOM      6  C   UNL     1     -11.879  -2.864   0.559  1.00  0.00     0.214 C 
ATOM      7  N   UNL     1     -10.504  -2.425   0.506  1.00  0.00    -0.303 N 
ATOM      8  C   UNL     1     -12.405  -3.027   1.976  1.00  0.00     0.057 C 
ATOM      9  C   UNL     1      -9.573  -2.783   1.468  1.00  0.00     0.247 C 
ATOM     10  C   UNL     1     -11.538  -4.007   2.735  1.00  0.00     0.040 C 
ATOM     11  O   UNL     1      -8.378  -2.475   1.371  1.00  0.00    -0.272 OA
BRANCH   6  12
ATOM     12  O   UNL     1     -11.969  -4.082  -0.143  1.00  0.00    -0.373 OA
ATOM     13  H   UNL     1     -12.913  -4.209  -0.379  1.00  0.00     0.213 HD
ENDBRANCH   6  12
BRANCH   7  14
ATOM     14  C   UNL     1     -10.081  -1.689  -0.704  1.00  0.00     0.177 C 
BRANCH  14  15
ATOM     15  C   UNL     1      -9.285  -2.518  -1.731  1.00  0.00     0.038 C 
BRANCH  15  16
ATOM     16  C   UNL     1      -8.093  -1.871  -2.471  1.00  0.00    -0.015 C 
ATOM     17  C   UNL     1      -7.409  -0.784  -1.639  1.00  0.00     0.007 C 
ATOM     18  C   UNL     1      -8.579  -1.239  -3.782  1.00  0.00     0.007 C 
ENDBRANCH  15  16
ENDBRANCH  14  15
BRANCH  14  19
ATOM     19  C   UNL     1     -11.123  -0.571  -1.053  1.00  0.00     0.245 C 
ATOM     20  O   UNL     1     -11.798  -0.737  -2.082  1.00  0.00    -0.272 OA
BRANCH  19  21
ATOM     21  N   UNL     1     -11.245   0.616  -0.352  1.00  0.00    -0.332 N 
ATOM     22  C   UNL     1     -10.358   1.063   0.708  1.00  0.00     0.147 C 
BRANCH  21  23
ATOM     23  C   UNL     1     -12.382   1.513  -0.695  1.00  0.00     0.178 C 
BRANCH  23  24
ATOM     24  C   UNL     1     -13.404   1.723   0.441  1.00  0.00     0.070 C 
BRANCH  24  25
ATOM     25  C   UNL     1     -14.256   0.537   0.829  1.00  0.00    -0.045 A 
ATOM     26  C   UNL     1     -14.692  -0.380  -0.136  1.00  0.00     0.004 A 
ATOM     27  C   UNL     1     -14.627   0.340   2.168  1.00  0.00     0.004 A 
ATOM     28  C   UNL     1     -15.493  -1.464   0.228  1.00  0.00     0.000 A 
ATOM     29  C   UNL     1     -15.427  -0.745   2.530  1.00  0.00     0.000 A 
ATOM     30  C   UNL     1     -15.862  -1.645   1.559  1.00  0.00     0.000 A 
ENDBRANCH  24  25
ENDBRANCH  23  24
BRANCH  23  31
ATOM     31  C   UNL     1     -11.935   2.807  -1.416  1.00  0.00     0.243 C 
ATOM     32  O   UNL     1     -11.279   2.822  -2.454  1.00  0.00    -0.273 OA
ATOM     33  N   UNL     1     -12.179   3.959  -0.688  1.00  0.00    -0.341 N 
ATOM     34  H   UNL     1     -12.726   3.882   0.173  1.00  0.00     0.164 HD
BRANCH  33  35
ATOM     35  C   UNL     1     -11.734   5.286  -1.120  1.00  0.00     0.194 C 
BRANCH  35  36
ATOM     36  C   UNL     1     -10.442   5.785  -0.413  1.00  0.00     0.017 C 
ATOM     37  C   UNL     1      -9.189   5.461  -1.245  1.00  0.00     0.010 C 
ATOM     38  C   UNL     1     -10.241   5.172   0.978  1.00  0.00     0.010 C 
ENDBRANCH  35  36
BRANCH  35  39
ATOM     39  C   UNL     1     -12.871   6.345  -1.065  1.00  0.00     0.329 C 
ATOM     40  O   UNL     1     -14.054   6.093  -1.263  1.00  0.00    -0.250 OA
BRANCH  39  41
ATOM     41  O   UNL     1     -12.416   7.577  -0.685  1.00  0.00    -0.458 OA
BRANCH  41  42
ATOM     42  C   UNL     1     -12.948   8.710  -1.413  1.00  0.00     0.205 CG0
ATOM     43  C   UNL     1     -12.119   8.862  -2.686  1.00  0.00     0.056 C 
ATOM     44  G   UNL     1     -12.873   9.955  -0.507  1.00  0.00     0.000 G0
ENDBRANCH  41  42
ENDBRANCH  39  41
ENDBRANCH  35  39
ENDBRANCH  33  35
ENDBRANCH  23  31
ENDBRANCH  21  23
ENDBRANCH  19  21
ENDBRANCH  14  19
ENDBRANCH   7  14
ENDBRANCH   2   5
BRANCH   3  45
ATOM     45  C   UNL     1      -7.238  -5.928   3.824  1.00  0.00     0.171 C 
BRANCH  45  46
ATOM     46  N   UNL     1      -7.621  -6.650   5.031  1.00  0.00    -0.342 N 
ATOM     47  C   UNL     1      -8.257  -7.865   4.991  1.00  0.00     0.247 C 
ATOM     48  O   UNL     1      -8.485  -8.466   3.941  1.00  0.00    -0.273 OA
ATOM     49  H   UNL     1      -7.400  -6.214   5.924  1.00  0.00     0.164 HD
BRANCH  47  50
ATOM     50  C   UNL     1      -8.694  -8.415   6.357  1.00  0.00     0.212 CG0
ATOM     51  G   UNL     1      -7.440  -8.977   7.056  1.00  0.00     0.000 G0
BRANCH  50  52
ATOM     52  N   UNL     1      -9.288  -7.282   7.061  1.00  0.00    -0.339 N 
ATOM     53  C   UNL     1     -10.170  -7.420   8.106  1.00  0.00     0.243 C 
ATOM     54  O   UNL     1     -10.568  -8.514   8.495  1.00  0.00    -0.273 OA
ATOM     55  H   UNL     1      -9.083  -6.348   6.712  1.00  0.00     0.164 HD
BRANCH  53  56
ATOM     56  C   UNL     1     -10.731  -6.084   8.633  1.00  0.00     0.182 C 
BRANCH  56  57
ATOM     57  N   UNL     1     -11.448  -5.361   7.579  1.00  0.00    -0.344 N 
ATOM     58  C   UNL     1     -12.673  -4.776   7.789  1.00  0.00     0.220 C 
ATOM     59  O   UNL     1     -13.284  -4.879   8.847  1.00  0.00    -0.275 OA
ATOM     60  H   UNL     1     -10.935  -5.165   6.723  1.00  0.00     0.164 HD
BRANCH  58  61
ATOM     61  C   UNL     1     -13.201  -4.032   6.576  1.00  0.00     0.100 C 
BRANCH  61  62
ATOM     62  C   UNL     1     -12.416  -2.763   6.242  1.00  0.00     0.010 C 
BRANCH  62  63
ATOM     63  C   UNL     1     -13.093  -1.862   5.201  1.00  0.00     0.000 C 
BRANCH  63  64
ATOM     64  C   UNL     1     -12.513  -0.451   5.121  1.00  0.00    -0.003 C 
ATOM     65  C   UNL     1     -11.417  -0.361   4.069  1.00  0.00     0.004 C 
ENDBRANCH  63  64
ENDBRANCH  62  63
ENDBRANCH  61  62
ENDBRANCH  58  61
ENDBRANCH  56  57
BRANCH  56  66
ATOM     66  C   UNL     1      -9.637  -5.232   9.276  1.00  0.00     0.157 C 
BRANCH  66  67
ATOM     67  C   UNL     1      -9.229  -4.102   8.375  1.00  0.00     0.305 C 
ATOM     68  O   UNL     1      -9.492  -2.918   8.520  1.00  0.00    -0.252 OA
BRANCH  67  69
ATOM     69  O   UNL     1      -8.457  -4.515   7.352  1.00  0.00    -0.481 OA
ATOM     70  H   UNL     1      -8.237  -3.698   6.858  1.00  0.00     0.296 HD
ENDBRANCH  67  69
ENDBRANCH  66  67
ENDBRANCH  56  66
ENDBRANCH  53  56
ENDBRANCH  50  52
ENDBRANCH  47  50
ENDBRANCH  45  46
BRANCH  45  71
ATOM     71  C   UNL     1      -5.762  -5.518   3.854  1.00  0.00     0.037 C 
BRANCH  71  72
ATOM     72  C   UNL     1      -5.008  -5.987   2.607  1.00  0.00     0.026 C 
BRANCH  72  73
ATOM     73  C   UNL     1      -5.946  -6.144   1.412  1.00  0.00     0.146 C 
BRANCH  73  74
ATOM     74  N   UNL     1      -5.213  -5.750   0.213  1.00  0.00    -0.254 NA
ATOM     75  C   UNL     1      -5.284  -4.525  -0.157  1.00  0.00     0.185 C 
ATOM     76  N   UNL     1      -4.618  -4.131  -1.255  1.00  0.00    -0.370 N 
ATOM     77  N   UNL     1      -5.956  -3.508   0.411  1.00  0.00    -0.370 N 
ATOM     78  H   UNL     1      -4.091  -4.838  -1.748  1.00  0.00     0.159 HD
ATOM     79  H   UNL     1      -4.742  -3.231  -1.685  1.00  0.00     0.159 HD
ATOM     80  H   UNL     1      -6.499  -3.656   1.248  1.00  0.00     0.159 HD
ATOM     81  H   UNL     1      -5.844  -2.559   0.095  1.00  0.00     0.159 HD
ENDBRANCH  73  74
ENDBRANCH  72  73
ENDBRANCH  71  72
ENDBRANCH  45  71
ENDBRANCH   3  45
TORSDOF 20
ENDMDL
MODEL 46
REMARK VINA RESULT:    -5.639      7.794     11.759
REMARK INTER + INTRA:         -22.265
REMARK INTER:                 -15.535
REMARK INTRA:                  -6.730
REMARK UNBOUND:                -6.078
REMARK SMILES CCCCCC(=O)N[C@H](CC(=O)O)C(=O)N[C@H]1C(=O)N[C@H](CCCN=C(N)N)C(=O)N[C@@H]2CC[C@H](O)N(C2=O)[C@@H](CC(C)C)C(=O)N(C)[C@@H](Cc2ccccc2)C(=O)N[C@H](C(C)C)C(=O)O[C@@H]1C
REMARK SMILES IDX 30 1 31 2 29 3 32 5 35 6 37 7 34 8 38 9 33 10 39 11 36 12
REMARK SMILES IDX 40 14 41 15 42 16 43 17 44 18 45 19 46 20 47 21 48 22 49 23
REMARK SMILES IDX 50 24 51 25 52 26 56 27 53 28 55 29 54 30 57 31 58 32 59 33
REMARK SMILES IDX 60 35 61 36 62 37 63 38 64 39 65 40 66 41 67 42 68 43 21 45
REMARK SMILES IDX 20 46 18 47 19 48 17 50 16 52 14 53 15 54 9 56 8 57 6 58
REMARK SMILES IDX 7 59 5 61 4 62 3 63 2 64 1 65 10 66 11 67 12 68 13 69 22 71
REMARK SMILES IDX 23 72 24 73 25 74 26 75 27 76 28 77
REMARK H PARENT 31 4 36 13 59 34 20 49 16 55 8 60 13 70 27 78 27 79 28 80
REMARK H PARENT 28 81
REMARK Flexibility Score:  259.900
ROOT
ATOM      1  O   UNL     1      -7.384  -1.707  -0.676  1.00  0.00    -0.273 OA
ATOM      2  N   UNL     1      -8.928  -0.982   0.848  1.00  0.00    -0.343 N 
ATOM      3  C   UNL     1      -8.137  -1.950   0.267  1.00  0.00     0.243 C 
ATOM      4  H   UNL     1      -9.525  -1.215   1.632  1.00  0.00     0.164 HD
ENDROOT
BRANCH   2   5
ATOM      5  C   UNL     1      -8.992   0.362   0.282  1.00  0.00     0.171 C 
ATOM      6  C   UNL     1     -10.907   2.520   0.560  1.00  0.00     0.214 C 
ATOM      7  N   UNL     1     -11.069   1.560  -0.507  1.00  0.00    -0.303 N 
ATOM      8  C   UNL     1      -9.456   2.739   0.958  1.00  0.00     0.057 C 
ATOM      9  C   UNL     1     -10.220   0.477  -0.666  1.00  0.00     0.247 C 
ATOM     10  C   UNL     1      -8.834   1.422   1.370  1.00  0.00     0.040 C 
ATOM     11  O   UNL     1     -10.416  -0.389  -1.529  1.00  0.00    -0.272 OA
BRANCH   6  12
ATOM     12  O   UNL     1     -11.657   2.068   1.663  1.00  0.00    -0.373 OA
ATOM     13  H   UNL     1     -12.144   2.843   2.017  1.00  0.00     0.213 HD
ENDBRANCH   6  12
BRANCH   7  14
ATOM     14  C   UNL     1     -12.275   1.693  -1.350  1.00  0.00     0.177 C 
BRANCH  14  15
ATOM     15  C   UNL     1     -13.506   0.904  -0.863  1.00  0.00     0.038 C 
BRANCH  15  16
ATOM     16  C   UNL     1     -14.047  -0.265  -1.716  1.00  0.00    -0.015 C 
ATOM     17  C   UNL     1     -13.692  -1.633  -1.126  1.00  0.00     0.007 C 
ATOM     18  C   UNL     1     -13.464  -0.187  -3.133  1.00  0.00     0.007 C 
ENDBRANCH  15  16
ENDBRANCH  14  15
BRANCH  14  19
ATOM     19  C   UNL     1     -12.314   3.107  -2.026  1.00  0.00     0.245 C 
ATOM     20  O   UNL     1     -11.412   3.361  -2.842  1.00  0.00    -0.272 OA
BRANCH  19  21
ATOM     21  N   UNL     1     -13.213   4.101  -1.684  1.00  0.00    -0.332 N 
ATOM     22  C   UNL     1     -13.467   4.581  -0.338  1.00  0.00     0.147 C 
BRANCH  21  23
ATOM     23  C   UNL     1     -14.002   4.732  -2.778  1.00  0.00     0.178 C 
BRANCH  23  24
ATOM     24  C   UNL     1     -15.532   4.629  -2.614  1.00  0.00     0.070 C 
BRANCH  24  25
ATOM     25  C   UNL     1     -16.152   3.262  -2.793  1.00  0.00    -0.045 A 
ATOM     26  C   UNL     1     -16.748   2.598  -1.713  1.00  0.00     0.004 A 
ATOM     27  C   UNL     1     -16.135   2.636  -4.048  1.00  0.00     0.004 A 
ATOM     28  C   UNL     1     -17.304   1.328  -1.883  1.00  0.00     0.000 A 
ATOM     29  C   UNL     1     -16.692   1.368  -4.216  1.00  0.00     0.000 A 
ATOM     30  C   UNL     1     -17.274   0.713  -3.132  1.00  0.00     0.000 A 
ENDBRANCH  24  25
ENDBRANCH  23  24
BRANCH  23  31
ATOM     31  C   UNL     1     -13.482   6.137  -3.164  1.00  0.00     0.243 C 
ATOM     32  O   UNL     1     -12.393   6.346  -3.693  1.00  0.00    -0.273 OA
ATOM     33  N   UNL     1     -14.274   7.170  -2.690  1.00  0.00    -0.341 N 
ATOM     34  H   UNL     1     -15.168   6.933  -2.252  1.00  0.00     0.164 HD
BRANCH  33  35
ATOM     35  C   UNL     1     -13.914   8.583  -2.833  1.00  0.00     0.194 C 
BRANCH  35  36
ATOM     36  C   UNL     1     -13.394   9.241  -1.523  1.00  0.00     0.017 C 
ATOM     37  C   UNL     1     -11.927   8.867  -1.254  1.00  0.00     0.010 C 
ATOM     38  C   UNL     1     -14.205   8.842  -0.284  1.00  0.00     0.010 C 
ENDBRANCH  35  36
BRANCH  35  39
ATOM     39  C   UNL     1     -15.041   9.423  -3.497  1.00  0.00     0.329 C 
ATOM     40  O   UNL     1     -15.966   8.942  -4.140  1.00  0.00    -0.250 OA
BRANCH  39  41
ATOM     41  O   UNL     1     -14.933  10.756  -3.211  1.00  0.00    -0.458 OA
BRANCH  41  42
ATOM     42  C   UNL     1     -16.176  11.488  -3.090  1.00  0.00     0.205 CG0
ATOM     43  C   UNL     1     -16.612  11.405  -1.629  1.00  0.00     0.056 C 
ATOM     44  G   UNL     1     -17.209  10.865  -4.050  1.00  0.00     0.000 G0
ENDBRANCH  41  42
ENDBRANCH  39  41
ENDBRANCH  35  39
ENDBRANCH  33  35
ENDBRANCH  23  31
ENDBRANCH  21  23
ENDBRANCH  19  21
ENDBRANCH  14  19
ENDBRANCH   7  14
ENDBRANCH   2   5
BRANCH   3  45
ATOM     45  C   UNL     1      -8.245  -3.348   0.892  1.00  0.00     0.171 C 
BRANCH  45  46
ATOM     46  N   UNL     1      -7.365  -4.200   0.104  1.00  0.00    -0.342 N 
ATOM     47  C   UNL     1      -6.038  -4.372   0.410  1.00  0.00     0.247 C 
ATOM     48  O   UNL     1      -5.514  -3.880   1.410  1.00  0.00    -0.273 OA
ATOM     49  H   UNL     1      -7.772  -4.672  -0.702  1.00  0.00     0.164 HD
BRANCH  47  50
ATOM     50  C   UNL     1      -5.240  -5.205  -0.603  1.00  0.00     0.212 CG0
ATOM     51  G   UNL     1      -5.594  -6.687  -0.372  1.00  0.00     0.000 G0
BRANCH  50  52
ATOM     52  N   UNL     1      -5.645  -4.713  -1.917  1.00  0.00    -0.339 N 
ATOM     53  C   UNL     1      -5.874  -5.535  -2.994  1.00  0.00     0.243 C 
ATOM     54  O   UNL     1      -5.703  -6.750  -2.947  1.00  0.00    -0.273 OA
ATOM     55  H   UNL     1      -5.696  -3.705  -2.049  1.00  0.00     0.164 HD
BRANCH  53  56
ATOM     56  C   UNL     1      -6.207  -4.782  -4.298  1.00  0.00     0.182 C 
BRANCH  56  57
ATOM     57  N   UNL     1      -5.023  -4.667  -5.156  1.00  0.00    -0.344 N 
ATOM     58  C   UNL     1      -4.802  -5.505  -6.222  1.00  0.00     0.220 C 
ATOM     59  O   UNL     1      -5.538  -6.450  -6.486  1.00  0.00    -0.275 OA
ATOM     60  H   UNL     1      -4.445  -3.840  -5.035  1.00  0.00     0.164 HD
BRANCH  58  61
ATOM     61  C   UNL     1      -3.546  -5.166  -7.003  1.00  0.00     0.100 C 
BRANCH  61  62
ATOM     62  C   UNL     1      -3.136  -6.243  -8.007  1.00  0.00     0.010 C 
BRANCH  62  63
ATOM     63  C   UNL     1      -2.363  -7.415  -7.388  1.00  0.00     0.000 C 
BRANCH  63  64
ATOM     64  C   UNL     1      -0.969  -7.049  -6.880  1.00  0.00    -0.003 C 
ATOM     65  C   UNL     1      -0.092  -6.513  -8.003  1.00  0.00     0.004 C 
ENDBRANCH  63  64
ENDBRANCH  62  63
ENDBRANCH  61  62
ENDBRANCH  58  61
ENDBRANCH  56  57
BRANCH  56  66
ATOM     66  C   UNL     1      -6.846  -3.424  -4.013  1.00  0.00     0.157 C 
BRANCH  66  67
ATOM     67  C   UNL     1      -8.292  -3.573  -3.635  1.00  0.00     0.305 C 
ATOM     68  O   UNL     1      -8.737  -3.835  -2.528  1.00  0.00    -0.252 OA
BRANCH  67  69
ATOM     69  O   UNL     1      -9.119  -3.329  -4.670  1.00  0.00    -0.481 OA
ATOM     70  H   UNL     1      -9.543  -4.193  -4.859  1.00  0.00     0.296 HD
ENDBRANCH  67  69
ENDBRANCH  66  67
ENDBRANCH  56  66
ENDBRANCH  53  56
ENDBRANCH  50  52
ENDBRANCH  47  50
ENDBRANCH  45  46
BRANCH  45  71
ATOM     71  C   UNL     1      -9.696  -3.841   0.850  1.00  0.00     0.037 C 
BRANCH  71  72
ATOM     72  C   UNL     1     -10.073  -4.625   2.109  1.00  0.00     0.026 C 
BRANCH  72  73
ATOM     73  C   UNL     1     -11.092  -3.867   2.958  1.00  0.00     0.146 C 
BRANCH  73  74
ATOM     74  N   UNL     1     -11.223  -2.523   2.403  1.00  0.00    -0.254 NA
ATOM     75  C   UNL     1     -12.276  -1.854   2.697  1.00  0.00     0.185 C 
ATOM     76  N   UNL     1     -12.425  -0.614   2.203  1.00  0.00    -0.370 N 
ATOM     77  N   UNL     1     -13.319  -2.214   3.466  1.00  0.00    -0.370 N 
ATOM     78  H   UNL     1     -11.687  -0.268   1.607  1.00  0.00     0.159 HD
ATOM     79  H   UNL     1     -13.280  -0.090   2.270  1.00  0.00     0.159 HD
ATOM     80  H   UNL     1     -13.342  -3.120   3.908  1.00  0.00     0.159 HD
ATOM     81  H   UNL     1     -14.039  -1.558   3.720  1.00  0.00     0.159 HD
ENDBRANCH  73  74
ENDBRANCH  72  73
ENDBRANCH  71  72
ENDBRANCH  45  71
ENDBRANCH   3  45
TORSDOF 20
ENDMDL
MODEL 47
REMARK VINA RESULT:    -5.636      4.060      7.304
REMARK INTER + INTRA:         -22.258
REMARK INTER:                 -15.378
REMARK INTRA:                  -6.880
REMARK UNBOUND:                -6.078
REMARK SMILES CCCCCC(=O)N[C@H](CC(=O)O)C(=O)N[C@H]1C(=O)N[C@H](CCCN=C(N)N)C(=O)N[C@@H]2CC[C@H](O)N(C2=O)[C@@H](CC(C)C)C(=O)N(C)[C@@H](Cc2ccccc2)C(=O)N[C@H](C(C)C)C(=O)O[C@@H]1C
REMARK SMILES IDX 30 1 31 2 29 3 32 5 35 6 37 7 34 8 38 9 33 10 39 11 36 12
REMARK SMILES IDX 40 14 41 15 42 16 43 17 44 18 45 19 46 20 47 21 48 22 49 23
REMARK SMILES IDX 50 24 51 25 52 26 56 27 53 28 55 29 54 30 57 31 58 32 59 33
REMARK SMILES IDX 60 35 61 36 62 37 63 38 64 39 65 40 66 41 67 42 68 43 21 45
REMARK SMILES IDX 20 46 18 47 19 48 17 50 16 52 14 53 15 54 9 56 8 57 6 58
REMARK SMILES IDX 7 59 5 61 4 62 3 63 2 64 1 65 10 66 11 67 12 68 13 69 22 71
REMARK SMILES IDX 23 72 24 73 25 74 26 75 27 76 28 77
REMARK H PARENT 31 4 36 13 59 34 20 49 16 55 8 60 13 70 27 78 27 79 28 80
REMARK H PARENT 28 81
REMARK Flexibility Score:  259.900
ROOT
ATOM      1  O   UNL     1      -7.988  -1.384  -1.287  1.00  0.00    -0.273 OA
ATOM      2  N   UNL     1      -9.857  -2.326  -2.207  1.00  0.00    -0.343 N 
ATOM      3  C   UNL     1      -8.601  -1.766  -2.284  1.00  0.00     0.243 C 
ATOM      4  H   UNL     1     -10.326  -2.642  -3.048  1.00  0.00     0.164 HD
ENDROOT
BRANCH   2   5
ATOM      5  C   UNL     1     -10.569  -2.382  -0.935  1.00  0.00     0.171 C 
ATOM      6  C   UNL     1      -9.756  -1.840   1.795  1.00  0.00     0.214 C 
ATOM      7  N   UNL     1      -9.637  -3.181   1.271  1.00  0.00    -0.303 N 
ATOM      8  C   UNL     1     -10.897  -1.050   1.173  1.00  0.00     0.057 C 
ATOM      9  C   UNL     1      -9.959  -3.498  -0.038  1.00  0.00     0.247 C 
ATOM     10  C   UNL     1     -10.718  -0.988  -0.328  1.00  0.00     0.040 C 
ATOM     11  O   UNL     1      -9.773  -4.630  -0.504  1.00  0.00    -0.272 OA
BRANCH   6  12
ATOM     12  O   UNL     1      -8.528  -1.184   1.580  1.00  0.00    -0.373 OA
ATOM     13  H   UNL     1      -8.737  -0.291   1.231  1.00  0.00     0.213 HD
ENDBRANCH   6  12
BRANCH   7  14
ATOM     14  C   UNL     1      -9.012  -4.191   2.151  1.00  0.00     0.177 C 
BRANCH  14  15
ATOM     15  C   UNL     1      -7.577  -3.865   2.609  1.00  0.00     0.038 C 
BRANCH  15  16
ATOM     16  C   UNL     1      -6.387  -4.618   1.975  1.00  0.00    -0.015 C 
ATOM     17  C   UNL     1      -5.051  -4.258   2.632  1.00  0.00     0.007 C 
ATOM     18  C   UNL     1      -6.294  -4.278   0.482  1.00  0.00     0.007 C 
ENDBRANCH  15  16
ENDBRANCH  14  15
BRANCH  14  19
ATOM     19  C   UNL     1     -10.104  -4.901   3.025  1.00  0.00     0.245 C 
ATOM     20  O   UNL     1     -11.274  -4.844   2.612  1.00  0.00    -0.272 OA
BRANCH  19  21
ATOM     21  N   UNL     1      -9.851  -5.475   4.258  1.00  0.00    -0.332 N 
ATOM     22  C   UNL     1      -9.709  -6.898   4.512  1.00  0.00     0.147 C 
BRANCH  21  23
ATOM     23  C   UNL     1      -9.722  -4.571   5.434  1.00  0.00     0.178 C 
BRANCH  23  24
ATOM     24  C   UNL     1     -11.062  -4.103   6.038  1.00  0.00     0.070 C 
BRANCH  24  25
ATOM     25  C   UNL     1     -11.652  -2.821   5.497  1.00  0.00    -0.045 A 
ATOM     26  C   UNL     1     -13.007  -2.745   5.151  1.00  0.00     0.004 A 
ATOM     27  C   UNL     1     -10.844  -1.687   5.330  1.00  0.00     0.004 A 
ATOM     28  C   UNL     1     -13.540  -1.561   4.635  1.00  0.00     0.000 A 
ATOM     29  C   UNL     1     -11.378  -0.504   4.816  1.00  0.00     0.000 A 
ATOM     30  C   UNL     1     -12.726  -0.443   4.466  1.00  0.00     0.000 A 
ENDBRANCH  24  25
ENDBRANCH  23  24
BRANCH  23  31
ATOM     31  C   UNL     1      -8.680  -5.065   6.464  1.00  0.00     0.243 C 
ATOM     32  O   UNL     1      -7.473  -5.127   6.245  1.00  0.00    -0.273 OA
ATOM     33  N   UNL     1      -9.245  -5.611   7.604  1.00  0.00    -0.341 N 
ATOM     34  H   UNL     1     -10.257  -5.534   7.729  1.00  0.00     0.164 HD
BRANCH  33  35
ATOM     35  C   UNL     1      -8.454  -6.248   8.661  1.00  0.00     0.194 C 
BRANCH  35  36
ATOM     36  C   UNL     1      -8.815  -7.739   8.913  1.00  0.00     0.017 C 
ATOM     37  C   UNL     1      -8.689  -8.570   7.624  1.00  0.00     0.010 C 
ATOM     38  C   UNL     1     -10.239  -7.934   9.447  1.00  0.00     0.010 C 
ENDBRANCH  35  36
BRANCH  35  39
ATOM     39  C   UNL     1      -8.443  -5.423   9.979  1.00  0.00     0.329 C 
ATOM     40  O   UNL     1      -9.347  -4.673  10.326  1.00  0.00    -0.250 OA
BRANCH  39  41
ATOM     41  O   UNL     1      -7.349  -5.695  10.753  1.00  0.00    -0.458 OA
BRANCH  41  42
ATOM     42  C   UNL     1      -7.467  -5.383  12.161  1.00  0.00     0.205 CG0
ATOM     43  C   UNL     1      -6.202  -4.630  12.567  1.00  0.00     0.056 C 
ATOM     44  G   UNL     1      -7.645  -6.700  12.943  1.00  0.00     0.000 G0
ENDBRANCH  41  42
ENDBRANCH  39  41
ENDBRANCH  35  39
ENDBRANCH  33  35
ENDBRANCH  23  31
ENDBRANCH  21  23
ENDBRANCH  19  21
ENDBRANCH  14  19
ENDBRANCH   7  14
ENDBRANCH   2   5
BRANCH   3  45
ATOM     45  C   UNL     1      -8.010  -1.669  -3.697  1.00  0.00     0.171 C 
BRANCH  45  46
ATOM     46  N   UNL     1      -8.757  -0.612  -4.365  1.00  0.00    -0.342 N 
ATOM     47  C   UNL     1      -8.143   0.378  -5.091  1.00  0.00     0.247 C 
ATOM     48  O   UNL     1      -6.928   0.404  -5.292  1.00  0.00    -0.273 OA
ATOM     49  H   UNL     1      -9.771  -0.627  -4.272  1.00  0.00     0.164 HD
BRANCH  47  50
ATOM     50  C   UNL     1      -9.080   1.475  -5.617  1.00  0.00     0.212 CG0
ATOM     51  G   UNL     1      -9.365   1.173  -7.102  1.00  0.00     0.000 G0
BRANCH  50  52
ATOM     52  N   UNL     1     -10.271   1.407  -4.775  1.00  0.00    -0.339 N 
ATOM     53  C   UNL     1     -11.451   2.039  -5.083  1.00  0.00     0.243 C 
ATOM     54  O   UNL     1     -11.579   2.758  -6.070  1.00  0.00    -0.273 OA
ATOM     55  H   UNL     1     -10.194   0.916  -3.886  1.00  0.00     0.164 HD
BRANCH  53  56
ATOM     56  C   UNL     1     -12.541   1.894  -4.001  1.00  0.00     0.182 C 
BRANCH  56  57
ATOM     57  N   UNL     1     -11.948   1.840  -2.661  1.00  0.00    -0.344 N 
ATOM     58  C   UNL     1     -11.766   2.963  -1.891  1.00  0.00     0.220 C 
ATOM     59  O   UNL     1     -12.016   4.093  -2.296  1.00  0.00    -0.275 OA
ATOM     60  H   UNL     1     -11.822   0.919  -2.250  1.00  0.00     0.164 HD
BRANCH  58  61
ATOM     61  C   UNL     1     -11.192   2.665  -0.518  1.00  0.00     0.100 C 
BRANCH  61  62
ATOM     62  C   UNL     1      -9.676   2.840  -0.433  1.00  0.00     0.010 C 
BRANCH  62  63
ATOM     63  C   UNL     1      -9.035   2.175   0.792  1.00  0.00     0.000 C 
BRANCH  63  64
ATOM     64  C   UNL     1      -9.804   2.388   2.095  1.00  0.00    -0.003 C 
ATOM     65  C   UNL     1      -9.025   1.861   3.291  1.00  0.00     0.004 C 
ENDBRANCH  63  64
ENDBRANCH  62  63
ENDBRANCH  61  62
ENDBRANCH  58  61
ENDBRANCH  56  57
BRANCH  56  66
ATOM     66  C   UNL     1     -13.450   0.698  -4.278  1.00  0.00     0.157 C 
BRANCH  66  67
ATOM     67  C   UNL     1     -13.015  -0.508  -3.498  1.00  0.00     0.305 C 
ATOM     68  O   UNL     1     -13.654  -1.095  -2.638  1.00  0.00    -0.252 OA
BRANCH  67  69
ATOM     69  O   UNL     1     -11.802  -0.954  -3.878  1.00  0.00    -0.481 OA
ATOM     70  H   UNL     1     -11.358  -0.171  -4.267  1.00  0.00     0.296 HD
ENDBRANCH  67  69
ENDBRANCH  66  67
ENDBRANCH  56  66
ENDBRANCH  53  56
ENDBRANCH  50  52
ENDBRANCH  47  50
ENDBRANCH  45  46
BRANCH  45  71
ATOM     71  C   UNL     1      -8.151  -3.009  -4.428  1.00  0.00     0.037 C 
BRANCH  71  72
ATOM     72  C   UNL     1      -7.275  -3.077  -5.681  1.00  0.00     0.026 C 
BRANCH  72  73
ATOM     73  C   UNL     1      -7.087  -4.516  -6.156  1.00  0.00     0.146 C 
BRANCH  73  74
ATOM     74  N   UNL     1      -7.996  -4.739  -7.277  1.00  0.00    -0.254 NA
ATOM     75  C   UNL     1      -7.491  -4.803  -8.453  1.00  0.00     0.185 C 
ATOM     76  N   UNL     1      -8.301  -5.009  -9.504  1.00  0.00    -0.370 N 
ATOM     77  N   UNL     1      -6.205  -4.691  -8.828  1.00  0.00    -0.370 N 
ATOM     78  H   UNL     1      -9.288  -5.097  -9.311  1.00  0.00     0.159 HD
ATOM     79  H   UNL     1      -8.001  -4.926 -10.460  1.00  0.00     0.159 HD
ATOM     80  H   UNL     1      -5.481  -4.538  -8.142  1.00  0.00     0.159 HD
ATOM     81  H   UNL     1      -5.912  -4.875  -9.774  1.00  0.00     0.159 HD
ENDBRANCH  73  74
ENDBRANCH  72  73
ENDBRANCH  71  72
ENDBRANCH  45  71
ENDBRANCH   3  45
TORSDOF 20
ENDMDL
MODEL 48
REMARK VINA RESULT:    -5.608      6.652     11.533
REMARK INTER + INTRA:         -22.177
REMARK INTER:                 -15.599
REMARK INTRA:                  -6.579
REMARK UNBOUND:                -6.078
REMARK SMILES CCCCCC(=O)N[C@H](CC(=O)O)C(=O)N[C@H]1C(=O)N[C@H](CCCN=C(N)N)C(=O)N[C@@H]2CC[C@H](O)N(C2=O)[C@@H](CC(C)C)C(=O)N(C)[C@@H](Cc2ccccc2)C(=O)N[C@H](C(C)C)C(=O)O[C@@H]1C
REMARK SMILES IDX 30 1 31 2 29 3 32 5 35 6 37 7 34 8 38 9 33 10 39 11 36 12
REMARK SMILES IDX 40 14 41 15 42 16 43 17 44 18 45 19 46 20 47 21 48 22 49 23
REMARK SMILES IDX 50 24 51 25 52 26 56 27 53 28 55 29 54 30 57 31 58 32 59 33
REMARK SMILES IDX 60 35 61 36 62 37 63 38 64 39 65 40 66 41 67 42 68 43 21 45
REMARK SMILES IDX 20 46 18 47 19 48 17 50 16 52 14 53 15 54 9 56 8 57 6 58
REMARK SMILES IDX 7 59 5 61 4 62 3 63 2 64 1 65 10 66 11 67 12 68 13 69 22 71
REMARK SMILES IDX 23 72 24 73 25 74 26 75 27 76 28 77
REMARK H PARENT 31 4 36 13 59 34 20 49 16 55 8 60 13 70 27 78 27 79 28 80
REMARK H PARENT 28 81
REMARK Flexibility Score:  259.900
ROOT
ATOM      1  O   UNL     1      -8.705  -4.338  -1.074  1.00  0.00    -0.273 OA
ATOM      2  N   UNL     1      -7.597  -2.631  -0.029  1.00  0.00    -0.343 N 
ATOM      3  C   UNL     1      -8.126  -3.903  -0.078  1.00  0.00     0.243 C 
ATOM      4  H   UNL     1      -7.115  -2.313   0.802  1.00  0.00     0.164 HD
ENDROOT
BRANCH   2   5
ATOM      5  C   UNL     1      -7.810  -1.696  -1.128  1.00  0.00     0.171 C 
ATOM      6  C   UNL     1      -7.406   1.163  -1.380  1.00  0.00     0.214 C 
ATOM      7  N   UNL     1      -8.689   0.663  -0.943  1.00  0.00    -0.303 N 
ATOM      8  C   UNL     1      -6.673   0.210  -2.311  1.00  0.00     0.057 C 
ATOM      9  C   UNL     1      -8.933  -0.687  -0.753  1.00  0.00     0.247 C 
ATOM     10  C   UNL     1      -6.483  -1.127  -1.628  1.00  0.00     0.040 C 
ATOM     11  O   UNL     1     -10.006  -1.102  -0.296  1.00  0.00    -0.272 OA
BRANCH   6  12
ATOM     12  O   UNL     1      -6.632   1.424  -0.233  1.00  0.00    -0.373 OA
ATOM     13  H   UNL     1      -6.394   0.555   0.156  1.00  0.00     0.213 HD
ENDBRANCH   6  12
BRANCH   7  14
ATOM     14  C   UNL     1      -9.704   1.666  -0.559  1.00  0.00     0.177 C 
BRANCH  14  15
ATOM     15  C   UNL     1      -9.278   2.637   0.559  1.00  0.00     0.038 C 
BRANCH  15  16
ATOM     16  C   UNL     1     -10.139   2.751   1.837  1.00  0.00    -0.015 C 
ATOM     17  C   UNL     1     -10.941   1.477   2.117  1.00  0.00     0.007 C 
ATOM     18  C   UNL     1     -11.125   3.918   1.694  1.00  0.00     0.007 C 
ENDBRANCH  15  16
ENDBRANCH  14  15
BRANCH  14  19
ATOM     19  C   UNL     1     -10.593   2.041  -1.795  1.00  0.00     0.245 C 
ATOM     20  O   UNL     1     -10.139   2.900  -2.570  1.00  0.00    -0.272 OA
BRANCH  19  21
ATOM     21  N   UNL     1     -11.873   1.559  -1.999  1.00  0.00    -0.332 N 
ATOM     22  C   UNL     1     -12.573   0.630  -1.129  1.00  0.00     0.147 C 
BRANCH  21  23
ATOM     23  C   UNL     1     -12.603   2.014  -3.214  1.00  0.00     0.178 C 
BRANCH  23  24
ATOM     24  C   UNL     1     -13.075   0.880  -4.147  1.00  0.00     0.070 C 
BRANCH  24  25
ATOM     25  C   UNL     1     -12.994   1.133  -5.634  1.00  0.00    -0.045 A 
ATOM     26  C   UNL     1     -11.945   1.887  -6.178  1.00  0.00     0.004 A 
ATOM     27  C   UNL     1     -13.975   0.618  -6.494  1.00  0.00     0.004 A 
ATOM     28  C   UNL     1     -11.887   2.131  -7.552  1.00  0.00     0.000 A 
ATOM     29  C   UNL     1     -13.915   0.862  -7.867  1.00  0.00     0.000 A 
ATOM     30  C   UNL     1     -12.872   1.620  -8.395  1.00  0.00     0.000 A 
ENDBRANCH  24  25
ENDBRANCH  23  24
BRANCH  23  31
ATOM     31  C   UNL     1     -13.670   3.093  -2.910  1.00  0.00     0.243 C 
ATOM     32  O   UNL     1     -14.498   3.004  -2.007  1.00  0.00    -0.273 OA
ATOM     33  N   UNL     1     -13.732   4.094  -3.864  1.00  0.00    -0.341 N 
ATOM     34  H   UNL     1     -13.018   4.112  -4.596  1.00  0.00     0.164 HD
BRANCH  33  35
ATOM     35  C   UNL     1     -14.744   5.154  -3.844  1.00  0.00     0.194 C 
BRANCH  35  36
ATOM     36  C   UNL     1     -15.835   5.011  -4.943  1.00  0.00     0.017 C 
ATOM     37  C   UNL     1     -17.139   4.433  -4.364  1.00  0.00     0.010 C 
ATOM     38  C   UNL     1     -15.408   4.106  -6.105  1.00  0.00     0.010 C 
ENDBRANCH  35  36
BRANCH  35  39
ATOM     39  C   UNL     1     -14.118   6.577  -3.830  1.00  0.00     0.329 C 
ATOM     40  O   UNL     1     -12.944   6.813  -4.086  1.00  0.00    -0.250 OA
BRANCH  39  41
ATOM     41  O   UNL     1     -15.047   7.551  -3.583  1.00  0.00    -0.458 OA
BRANCH  41  42
ATOM     42  C   UNL     1     -15.171   8.586  -4.587  1.00  0.00     0.205 CG0
ATOM     43  C   UNL     1     -14.751   9.902  -3.936  1.00  0.00     0.056 C 
ATOM     44  G   UNL     1     -16.629   8.615  -5.086  1.00  0.00     0.000 G0
ENDBRANCH  41  42
ENDBRANCH  39  41
ENDBRANCH  35  39
ENDBRANCH  33  35
ENDBRANCH  23  31
ENDBRANCH  21  23
ENDBRANCH  19  21
ENDBRANCH  14  19
ENDBRANCH   7  14
ENDBRANCH   2   5
BRANCH   3  45
ATOM     45  C   UNL     1      -7.925  -4.748   1.187  1.00  0.00     0.171 C 
BRANCH  45  46
ATOM     46  N   UNL     1      -7.117  -5.888   0.775  1.00  0.00    -0.342 N 
ATOM     47  C   UNL     1      -6.072  -6.361   1.528  1.00  0.00     0.247 C 
ATOM     48  O   UNL     1      -5.787  -5.906   2.636  1.00  0.00    -0.273 OA
ATOM     49  H   UNL     1      -7.355  -6.331  -0.111  1.00  0.00     0.164 HD
BRANCH  47  50
ATOM     50  C   UNL     1      -5.259  -7.488   0.876  1.00  0.00     0.212 CG0
ATOM     51  G   UNL     1      -6.199  -8.695   0.689  1.00  0.00     0.000 G0
BRANCH  50  52
ATOM     52  N   UNL     1      -4.769  -6.937  -0.384  1.00  0.00    -0.339 N 
ATOM     53  C   UNL     1      -4.734  -7.650  -1.558  1.00  0.00     0.243 C 
ATOM     54  O   UNL     1      -5.065  -8.830  -1.626  1.00  0.00    -0.273 OA
ATOM     55  H   UNL     1      -4.377  -5.997  -0.369  1.00  0.00     0.164 HD
BRANCH  53  56
ATOM     56  C   UNL     1      -4.096  -6.887  -2.737  1.00  0.00     0.182 C 
BRANCH  56  57
ATOM     57  N   UNL     1      -5.124  -6.325  -3.618  1.00  0.00    -0.344 N 
ATOM     58  C   UNL     1      -5.682  -5.088  -3.404  1.00  0.00     0.220 C 
ATOM     59  O   UNL     1      -5.415  -4.400  -2.425  1.00  0.00    -0.275 OA
ATOM     60  H   UNL     1      -5.299  -6.814  -4.492  1.00  0.00     0.164 HD
BRANCH  58  61
ATOM     61  C   UNL     1      -6.681  -4.685  -4.474  1.00  0.00     0.100 C 
BRANCH  61  62
ATOM     62  C   UNL     1      -6.884  -3.174  -4.589  1.00  0.00     0.010 C 
BRANCH  62  63
ATOM     63  C   UNL     1      -8.354  -2.735  -4.551  1.00  0.00     0.000 C 
BRANCH  63  64
ATOM     64  C   UNL     1      -8.573  -1.255  -4.860  1.00  0.00    -0.003 C 
ATOM     65  C   UNL     1      -9.875  -0.748  -4.255  1.00  0.00     0.004 C 
ENDBRANCH  63  64
ENDBRANCH  62  63
ENDBRANCH  61  62
ENDBRANCH  58  61
ENDBRANCH  56  57
BRANCH  56  66
ATOM     66  C   UNL     1      -3.100  -7.761  -3.496  1.00  0.00     0.157 C 
BRANCH  66  67
ATOM     67  C   UNL     1      -2.916  -7.277  -4.906  1.00  0.00     0.305 C 
ATOM     68  O   UNL     1      -2.289  -6.294  -5.267  1.00  0.00    -0.252 OA
BRANCH  67  69
ATOM     69  O   UNL     1      -3.495  -8.094  -5.807  1.00  0.00    -0.481 OA
ATOM     70  H   UNL     1      -2.747  -8.537  -6.260  1.00  0.00     0.296 HD
ENDBRANCH  67  69
ENDBRANCH  66  67
ENDBRANCH  56  66
ENDBRANCH  53  56
ENDBRANCH  50  52
ENDBRANCH  47  50
ENDBRANCH  45  46
BRANCH  45  71
ATOM     71  C   UNL     1      -9.278  -5.189   1.756  1.00  0.00     0.037 C 
BRANCH  71  72
ATOM     72  C   UNL     1     -10.108  -4.003   2.253  1.00  0.00     0.026 C 
BRANCH  72  73
ATOM     73  C   UNL     1      -9.346  -3.182   3.290  1.00  0.00     0.146 C 
BRANCH  73  74
ATOM     74  N   UNL     1     -10.243  -2.142   3.784  1.00  0.00    -0.254 NA
ATOM     75  C   UNL     1      -9.784  -1.316   4.651  1.00  0.00     0.185 C 
ATOM     76  N   UNL     1     -10.586  -0.347   5.123  1.00  0.00    -0.370 N 
ATOM     77  N   UNL     1      -8.557  -1.259   5.196  1.00  0.00    -0.370 N 
ATOM     78  H   UNL     1     -11.531  -0.323   4.769  1.00  0.00     0.159 HD
ATOM     79  H   UNL     1     -10.345   0.240   5.902  1.00  0.00     0.159 HD
ATOM     80  H   UNL     1      -7.846  -1.924   4.932  1.00  0.00     0.159 HD
ATOM     81  H   UNL     1      -8.275  -0.492   5.784  1.00  0.00     0.159 HD
ENDBRANCH  73  74
ENDBRANCH  72  73
ENDBRANCH  71  72
ENDBRANCH  45  71
ENDBRANCH   3  45
TORSDOF 20
ENDMDL
MODEL 49
REMARK VINA RESULT:    -5.605      6.001     12.465
REMARK INTER + INTRA:         -22.168
REMARK INTER:                 -15.414
REMARK INTRA:                  -6.754
REMARK UNBOUND:                -6.078
REMARK SMILES CCCCCC(=O)N[C@H](CC(=O)O)C(=O)N[C@H]1C(=O)N[C@H](CCCN=C(N)N)C(=O)N[C@@H]2CC[C@H](O)N(C2=O)[C@@H](CC(C)C)C(=O)N(C)[C@@H](Cc2ccccc2)C(=O)N[C@H](C(C)C)C(=O)O[C@@H]1C
REMARK SMILES IDX 30 1 31 2 29 3 32 5 35 6 37 7 34 8 38 9 33 10 39 11 36 12
REMARK SMILES IDX 40 14 41 15 42 16 43 17 44 18 45 19 46 20 47 21 48 22 49 23
REMARK SMILES IDX 50 24 51 25 52 26 56 27 53 28 55 29 54 30 57 31 58 32 59 33
REMARK SMILES IDX 60 35 61 36 62 37 63 38 64 39 65 40 66 41 67 42 68 43 21 45
REMARK SMILES IDX 20 46 18 47 19 48 17 50 16 52 14 53 15 54 9 56 8 57 6 58
REMARK SMILES IDX 7 59 5 61 4 62 3 63 2 64 1 65 10 66 11 67 12 68 13 69 22 71
REMARK SMILES IDX 23 72 24 73 25 74 26 75 27 76 28 77
REMARK H PARENT 31 4 36 13 59 34 20 49 16 55 8 60 13 70 27 78 27 79 28 80
REMARK H PARENT 28 81
REMARK Flexibility Score:  259.900
ROOT
ATOM      1  O   UNL     1      -6.517  -3.515   4.050  1.00  0.00    -0.273 OA
ATOM      2  N   UNL     1      -8.520  -3.607   2.951  1.00  0.00    -0.343 N 
ATOM      3  C   UNL     1      -7.252  -4.067   3.231  1.00  0.00     0.243 C 
ATOM      4  H   UNL     1      -9.102  -4.095   2.282  1.00  0.00     0.164 HD
ENDROOT
BRANCH   2   5
ATOM      5  C   UNL     1      -9.004  -2.361   3.536  1.00  0.00     0.171 C 
ATOM      6  C   UNL     1     -11.621  -1.116   3.620  1.00  0.00     0.214 C 
ATOM      7  N   UNL     1     -10.719  -0.801   2.537  1.00  0.00    -0.303 N 
ATOM      8  C   UNL     1     -10.907  -1.467   4.916  1.00  0.00     0.057 C 
ATOM      9  C   UNL     1      -9.475  -1.397   2.409  1.00  0.00     0.247 C 
ATOM     10  C   UNL     1      -9.972  -2.634   4.686  1.00  0.00     0.040 C 
ATOM     11  O   UNL     1      -8.744  -1.187   1.432  1.00  0.00    -0.272 OA
BRANCH   6  12
ATOM     12  O   UNL     1     -12.437  -2.187   3.202  1.00  0.00    -0.373 OA
ATOM     13  H   UNL     1     -12.819  -1.935   2.335  1.00  0.00     0.213 HD
ENDBRANCH   6  12
BRANCH   7  14
ATOM     14  C   UNL     1     -11.234   0.086   1.472  1.00  0.00     0.177 C 
BRANCH  14  15
ATOM     15  C   UNL     1     -11.893  -0.634   0.280  1.00  0.00     0.038 C 
BRANCH  15  16
ATOM     16  C   UNL     1     -11.642  -0.118  -1.154  1.00  0.00    -0.015 C 
ATOM     17  C   UNL     1     -12.775  -0.490  -2.115  1.00  0.00     0.007 C 
ATOM     18  C   UNL     1     -10.336  -0.712  -1.698  1.00  0.00     0.007 C 
ENDBRANCH  15  16
ENDBRANCH  14  15
BRANCH  14  19
ATOM     19  C   UNL     1     -11.708   1.450   2.083  1.00  0.00     0.245 C 
ATOM     20  O   UNL     1     -12.921   1.707   2.004  1.00  0.00    -0.272 OA
BRANCH  19  21
ATOM     21  N   UNL     1     -10.848   2.408   2.591  1.00  0.00    -0.332 N 
ATOM     22  C   UNL     1     -10.323   2.436   3.945  1.00  0.00     0.147 C 
BRANCH  21  23
ATOM     23  C   UNL     1     -10.426   3.514   1.688  1.00  0.00     0.178 C 
BRANCH  23  24
ATOM     24  C   UNL     1     -10.492   3.179   0.183  1.00  0.00     0.070 C 
BRANCH  24  25
ATOM     25  C   UNL     1      -9.228   2.662  -0.462  1.00  0.00    -0.045 A 
ATOM     26  C   UNL     1      -8.350   1.830   0.244  1.00  0.00     0.004 A 
ATOM     27  C   UNL     1      -8.913   3.014  -1.784  1.00  0.00     0.004 A 
ATOM     28  C   UNL     1      -7.175   1.370  -0.355  1.00  0.00     0.000 A 
ATOM     29  C   UNL     1      -7.739   2.553  -2.381  1.00  0.00     0.000 A 
ATOM     30  C   UNL     1      -6.869   1.733  -1.664  1.00  0.00     0.000 A 
ENDBRANCH  24  25
ENDBRANCH  23  24
BRANCH  23  31
ATOM     31  C   UNL     1     -11.039   4.880   2.079  1.00  0.00     0.243 C 
ATOM     32  O   UNL     1     -10.428   5.759   2.682  1.00  0.00    -0.273 OA
ATOM     33  N   UNL     1     -12.403   4.959   1.854  1.00  0.00    -0.341 N 
ATOM     34  H   UNL     1     -12.857   4.192   1.352  1.00  0.00     0.164 HD
BRANCH  33  35
ATOM     35  C   UNL     1     -13.213   6.112   2.256  1.00  0.00     0.194 C 
BRANCH  35  36
ATOM     36  C   UNL     1     -14.117   5.851   3.494  1.00  0.00     0.017 C 
ATOM     37  C   UNL     1     -14.212   7.099   4.390  1.00  0.00     0.010 C 
ATOM     38  C   UNL     1     -13.622   4.694   4.370  1.00  0.00     0.010 C 
ENDBRANCH  35  36
BRANCH  35  39
ATOM     39  C   UNL     1     -14.013   6.723   1.072  1.00  0.00     0.329 C 
ATOM     40  O   UNL     1     -14.769   6.082   0.351  1.00  0.00    -0.250 OA
BRANCH  39  41
ATOM     41  O   UNL     1     -13.847   8.077   0.976  1.00  0.00    -0.458 OA
BRANCH  41  42
ATOM     42  C   UNL     1     -14.167   8.673  -0.304  1.00  0.00     0.205 CG0
ATOM     43  C   UNL     1     -12.869   9.237  -0.879  1.00  0.00     0.056 C 
ATOM     44  G   UNL     1     -15.238   9.760  -0.086  1.00  0.00     0.000 G0
ENDBRANCH  41  42
ENDBRANCH  39  41
ENDBRANCH  35  39
ENDBRANCH  33  35
ENDBRANCH  23  31
ENDBRANCH  21  23
ENDBRANCH  19  21
ENDBRANCH  14  19
ENDBRANCH   7  14
ENDBRANCH   2   5
BRANCH   3  45
ATOM     45  C   UNL     1      -6.827  -5.328   2.467  1.00  0.00     0.171 C 
BRANCH  45  46
ATOM     46  N   UNL     1      -6.795  -6.397   3.457  1.00  0.00    -0.342 N 
ATOM     47  C   UNL     1      -7.597  -7.507   3.367  1.00  0.00     0.247 C 
ATOM     48  O   UNL     1      -8.345  -7.716   2.412  1.00  0.00    -0.273 OA
ATOM     49  H   UNL     1      -6.149  -6.290   4.236  1.00  0.00     0.164 HD
BRANCH  47  50
ATOM     50  C   UNL     1      -7.517  -8.465   4.565  1.00  0.00     0.212 CG0
ATOM     51  G   UNL     1      -6.075  -9.006   4.634  1.00  0.00     0.000 G0
BRANCH  50  52
ATOM     52  N   UNL     1      -7.889  -7.665   5.729  1.00  0.00    -0.339 N 
ATOM     53  C   UNL     1      -9.187  -7.500   6.148  1.00  0.00     0.243 C 
ATOM     54  O   UNL     1     -10.144  -7.972   5.540  1.00  0.00    -0.273 OA
ATOM     55  H   UNL     1      -7.150  -7.157   6.210  1.00  0.00     0.164 HD
BRANCH  53  56
ATOM     56  C   UNL     1      -9.342  -6.543   7.347  1.00  0.00     0.182 C 
BRANCH  56  57
ATOM     57  N   UNL     1     -10.261  -5.446   7.030  1.00  0.00    -0.344 N 
ATOM     58  C   UNL     1     -11.607  -5.513   7.295  1.00  0.00     0.220 C 
ATOM     59  O   UNL     1     -12.145  -6.519   7.745  1.00  0.00    -0.275 OA
ATOM     60  H   UNL     1      -9.844  -4.562   6.752  1.00  0.00     0.164 HD
BRANCH  58  61
ATOM     61  C   UNL     1     -12.355  -4.242   6.938  1.00  0.00     0.100 C 
BRANCH  61  62
ATOM     62  C   UNL     1     -13.593  -3.992   7.799  1.00  0.00     0.010 C 
BRANCH  62  63
ATOM     63  C   UNL     1     -13.300  -3.883   9.301  1.00  0.00     0.000 C 
BRANCH  63  64
ATOM     64  C   UNL     1     -14.154  -4.801  10.174  1.00  0.00    -0.003 C 
ATOM     65  C   UNL     1     -15.356  -4.064  10.746  1.00  0.00     0.004 C 
ENDBRANCH  63  64
ENDBRANCH  62  63
ENDBRANCH  61  62
ENDBRANCH  58  61
ENDBRANCH  56  57
BRANCH  56  66
ATOM     66  C   UNL     1      -7.987  -6.037   7.839  1.00  0.00     0.157 C 
BRANCH  66  67
ATOM     67  C   UNL     1      -7.962  -4.538   7.915  1.00  0.00     0.305 C 
ATOM     68  O   UNL     1      -8.281  -3.847   8.871  1.00  0.00    -0.252 OA
BRANCH  67  69
ATOM     69  O   UNL     1      -7.482  -3.976   6.789  1.00  0.00    -0.481 OA
ATOM     70  H   UNL     1      -6.856  -4.637   6.426  1.00  0.00     0.296 HD
ENDBRANCH  67  69
ENDBRANCH  66  67
ENDBRANCH  56  66
ENDBRANCH  53  56
ENDBRANCH  50  52
ENDBRANCH  47  50
ENDBRANCH  45  46
BRANCH  45  71
ATOM     71  C   UNL     1      -5.455  -5.121   1.815  1.00  0.00     0.037 C 
BRANCH  71  72
ATOM     72  C   UNL     1      -5.223  -6.080   0.645  1.00  0.00     0.026 C 
BRANCH  72  73
ATOM     73  C   UNL     1      -5.449  -5.389  -0.699  1.00  0.00     0.146 C 
BRANCH  73  74
ATOM     74  N   UNL     1      -5.403  -3.948  -0.474  1.00  0.00    -0.254 NA
ATOM     75  C   UNL     1      -5.774  -3.180  -1.431  1.00  0.00     0.185 C 
ATOM     76  N   UNL     1      -5.744  -1.849  -1.254  1.00  0.00    -0.370 N 
ATOM     77  N   UNL     1      -6.217  -3.511  -2.657  1.00  0.00    -0.370 N 
ATOM     78  H   UNL     1      -5.415  -1.514  -0.360  1.00  0.00     0.159 HD
ATOM     79  H   UNL     1      -5.880  -1.188  -1.999  1.00  0.00     0.159 HD
ATOM     80  H   UNL     1      -6.297  -4.479  -2.930  1.00  0.00     0.159 HD
ATOM     81  H   UNL     1      -6.592  -2.822  -3.287  1.00  0.00     0.159 HD
ENDBRANCH  73  74
ENDBRANCH  72  73
ENDBRANCH  71  72
ENDBRANCH  45  71
ENDBRANCH   3  45
TORSDOF 20
ENDMDL
MODEL 50
REMARK VINA RESULT:    -5.584      8.725     15.159
REMARK INTER + INTRA:         -22.108
REMARK INTER:                 -15.996
REMARK INTRA:                  -6.112
REMARK UNBOUND:                -6.078
REMARK SMILES CCCCCC(=O)N[C@H](CC(=O)O)C(=O)N[C@H]1C(=O)N[C@H](CCCN=C(N)N)C(=O)N[C@@H]2CC[C@H](O)N(C2=O)[C@@H](CC(C)C)C(=O)N(C)[C@@H](Cc2ccccc2)C(=O)N[C@H](C(C)C)C(=O)O[C@@H]1C
REMARK SMILES IDX 30 1 31 2 29 3 32 5 35 6 37 7 34 8 38 9 33 10 39 11 36 12
REMARK SMILES IDX 40 14 41 15 42 16 43 17 44 18 45 19 46 20 47 21 48 22 49 23
REMARK SMILES IDX 50 24 51 25 52 26 56 27 53 28 55 29 54 30 57 31 58 32 59 33
REMARK SMILES IDX 60 35 61 36 62 37 63 38 64 39 65 40 66 41 67 42 68 43 21 45
REMARK SMILES IDX 20 46 18 47 19 48 17 50 16 52 14 53 15 54 9 56 8 57 6 58
REMARK SMILES IDX 7 59 5 61 4 62 3 63 2 64 1 65 10 66 11 67 12 68 13 69 22 71
REMARK SMILES IDX 23 72 24 73 25 74 26 75 27 76 28 77
REMARK H PARENT 31 4 36 13 59 34 20 49 16 55 8 60 13 70 27 78 27 79 28 80
REMARK H PARENT 28 81
REMARK Flexibility Score:  259.900
ROOT
ATOM      1  O   UNL     1      -5.897  -0.889  -4.387  1.00  0.00    -0.273 OA
ATOM      2  N   UNL     1      -7.312  -0.225  -6.056  1.00  0.00    -0.343 N 
ATOM      3  C   UNL     1      -6.266  -0.971  -5.559  1.00  0.00     0.243 C 
ATOM      4  H   UNL     1      -7.598  -0.330  -7.022  1.00  0.00     0.164 HD
ENDROOT
BRANCH   2   5
ATOM      5  C   UNL     1      -7.956   0.792  -5.232  1.00  0.00     0.171 C 
ATOM      6  C   UNL     1     -10.177   2.593  -5.713  1.00  0.00     0.214 C 
ATOM      7  N   UNL     1      -8.833   3.025  -6.018  1.00  0.00    -0.303 N 
ATOM      8  C   UNL     1     -10.243   1.598  -4.566  1.00  0.00     0.057 C 
ATOM      9  C   UNL     1      -7.733   2.198  -5.860  1.00  0.00     0.247 C 
ATOM     10  C   UNL     1      -9.389   0.390  -4.884  1.00  0.00     0.040 C 
ATOM     11  O   UNL     1      -6.596   2.546  -6.204  1.00  0.00    -0.272 OA
BRANCH   6  12
ATOM     12  O   UNL     1     -10.724   2.032  -6.884  1.00  0.00    -0.373 OA
ATOM     13  H   UNL     1     -11.397   2.663  -7.218  1.00  0.00     0.213 HD
ENDBRANCH   6  12
BRANCH   7  14
ATOM     14  C   UNL     1      -8.683   4.353  -6.651  1.00  0.00     0.177 C 
BRANCH  14  15
ATOM     15  C   UNL     1      -7.560   5.234  -6.071  1.00  0.00     0.038 C 
BRANCH  15  16
ATOM     16  C   UNL     1      -6.715   6.112  -7.021  1.00  0.00    -0.015 C 
ATOM     17  C   UNL     1      -5.233   5.727  -7.009  1.00  0.00     0.007 C 
ATOM     18  C   UNL     1      -6.832   7.584  -6.606  1.00  0.00     0.007 C 
ENDBRANCH  15  16
ENDBRANCH  14  15
BRANCH  14  19
ATOM     19  C   UNL     1      -9.092   4.282  -8.163  1.00  0.00     0.245 C 
ATOM     20  O   UNL     1      -8.474   3.471  -8.872  1.00  0.00    -0.272 OA
BRANCH  19  21
ATOM     21  N   UNL     1     -10.004   5.137  -8.756  1.00  0.00    -0.332 N 
ATOM     22  C   UNL     1     -11.277   4.743  -9.333  1.00  0.00     0.147 C 
BRANCH  21  23
ATOM     23  C   UNL     1      -9.659   6.584  -8.824  1.00  0.00     0.178 C 
BRANCH  23  24
ATOM     24  C   UNL     1      -9.127   7.058 -10.192  1.00  0.00     0.070 C 
BRANCH  24  25
ATOM     25  C   UNL     1      -7.812   7.801 -10.200  1.00  0.00    -0.045 A 
ATOM     26  C   UNL     1      -7.754   9.160  -9.864  1.00  0.00     0.004 A 
ATOM     27  C   UNL     1      -6.626   7.138 -10.551  1.00  0.00     0.004 A 
ATOM     28  C   UNL     1      -6.537   9.844  -9.890  1.00  0.00     0.000 A 
ATOM     29  C   UNL     1      -5.411   7.823 -10.575  1.00  0.00     0.000 A 
ATOM     30  C   UNL     1      -5.367   9.176 -10.247  1.00  0.00     0.000 A 
ENDBRANCH  24  25
ENDBRANCH  23  24
BRANCH  23  31
ATOM     31  C   UNL     1     -10.742   7.493  -8.196  1.00  0.00     0.243 C 
ATOM     32  O   UNL     1     -11.195   7.341  -7.065  1.00  0.00    -0.273 OA
ATOM     33  N   UNL     1     -11.298   8.391  -9.092  1.00  0.00    -0.341 N 
ATOM     34  H   UNL     1     -10.882   8.468 -10.023  1.00  0.00     0.164 HD
BRANCH  33  35
ATOM     35  C   UNL     1     -12.422   9.268  -8.751  1.00  0.00     0.194 C 
BRANCH  35  36
ATOM     36  C   UNL     1     -13.736   8.943  -9.515  1.00  0.00     0.017 C 
ATOM     37  C   UNL     1     -14.912   9.782  -8.986  1.00  0.00     0.010 C 
ATOM     38  C   UNL     1     -14.144   7.468  -9.415  1.00  0.00     0.010 C 
ENDBRANCH  35  36
BRANCH  35  39
ATOM     39  C   UNL     1     -12.053  10.775  -8.846  1.00  0.00     0.329 C 
ATOM     40  O   UNL     1     -11.794  11.354  -9.894  1.00  0.00    -0.250 OA
BRANCH  39  41
ATOM     41  O   UNL     1     -12.135  11.408  -7.636  1.00  0.00    -0.458 OA
BRANCH  41  42
ATOM     42  C   UNL     1     -12.794  12.696  -7.629  1.00  0.00     0.205 CG0
ATOM     43  C   UNL     1     -11.744  13.741  -7.256  1.00  0.00     0.056 C 
ATOM     44  G   UNL     1     -13.961  12.647  -6.623  1.00  0.00     0.000 G0
ENDBRANCH  41  42
ENDBRANCH  39  41
ENDBRANCH  35  39
ENDBRANCH  33  35
ENDBRANCH  23  31
ENDBRANCH  21  23
ENDBRANCH  19  21
ENDBRANCH  14  19
ENDBRANCH   7  14
ENDBRANCH   2   5
BRANCH   3  45
ATOM     45  C   UNL     1      -5.606  -1.928  -6.561  1.00  0.00     0.171 C 
BRANCH  45  46
ATOM     46  N   UNL     1      -5.067  -3.022  -5.765  1.00  0.00    -0.342 N 
ATOM     47  C   UNL     1      -5.560  -4.300  -5.840  1.00  0.00     0.247 C 
ATOM     48  O   UNL     1      -6.441  -4.631  -6.635  1.00  0.00    -0.273 OA
ATOM     49  H   UNL     1      -4.298  -2.804  -5.134  1.00  0.00     0.164 HD
BRANCH  47  50
ATOM     50  C   UNL     1      -4.952  -5.292  -4.838  1.00  0.00     0.212 CG0
ATOM     51  G   UNL     1      -3.447  -5.409  -5.151  1.00  0.00     0.000 G0
BRANCH  50  52
ATOM     52  N   UNL     1      -5.226  -4.729  -3.519  1.00  0.00    -0.339 N 
ATOM     53  C   UNL     1      -6.295  -5.106  -2.743  1.00  0.00     0.243 C 
ATOM     54  O   UNL     1      -7.138  -5.913  -3.125  1.00  0.00    -0.273 OA
ATOM     55  H   UNL     1      -4.625  -3.975  -3.193  1.00  0.00     0.164 HD
BRANCH  53  56
ATOM     56  C   UNL     1      -6.426  -4.312  -1.427  1.00  0.00     0.182 C 
BRANCH  56  57
ATOM     57  N   UNL     1      -6.947  -2.964  -1.676  1.00  0.00    -0.344 N 
ATOM     58  C   UNL     1      -8.281  -2.658  -1.567  1.00  0.00     0.220 C 
ATOM     59  O   UNL     1      -9.138  -3.502  -1.327  1.00  0.00    -0.275 OA
ATOM     60  H   UNL     1      -6.263  -2.218  -1.776  1.00  0.00     0.164 HD
BRANCH  58  61
ATOM     61  C   UNL     1      -8.584  -1.191  -1.811  1.00  0.00     0.100 C 
BRANCH  61  62
ATOM     62  C   UNL     1      -7.437  -0.254  -1.433  1.00  0.00     0.010 C 
BRANCH  62  63
ATOM     63  C   UNL     1      -7.794   1.236  -1.506  1.00  0.00     0.000 C 
BRANCH  63  64
ATOM     64  C   UNL     1      -9.179   1.577  -0.956  1.00  0.00    -0.003 C 
ATOM     65  C   UNL     1      -9.096   2.105   0.468  1.00  0.00     0.004 C 
ENDBRANCH  63  64
ENDBRANCH  62  63
ENDBRANCH  61  62
ENDBRANCH  58  61
ENDBRANCH  56  57
BRANCH  56  66
ATOM     66  C   UNL     1      -5.110  -4.289  -0.653  1.00  0.00     0.157 C 
BRANCH  66  67
ATOM     67  C   UNL     1      -5.350  -4.252   0.828  1.00  0.00     0.305 C 
ATOM     68  O   UNL     1      -4.623  -4.702   1.700  1.00  0.00    -0.252 OA
BRANCH  67  69
ATOM     69  O   UNL     1      -6.483  -3.596   1.147  1.00  0.00    -0.481 OA
ATOM     70  H   UNL     1      -6.939  -3.454   0.290  1.00  0.00     0.296 HD
ENDBRANCH  67  69
ENDBRANCH  66  67
ENDBRANCH  56  66
ENDBRANCH  53  56
ENDBRANCH  50  52
ENDBRANCH  47  50
ENDBRANCH  45  46
BRANCH  45  71
ATOM     71  C   UNL     1      -4.506  -1.203  -7.346  1.00  0.00     0.037 C 
BRANCH  71  72
ATOM     72  C   UNL     1      -4.033  -2.014  -8.555  1.00  0.00     0.026 C 
BRANCH  72  73
ATOM     73  C   UNL     1      -5.210  -2.559  -9.360  1.00  0.00     0.146 C 
BRANCH  73  74
ATOM     74  N   UNL     1      -4.898  -3.935  -9.733  1.00  0.00    -0.254 NA
ATOM     75  C   UNL     1      -5.626  -4.493 -10.628  1.00  0.00     0.185 C 
ATOM     76  N   UNL     1      -5.362  -5.758 -10.993  1.00  0.00    -0.370 N 
ATOM     77  N   UNL     1      -6.673  -3.987 -11.302  1.00  0.00    -0.370 N 
ATOM     78  H   UNL     1      -4.592  -6.218 -10.528  1.00  0.00     0.159 HD
ATOM     79  H   UNL     1      -5.972  -6.305 -11.576  1.00  0.00     0.159 HD
ATOM     80  H   UNL     1      -6.983  -3.042 -11.134  1.00  0.00     0.159 HD
ATOM     81  H   UNL     1      -7.097  -4.482 -12.069  1.00  0.00     0.159 HD
ENDBRANCH  73  74
ENDBRANCH  72  73
ENDBRANCH  71  72
ENDBRANCH  45  71
ENDBRANCH   3  45
TORSDOF 20
ENDMDL
