MODEL 1
REMARK VINA RESULT:    -6.892      0.000      0.000
REMARK INTER + INTRA:         -26.740
REMARK INTER:                 -20.590
REMARK INTRA:                  -6.151
REMARK UNBOUND:                -6.151
REMARK SMILES C=C1C(=O)N[C@H](C)C(=O)N[C@@H](CC(C)C)C(=O)N[C@@H](C(=O)O)[C@H](C)C(=O)N[C@@H](CCCN=C(N)N)C(=O)N[C@@H](/C=C/C(C)=C/[C@H](C)[C@H](Cc2ccccc2)OC)[C@H](C)C(=O)N[C@@H](C(=O)O)CCC(=O)N1C
REMARK SMILES IDX 39 1 38 2 37 3 36 4 28 6 27 7 25 8 26 9 23 11 24 12 19 13
REMARK SMILES IDX 18 14 16 15 17 16 11 18 10 19 8 20 9 21 12 24 13 25 14 26
REMARK SMILES IDX 15 27 20 28 21 29 22 30 29 32 30 33 31 34 32 35 33 36 34 37
REMARK SMILES IDX 35 38 57 43 58 44 59 45 60 46 61 47 62 49 66 50 67 51 68 52
REMARK SMILES IDX 69 53 70 54 71 55 2 56 1 57 3 58 4 59 5 60 6 62 7 63 63 65
REMARK SMILES IDX 64 66 65 67 40 69 41 70 42 71 44 72 43 73 45 74 46 75 47 76
REMARK SMILES IDX 55 77 56 78 48 79 49 80 50 81 54 82 51 83 53 84 52 85
REMARK H PARENT 38 5 27 10 18 17 10 22 22 31 34 39 34 40 35 41 35 42 61 48
REMARK H PARENT 5 61 65 68
REMARK Flexibility Score:  369.900
ROOT
ATOM      1  C   UNL     1       1.987   2.495  -1.035  1.00  0.00     0.117 C 
ENDROOT
BRANCH   1   2
ATOM      2  N   UNL     1       0.806   3.043  -1.703  1.00  0.00    -0.347 N 
ATOM      3  O   UNL     1      -0.216   1.053  -2.214  1.00  0.00    -0.273 OA
ATOM      4  C   UNL     1      -0.249   2.278  -2.160  1.00  0.00     0.243 C 
ATOM      5  H   UNL     1       0.714   4.043  -1.803  1.00  0.00     0.164 HD
BRANCH   4   6
ATOM      6  C   UNL     1      -1.414   3.111  -2.751  1.00  0.00     0.171 C 
BRANCH   6   7
ATOM      7  N   UNL     1      -2.053   2.388  -3.862  1.00  0.00    -0.344 N 
ATOM      8  C   UNL     1      -1.540   2.467  -5.139  1.00  0.00     0.226 C 
ATOM      9  O   UNL     1      -0.559   3.148  -5.415  1.00  0.00    -0.275 OA
ATOM     10  H   UNL     1      -2.904   1.869  -3.686  1.00  0.00     0.164 HD
BRANCH   8  11
ATOM     11  C   UNL     1      -2.277   1.621  -6.163  1.00  0.00     0.109 C 
ATOM     12  C   UNL     1      -3.166   0.598  -5.457  1.00  0.00     0.021 C 
BRANCH  11  13
ATOM     13  C   UNL     1      -3.010   2.536  -7.164  1.00  0.00     0.204 C 
BRANCH  13  14
ATOM     14  N   UNL     1      -4.267   1.946  -7.633  1.00  0.00    -0.340 N 
ATOM     15  C   UNL     1      -4.509   1.655  -8.958  1.00  0.00     0.243 C 
ATOM     16  O   UNL     1      -3.662   1.814  -9.834  1.00  0.00    -0.273 OA
ATOM     17  H   UNL     1      -5.061   1.930  -6.986  1.00  0.00     0.164 HD
BRANCH  15  18
ATOM     18  C   UNL     1      -5.973   1.236  -9.242  1.00  0.00     0.171 C 
BRANCH  18  19
ATOM     19  N   UNL     1      -5.924   0.251 -10.320  1.00  0.00    -0.343 N 
ATOM     20  C   UNL     1      -6.434   0.520 -11.576  1.00  0.00     0.242 CG0
ATOM     21  O   UNL     1      -7.069   1.546 -11.807  1.00  0.00    -0.273 OA
ATOM     22  H   UNL     1      -5.512  -0.659 -10.146  1.00  0.00     0.164 HD
ATOM     23  G   UNL     1      -6.221  -0.610 -12.605  1.00  0.00     0.000 G0
ENDBRANCH  18  19
BRANCH  18  24
ATOM     24  C   UNL     1      -6.624   0.656  -7.980  1.00  0.00     0.038 C 
BRANCH  24  25
ATOM     25  C   UNL     1      -7.964   1.314  -7.586  1.00  0.00    -0.015 C 
ATOM     26  C   UNL     1      -9.076   1.028  -8.596  1.00  0.00     0.007 C 
ATOM     27  C   UNL     1      -7.772   2.826  -7.445  1.00  0.00     0.007 C 
ENDBRANCH  24  25
ENDBRANCH  18  24
ENDBRANCH  15  18
ENDBRANCH  13  14
BRANCH  13  28
ATOM     28  C   UNL     1      -3.343   3.916  -6.589  1.00  0.00     0.327 C 
ATOM     29  O   UNL     1      -4.080   4.146  -5.642  1.00  0.00    -0.250 OA
BRANCH  28  30
ATOM     30  O   UNL     1      -2.824   4.930  -7.312  1.00  0.00    -0.480 OA
ATOM     31  H   UNL     1      -3.290   4.875  -8.172  1.00  0.00     0.296 HD
ENDBRANCH  28  30
ENDBRANCH  13  28
ENDBRANCH  11  13
ENDBRANCH   8  11
ENDBRANCH   6   7
BRANCH   6  32
ATOM     32  C   UNL     1      -2.428   3.416  -1.642  1.00  0.00     0.037 C 
BRANCH  32  33
ATOM     33  C   UNL     1      -3.742   3.983  -2.199  1.00  0.00     0.026 C 
BRANCH  33  34
ATOM     34  C   UNL     1      -4.873   3.954  -1.170  1.00  0.00     0.146 C 
BRANCH  34  35
ATOM     35  N   UNL     1      -4.438   3.184  -0.014  1.00  0.00    -0.254 NA
ATOM     36  C   UNL     1      -5.310   2.514   0.642  1.00  0.00     0.185 C 
ATOM     37  N   UNL     1      -4.919   1.797   1.707  1.00  0.00    -0.370 N 
ATOM     38  N   UNL     1      -6.633   2.407   0.423  1.00  0.00    -0.370 N 
ATOM     39  H   UNL     1      -3.932   1.818   1.931  1.00  0.00     0.159 HD
ATOM     40  H   UNL     1      -5.501   1.115   2.163  1.00  0.00     0.159 HD
ATOM     41  H   UNL     1      -7.237   1.961   1.093  1.00  0.00     0.159 HD
ATOM     42  H   UNL     1      -7.069   2.907  -0.336  1.00  0.00     0.159 HD
ENDBRANCH  34  35
ENDBRANCH  33  34
ENDBRANCH  32  33
ENDBRANCH   6  32
ENDBRANCH   4   6
ENDBRANCH   1   2
BRANCH   1  43
ATOM     43  C   UNL     1       2.030   3.040   0.421  1.00  0.00     0.102 C 
ATOM     44  C   UNL     1       3.268   2.582   1.210  1.00  0.00     0.020 C 
BRANCH  43  45
ATOM     45  C   UNL     1       0.704   2.785   1.143  1.00  0.00     0.225 C 
ATOM     46  O   UNL     1      -0.224   3.589   1.148  1.00  0.00    -0.275 OA
ATOM     47  N   UNL     1       0.643   1.623   1.878  1.00  0.00    -0.342 N 
ATOM     48  H   UNL     1       1.345   0.909   1.743  1.00  0.00     0.164 HD
BRANCH  47  49
ATOM     49  C   UNL     1      -0.575   1.230   2.592  1.00  0.00     0.192 C 
BRANCH  49  50
ATOM     50  C   UNL     1      -0.213   0.742   3.997  1.00  0.00     0.047 C 
BRANCH  50  51
ATOM     51  C   UNL     1      -1.068   1.408   5.083  1.00  0.00     0.103 C 
BRANCH  51  52
ATOM     52  C   UNL     1      -0.262   2.400   5.919  1.00  0.00     0.226 C 
ATOM     53  O   UNL     1       0.048   2.112   7.077  1.00  0.00    -0.275 OA
BRANCH  52  54
ATOM     54  N   UNL     1       0.149   3.579   5.269  1.00  0.00    -0.311 N 
ATOM     55  C   UNL     1      -0.817   4.427   4.559  1.00  0.00     0.153 C 
BRANCH  54  56
ATOM     56  C   UNL     1       1.492   3.991   5.280  1.00  0.00     0.102 C 
ATOM     57  C   UNL     1       2.523   3.264   4.819  1.00  0.00     0.043 C 
BRANCH  56  58
ATOM     58  C   UNL     1       1.879   5.358   5.793  1.00  0.00     0.268 C 
ATOM     59  O   UNL     1       1.103   6.095   6.386  1.00  0.00    -0.268 OA
ATOM     60  N   UNL     1       3.204   5.659   5.583  1.00  0.00    -0.339 N 
ATOM     61  H   UNL     1       3.779   4.998   5.074  1.00  0.00     0.164 HD
BRANCH  60  62
ATOM     62  C   UNL     1       3.804   6.905   6.056  1.00  0.00     0.168 CG0
ATOM     63  C   UNL     1       3.943   6.905   7.574  1.00  0.00     0.041 C 
ATOM     64  G   UNL     1       2.950   8.101   5.586  1.00  0.00     0.000 G0
ENDBRANCH  60  62
ENDBRANCH  56  58
ENDBRANCH  54  56
ENDBRANCH  52  54
ENDBRANCH  51  52
ENDBRANCH  50  51
ENDBRANCH  49  50
BRANCH  49  65
ATOM     65  C   UNL     1      -1.336   0.121   1.848  1.00  0.00     0.326 C 
ATOM     66  O   UNL     1      -2.457   0.226   1.371  1.00  0.00    -0.250 OA
BRANCH  65  67
ATOM     67  O   UNL     1      -0.691  -1.065   1.792  1.00  0.00    -0.480 OA
ATOM     68  H   UNL     1       0.258  -0.814   1.817  1.00  0.00     0.296 HD
ENDBRANCH  65  67
ENDBRANCH  49  65
ENDBRANCH  47  49
ENDBRANCH  43  45
ENDBRANCH   1  43
BRANCH   1  69
ATOM     69  C   UNL     1       3.161   2.771  -1.957  1.00  0.00    -0.001 C 
ATOM     70  C   UNL     1       3.846   3.922  -2.086  1.00  0.00     0.001 C 
BRANCH  70  71
ATOM     71  C   UNL     1       4.991   4.170  -2.963  1.00  0.00    -0.055 C 
ATOM     72  C   UNL     1       4.741   4.621  -4.211  1.00  0.00    -0.018 C 
ATOM     73  C   UNL     1       6.369   3.912  -2.410  1.00  0.00     0.044 C 
BRANCH  72  74
ATOM     74  C   UNL     1       5.719   4.964  -5.325  1.00  0.00     0.038 C 
ATOM     75  C   UNL     1       5.110   6.126  -6.119  1.00  0.00     0.015 C 
BRANCH  74  76
ATOM     76  C   UNL     1       5.999   3.679  -6.159  1.00  0.00     0.128 C 
BRANCH  76  77
ATOM     77  O   UNL     1       7.285   3.139  -5.811  1.00  0.00    -0.381 OA
ATOM     78  C   UNL     1       8.287   4.129  -5.619  1.00  0.00     0.195 C 
ENDBRANCH  76  77
BRANCH  76  79
ATOM     79  C   UNL     1       4.866   2.624  -6.089  1.00  0.00     0.068 C 
BRANCH  79  80
ATOM     80  C   UNL     1       5.243   1.206  -5.735  1.00  0.00    -0.045 A 
ATOM     81  C   UNL     1       5.317   0.791  -4.399  1.00  0.00     0.004 A 
ATOM     82  C   UNL     1       5.553   0.283  -6.745  1.00  0.00     0.004 A 
ATOM     83  C   UNL     1       5.680  -0.519  -4.079  1.00  0.00     0.000 A 
ATOM     84  C   UNL     1       5.916  -1.027  -6.424  1.00  0.00     0.000 A 
ATOM     85  C   UNL     1       5.978  -1.428  -5.092  1.00  0.00     0.000 A 
ENDBRANCH  79  80
ENDBRANCH  76  79
ENDBRANCH  74  76
ENDBRANCH  72  74
ENDBRANCH  70  71
ENDBRANCH   1  69
TORSDOF 17
ENDMDL
MODEL 2
REMARK VINA RESULT:    -6.854     11.045     17.010
REMARK INTER + INTRA:         -26.629
REMARK INTER:                 -19.025
REMARK INTRA:                  -7.604
REMARK UNBOUND:                -6.151
REMARK SMILES C=C1C(=O)N[C@H](C)C(=O)N[C@@H](CC(C)C)C(=O)N[C@@H](C(=O)O)[C@H](C)C(=O)N[C@@H](CCCN=C(N)N)C(=O)N[C@@H](/C=C/C(C)=C/[C@H](C)[C@H](Cc2ccccc2)OC)[C@H](C)C(=O)N[C@@H](C(=O)O)CCC(=O)N1C
REMARK SMILES IDX 39 1 38 2 37 3 36 4 28 6 27 7 25 8 26 9 23 11 24 12 19 13
REMARK SMILES IDX 18 14 16 15 17 16 11 18 10 19 8 20 9 21 12 24 13 25 14 26
REMARK SMILES IDX 15 27 20 28 21 29 22 30 29 32 30 33 31 34 32 35 33 36 34 37
REMARK SMILES IDX 35 38 57 43 58 44 59 45 60 46 61 47 62 49 66 50 67 51 68 52
REMARK SMILES IDX 69 53 70 54 71 55 2 56 1 57 3 58 4 59 5 60 6 62 7 63 63 65
REMARK SMILES IDX 64 66 65 67 40 69 41 70 42 71 44 72 43 73 45 74 46 75 47 76
REMARK SMILES IDX 55 77 56 78 48 79 49 80 50 81 54 82 51 83 53 84 52 85
REMARK H PARENT 38 5 27 10 18 17 10 22 22 31 34 39 34 40 35 41 35 42 61 48
REMARK H PARENT 5 61 65 68
REMARK Flexibility Score:  369.900
ROOT
ATOM      1  C   UNL     1     -11.467   1.558  -7.744  1.00  0.00     0.117 C 
ENDROOT
BRANCH   1   2
ATOM      2  N   UNL     1     -11.200   2.903  -8.254  1.00  0.00    -0.347 N 
ATOM      3  O   UNL     1     -12.524   4.064  -6.781  1.00  0.00    -0.273 OA
ATOM      4  C   UNL     1     -11.680   4.060  -7.671  1.00  0.00     0.243 C 
ATOM      5  H   UNL     1     -10.591   3.019  -9.049  1.00  0.00     0.164 HD
BRANCH   4   6
ATOM      6  C   UNL     1     -11.180   5.357  -8.356  1.00  0.00     0.171 C 
BRANCH   6   7
ATOM      7  N   UNL     1     -12.174   5.843  -9.325  1.00  0.00    -0.344 N 
ATOM      8  C   UNL     1     -11.912   5.811 -10.678  1.00  0.00     0.226 C 
ATOM      9  O   UNL     1     -10.851   5.405 -11.135  1.00  0.00    -0.275 OA
ATOM     10  H   UNL     1     -13.036   6.249  -8.982  1.00  0.00     0.164 HD
BRANCH   8  11
ATOM     11  C   UNL     1     -13.058   6.296 -11.549  1.00  0.00     0.109 C 
ATOM     12  C   UNL     1     -12.528   6.754 -12.908  1.00  0.00     0.021 C 
BRANCH  11  13
ATOM     13  C   UNL     1     -14.158   5.217 -11.612  1.00  0.00     0.204 C 
BRANCH  13  14
ATOM     14  N   UNL     1     -15.182   5.413 -10.582  1.00  0.00    -0.340 N 
ATOM     15  C   UNL     1     -15.544   6.657 -10.113  1.00  0.00     0.243 C 
ATOM     16  O   UNL     1     -15.076   7.697 -10.572  1.00  0.00    -0.273 OA
ATOM     17  H   UNL     1     -15.497   4.593 -10.056  1.00  0.00     0.164 HD
BRANCH  15  18
ATOM     18  C   UNL     1     -16.488   6.605  -8.886  1.00  0.00     0.171 C 
BRANCH  18  19
ATOM     19  N   UNL     1     -17.157   7.903  -8.818  1.00  0.00    -0.343 N 
ATOM     20  C   UNL     1     -17.018   8.738  -7.725  1.00  0.00     0.242 CG0
ATOM     21  O   UNL     1     -16.436   8.372  -6.707  1.00  0.00    -0.273 OA
ATOM     22  H   UNL     1     -17.745   8.201  -9.588  1.00  0.00     0.164 HD
ATOM     23  G   UNL     1     -17.734  10.097  -7.868  1.00  0.00     0.000 G0
ENDBRANCH  18  19
BRANCH  18  24
ATOM     24  C   UNL     1     -17.498   5.459  -9.027  1.00  0.00     0.038 C 
BRANCH  24  25
ATOM     25  C   UNL     1     -17.654   4.579  -7.769  1.00  0.00    -0.015 C 
ATOM     26  C   UNL     1     -18.226   5.353  -6.581  1.00  0.00     0.007 C 
ATOM     27  C   UNL     1     -16.297   3.980  -7.389  1.00  0.00     0.007 C 
ENDBRANCH  24  25
ENDBRANCH  18  24
ENDBRANCH  15  18
ENDBRANCH  13  14
BRANCH  13  28
ATOM     28  C   UNL     1     -14.877   5.168 -12.964  1.00  0.00     0.327 C 
ATOM     29  O   UNL     1     -14.604   4.435 -13.902  1.00  0.00    -0.250 OA
BRANCH  28  30
ATOM     30  O   UNL     1     -15.820   6.123 -13.096  1.00  0.00    -0.480 OA
ATOM     31  H   UNL     1     -16.568   5.665 -13.533  1.00  0.00     0.296 HD
ENDBRANCH  28  30
ENDBRANCH  13  28
ENDBRANCH  11  13
ENDBRANCH   8  11
ENDBRANCH   6   7
BRANCH   6  32
ATOM     32  C   UNL     1     -10.897   6.415  -7.284  1.00  0.00     0.037 C 
BRANCH  32  33
ATOM     33  C   UNL     1      -9.472   6.305  -6.724  1.00  0.00     0.026 C 
BRANCH  33  34
ATOM     34  C   UNL     1      -8.416   6.203  -7.825  1.00  0.00     0.146 C 
BRANCH  34  35
ATOM     35  N   UNL     1      -7.416   5.221  -7.428  1.00  0.00    -0.254 NA
ATOM     36  C   UNL     1      -7.220   4.204  -8.182  1.00  0.00     0.185 C 
ATOM     37  N   UNL     1      -6.298   3.296  -7.828  1.00  0.00    -0.370 N 
ATOM     38  N   UNL     1      -7.824   3.882  -9.340  1.00  0.00    -0.370 N 
ATOM     39  H   UNL     1      -5.791   3.474  -6.970  1.00  0.00     0.159 HD
ATOM     40  H   UNL     1      -5.965   2.573  -8.442  1.00  0.00     0.159 HD
ATOM     41  H   UNL     1      -7.681   2.983  -9.769  1.00  0.00     0.159 HD
ATOM     42  H   UNL     1      -8.551   4.468  -9.719  1.00  0.00     0.159 HD
ENDBRANCH  34  35
ENDBRANCH  33  34
ENDBRANCH  32  33
ENDBRANCH   6  32
ENDBRANCH   4   6
ENDBRANCH   1   2
BRANCH   1  43
ATOM     43  C   UNL     1     -10.126   0.769  -7.703  1.00  0.00     0.102 C 
ATOM     44  C   UNL     1      -9.109   1.343  -6.703  1.00  0.00     0.020 C 
BRANCH  43  45
ATOM     45  C   UNL     1      -9.564   0.565  -9.113  1.00  0.00     0.225 C 
ATOM     46  O   UNL     1     -10.269   0.531 -10.118  1.00  0.00    -0.275 OA
ATOM     47  N   UNL     1      -8.211   0.326  -9.183  1.00  0.00    -0.342 N 
ATOM     48  H   UNL     1      -7.629   0.507  -8.377  1.00  0.00     0.164 HD
BRANCH  47  49
ATOM     49  C   UNL     1      -7.529   0.149 -10.468  1.00  0.00     0.192 C 
BRANCH  49  50
ATOM     50  C   UNL     1      -6.658  -1.109 -10.420  1.00  0.00     0.047 C 
BRANCH  50  51
ATOM     51  C   UNL     1      -7.027  -2.027  -9.246  1.00  0.00     0.103 C 
BRANCH  51  52
ATOM     52  C   UNL     1      -6.144  -3.272  -9.192  1.00  0.00     0.226 C 
ATOM     53  O   UNL     1      -5.307  -3.465 -10.077  1.00  0.00    -0.275 OA
BRANCH  52  54
ATOM     54  N   UNL     1      -6.296  -4.100  -8.065  1.00  0.00    -0.311 N 
ATOM     55  C   UNL     1      -7.628  -4.517  -7.607  1.00  0.00     0.153 C 
BRANCH  54  56
ATOM     56  C   UNL     1      -5.185  -4.563  -7.340  1.00  0.00     0.102 C 
ATOM     57  C   UNL     1      -4.611  -3.913  -6.315  1.00  0.00     0.043 C 
BRANCH  56  58
ATOM     58  C   UNL     1      -4.561  -5.903  -7.651  1.00  0.00     0.268 C 
ATOM     59  O   UNL     1      -4.835  -6.927  -7.040  1.00  0.00    -0.268 OA
ATOM     60  N   UNL     1      -3.708  -5.865  -8.728  1.00  0.00    -0.339 N 
ATOM     61  H   UNL     1      -3.526  -4.974  -9.174  1.00  0.00     0.164 HD
BRANCH  60  62
ATOM     62  C   UNL     1      -3.044  -7.064  -9.239  1.00  0.00     0.168 CG0
ATOM     63  C   UNL     1      -3.777  -7.620 -10.453  1.00  0.00     0.041 C 
ATOM     64  G   UNL     1      -2.958  -8.123  -8.120  1.00  0.00     0.000 G0
ENDBRANCH  60  62
ENDBRANCH  56  58
ENDBRANCH  54  56
ENDBRANCH  52  54
ENDBRANCH  51  52
ENDBRANCH  50  51
ENDBRANCH  49  50
BRANCH  49  65
ATOM     65  C   UNL     1      -6.652   1.362 -10.817  1.00  0.00     0.326 C 
ATOM     66  O   UNL     1      -5.678   1.740 -10.182  1.00  0.00    -0.250 OA
BRANCH  65  67
ATOM     67  O   UNL     1      -7.067   2.067 -11.892  1.00  0.00    -0.480 OA
ATOM     68  H   UNL     1      -7.122   2.988 -11.558  1.00  0.00     0.296 HD
ENDBRANCH  65  67
ENDBRANCH  49  65
ENDBRANCH  47  49
ENDBRANCH  43  45
ENDBRANCH   1  43
BRANCH   1  69
ATOM     69  C   UNL     1     -12.615   1.010  -8.573  1.00  0.00    -0.001 C 
ATOM     70  C   UNL     1     -13.856   1.516  -8.685  1.00  0.00     0.001 C 
BRANCH  70  71
ATOM     71  C   UNL     1     -14.949   0.991  -9.505  1.00  0.00    -0.055 C 
ATOM     72  C   UNL     1     -15.806   1.879 -10.051  1.00  0.00    -0.018 C 
ATOM     73  C   UNL     1     -15.036  -0.502  -9.687  1.00  0.00     0.044 C 
BRANCH  72  74
ATOM     74  C   UNL     1     -17.017   1.628 -10.938  1.00  0.00     0.038 C 
ATOM     75  C   UNL     1     -16.784   2.391 -12.248  1.00  0.00     0.015 C 
BRANCH  74  76
ATOM     76  C   UNL     1     -18.302   2.042 -10.161  1.00  0.00     0.128 C 
BRANCH  76  77
ATOM     77  O   UNL     1     -19.269   2.593 -11.071  1.00  0.00    -0.381 OA
ATOM     78  C   UNL     1     -20.194   3.478 -10.453  1.00  0.00     0.195 C 
ENDBRANCH  76  77
BRANCH  76  79
ATOM     79  C   UNL     1     -18.888   0.917  -9.271  1.00  0.00     0.068 C 
BRANCH  79  80
ATOM     80  C   UNL     1     -18.832   1.100  -7.773  1.00  0.00    -0.045 A 
ATOM     81  C   UNL     1     -19.799   1.860  -7.102  1.00  0.00     0.004 A 
ATOM     82  C   UNL     1     -17.788   0.529  -7.030  1.00  0.00     0.004 A 
ATOM     83  C   UNL     1     -19.732   2.035  -5.719  1.00  0.00     0.000 A 
ATOM     84  C   UNL     1     -17.721   0.706  -5.646  1.00  0.00     0.000 A 
ATOM     85  C   UNL     1     -18.694   1.458  -4.991  1.00  0.00     0.000 A 
ENDBRANCH  79  80
ENDBRANCH  76  79
ENDBRANCH  74  76
ENDBRANCH  72  74
ENDBRANCH  70  71
ENDBRANCH   1  69
TORSDOF 17
ENDMDL
MODEL 3
REMARK VINA RESULT:    -6.826     10.388     16.111
REMARK INTER + INTRA:         -26.545
REMARK INTER:                 -19.359
REMARK INTRA:                  -7.186
REMARK UNBOUND:                -6.151
REMARK SMILES C=C1C(=O)N[C@H](C)C(=O)N[C@@H](CC(C)C)C(=O)N[C@@H](C(=O)O)[C@H](C)C(=O)N[C@@H](CCCN=C(N)N)C(=O)N[C@@H](/C=C/C(C)=C/[C@H](C)[C@H](Cc2ccccc2)OC)[C@H](C)C(=O)N[C@@H](C(=O)O)CCC(=O)N1C
REMARK SMILES IDX 39 1 38 2 37 3 36 4 28 6 27 7 25 8 26 9 23 11 24 12 19 13
REMARK SMILES IDX 18 14 16 15 17 16 11 18 10 19 8 20 9 21 12 24 13 25 14 26
REMARK SMILES IDX 15 27 20 28 21 29 22 30 29 32 30 33 31 34 32 35 33 36 34 37
REMARK SMILES IDX 35 38 57 43 58 44 59 45 60 46 61 47 62 49 66 50 67 51 68 52
REMARK SMILES IDX 69 53 70 54 71 55 2 56 1 57 3 58 4 59 5 60 6 62 7 63 63 65
REMARK SMILES IDX 64 66 65 67 40 69 41 70 42 71 44 72 43 73 45 74 46 75 47 76
REMARK SMILES IDX 55 77 56 78 48 79 49 80 50 81 54 82 51 83 53 84 52 85
REMARK H PARENT 38 5 27 10 18 17 10 22 22 31 34 39 34 40 35 41 35 42 61 48
REMARK H PARENT 5 61 65 68
REMARK Flexibility Score:  369.900
ROOT
ATOM      1  C   UNL     1      -9.970   2.554  -7.435  1.00  0.00     0.117 C 
ENDROOT
BRANCH   1   2
ATOM      2  N   UNL     1      -9.601   3.828  -8.055  1.00  0.00    -0.347 N 
ATOM      3  O   UNL     1     -10.470   5.221  -6.450  1.00  0.00    -0.273 OA
ATOM      4  C   UNL     1      -9.801   5.061  -7.466  1.00  0.00     0.243 C 
ATOM      5  H   UNL     1      -9.126   3.825  -8.944  1.00  0.00     0.164 HD
BRANCH   4   6
ATOM      6  C   UNL     1      -9.241   6.245  -8.294  1.00  0.00     0.171 C 
BRANCH   6   7
ATOM      7  N   UNL     1     -10.338   6.998  -8.922  1.00  0.00    -0.344 N 
ATOM      8  C   UNL     1     -10.980   6.505 -10.038  1.00  0.00     0.226 C 
ATOM      9  O   UNL     1     -10.663   5.447 -10.568  1.00  0.00    -0.275 OA
ATOM     10  H   UNL     1     -10.584   7.908  -8.553  1.00  0.00     0.164 HD
BRANCH   8  11
ATOM     11  C   UNL     1     -12.125   7.370 -10.534  1.00  0.00     0.109 C 
ATOM     12  C   UNL     1     -11.593   8.471 -11.451  1.00  0.00     0.021 C 
BRANCH  11  13
ATOM     13  C   UNL     1     -13.219   6.480 -11.158  1.00  0.00     0.204 C 
BRANCH  13  14
ATOM     14  N   UNL     1     -14.558   6.831 -10.674  1.00  0.00    -0.340 N 
ATOM     15  C   UNL     1     -15.024   6.466  -9.430  1.00  0.00     0.243 C 
ATOM     16  O   UNL     1     -14.326   5.869  -8.612  1.00  0.00    -0.273 OA
ATOM     17  H   UNL     1     -15.235   7.189 -11.353  1.00  0.00     0.164 HD
BRANCH  15  18
ATOM     18  C   UNL     1     -16.529   6.764  -9.221  1.00  0.00     0.171 C 
BRANCH  18  19
ATOM     19  N   UNL     1     -17.235   6.167 -10.354  1.00  0.00    -0.343 N 
ATOM     20  C   UNL     1     -18.314   6.791 -10.950  1.00  0.00     0.242 CG0
ATOM     21  O   UNL     1     -18.813   7.808 -10.474  1.00  0.00    -0.273 OA
ATOM     22  H   UNL     1     -16.932   5.269 -10.711  1.00  0.00     0.164 HD
ATOM     23  G   UNL     1     -18.879   6.049 -12.179  1.00  0.00     0.000 G0
ENDBRANCH  18  19
BRANCH  18  24
ATOM     24  C   UNL     1     -17.016   6.184  -7.887  1.00  0.00     0.038 C 
BRANCH  24  25
ATOM     25  C   UNL     1     -17.574   4.748  -7.974  1.00  0.00    -0.015 C 
ATOM     26  C   UNL     1     -19.059   4.675  -7.620  1.00  0.00     0.007 C 
ATOM     27  C   UNL     1     -16.776   3.829  -7.045  1.00  0.00     0.007 C 
ENDBRANCH  24  25
ENDBRANCH  18  24
ENDBRANCH  15  18
ENDBRANCH  13  14
BRANCH  13  28
ATOM     28  C   UNL     1     -13.256   6.551 -12.687  1.00  0.00     0.327 C 
ATOM     29  O   UNL     1     -14.087   7.137 -13.364  1.00  0.00    -0.250 OA
BRANCH  28  30
ATOM     30  O   UNL     1     -12.316   5.783 -13.275  1.00  0.00    -0.480 OA
ATOM     31  H   UNL     1     -11.630   5.670 -12.584  1.00  0.00     0.296 HD
ENDBRANCH  28  30
ENDBRANCH  13  28
ENDBRANCH  11  13
ENDBRANCH   8  11
ENDBRANCH   6   7
BRANCH   6  32
ATOM     32  C   UNL     1      -8.410   7.151  -7.379  1.00  0.00     0.037 C 
BRANCH  32  33
ATOM     33  C   UNL     1      -6.934   6.731  -7.333  1.00  0.00     0.026 C 
BRANCH  33  34
ATOM     34  C   UNL     1      -5.991   7.925  -7.176  1.00  0.00     0.146 C 
BRANCH  34  35
ATOM     35  N   UNL     1      -5.167   8.034  -8.372  1.00  0.00    -0.254 NA
ATOM     36  C   UNL     1      -5.194   9.128  -9.038  1.00  0.00     0.185 C 
ATOM     37  N   UNL     1      -4.435   9.241 -10.140  1.00  0.00    -0.370 N 
ATOM     38  N   UNL     1      -5.900  10.247  -8.797  1.00  0.00    -0.370 N 
ATOM     39  H   UNL     1      -3.865   8.441 -10.382  1.00  0.00     0.159 HD
ATOM     40  H   UNL     1      -4.268  10.113 -10.612  1.00  0.00     0.159 HD
ATOM     41  H   UNL     1      -5.942  10.992  -9.473  1.00  0.00     0.159 HD
ATOM     42  H   UNL     1      -6.526  10.298  -8.009  1.00  0.00     0.159 HD
ENDBRANCH  34  35
ENDBRANCH  33  34
ENDBRANCH  32  33
ENDBRANCH   6  32
ENDBRANCH   4   6
ENDBRANCH   1   2
BRANCH   1  43
ATOM     43  C   UNL     1      -8.670   1.756  -7.131  1.00  0.00     0.102 C 
ATOM     44  C   UNL     1      -7.472   2.651  -6.770  1.00  0.00     0.020 C 
BRANCH  43  45
ATOM     45  C   UNL     1      -8.375   0.742  -8.240  1.00  0.00     0.225 C 
ATOM     46  O   UNL     1      -9.019  -0.293  -8.390  1.00  0.00    -0.275 OA
ATOM     47  N   UNL     1      -7.271   1.014  -9.014  1.00  0.00    -0.342 N 
ATOM     48  H   UNL     1      -6.849   1.931  -8.978  1.00  0.00     0.164 HD
BRANCH  47  49
ATOM     49  C   UNL     1      -6.889   0.150 -10.135  1.00  0.00     0.192 C 
BRANCH  49  50
ATOM     50  C   UNL     1      -5.911  -0.922  -9.648  1.00  0.00     0.047 C 
BRANCH  50  51
ATOM     51  C   UNL     1      -6.475  -2.340  -9.807  1.00  0.00     0.103 C 
BRANCH  51  52
ATOM     52  C   UNL     1      -6.566  -3.075  -8.472  1.00  0.00     0.226 C 
ATOM     53  O   UNL     1      -6.566  -2.432  -7.420  1.00  0.00    -0.275 OA
BRANCH  52  54
ATOM     54  N   UNL     1      -6.725  -4.472  -8.534  1.00  0.00    -0.311 N 
ATOM     55  C   UNL     1      -8.037  -5.095  -8.314  1.00  0.00     0.153 C 
BRANCH  54  56
ATOM     56  C   UNL     1      -5.640  -5.320  -8.814  1.00  0.00     0.102 C 
ATOM     57  C   UNL     1      -5.199  -5.622 -10.046  1.00  0.00     0.043 C 
BRANCH  56  58
ATOM     58  C   UNL     1      -4.834  -5.941  -7.698  1.00  0.00     0.268 C 
ATOM     59  O   UNL     1      -4.138  -6.937  -7.849  1.00  0.00    -0.268 OA
ATOM     60  N   UNL     1      -4.911  -5.238  -6.520  1.00  0.00    -0.339 N 
ATOM     61  H   UNL     1      -5.518  -4.429  -6.474  1.00  0.00     0.164 HD
BRANCH  60  62
ATOM     62  C   UNL     1      -4.158  -5.629  -5.329  1.00  0.00     0.168 CG0
ATOM     63  C   UNL     1      -3.240  -4.503  -4.868  1.00  0.00     0.041 C 
ATOM     64  G   UNL     1      -3.348  -6.907  -5.626  1.00  0.00     0.000 G0
ENDBRANCH  60  62
ENDBRANCH  56  58
ENDBRANCH  54  56
ENDBRANCH  52  54
ENDBRANCH  51  52
ENDBRANCH  50  51
ENDBRANCH  49  50
BRANCH  49  65
ATOM     65  C   UNL     1      -6.239   0.952 -11.273  1.00  0.00     0.326 C 
ATOM     66  O   UNL     1      -5.061   0.902 -11.595  1.00  0.00    -0.250 OA
BRANCH  65  67
ATOM     67  O   UNL     1      -7.070   1.812 -11.903  1.00  0.00    -0.480 OA
ATOM     68  H   UNL     1      -6.488   2.263 -12.552  1.00  0.00     0.296 HD
ENDBRANCH  65  67
ENDBRANCH  49  65
ENDBRANCH  47  49
ENDBRANCH  43  45
ENDBRANCH   1  43
BRANCH   1  69
ATOM     69  C   UNL     1     -11.019   1.932  -8.338  1.00  0.00    -0.001 C 
ATOM     70  C   UNL     1     -12.080   2.539  -8.899  1.00  0.00     0.001 C 
BRANCH  70  71
ATOM     71  C   UNL     1     -13.073   1.932  -9.786  1.00  0.00    -0.055 C 
ATOM     72  C   UNL     1     -13.970   2.750 -10.377  1.00  0.00    -0.018 C 
ATOM     73  C   UNL     1     -13.020   0.440  -9.985  1.00  0.00     0.044 C 
BRANCH  72  74
ATOM     74  C   UNL     1     -15.101   2.407 -11.336  1.00  0.00     0.038 C 
ATOM     75  C   UNL     1     -14.990   3.367 -12.527  1.00  0.00     0.015 C 
BRANCH  74  76
ATOM     76  C   UNL     1     -16.451   2.477 -10.565  1.00  0.00     0.128 C 
BRANCH  76  77
ATOM     77  O   UNL     1     -17.377   3.321 -11.270  1.00  0.00    -0.381 OA
ATOM     78  C   UNL     1     -18.725   2.876 -11.199  1.00  0.00     0.195 C 
ENDBRANCH  76  77
BRANCH  76  79
ATOM     79  C   UNL     1     -17.050   1.090 -10.217  1.00  0.00     0.068 C 
BRANCH  79  80
ATOM     80  C   UNL     1     -17.172   0.718  -8.759  1.00  0.00    -0.045 A 
ATOM     81  C   UNL     1     -18.373   0.908  -8.064  1.00  0.00     0.004 A 
ATOM     82  C   UNL     1     -16.067   0.199  -8.068  1.00  0.00     0.004 A 
ATOM     83  C   UNL     1     -18.473   0.574  -6.711  1.00  0.00     0.000 A 
ATOM     84  C   UNL     1     -16.168  -0.134  -6.715  1.00  0.00     0.000 A 
ATOM     85  C   UNL     1     -17.371   0.052  -6.038  1.00  0.00     0.000 A 
ENDBRANCH  79  80
ENDBRANCH  76  79
ENDBRANCH  74  76
ENDBRANCH  72  74
ENDBRANCH  70  71
ENDBRANCH   1  69
TORSDOF 17
ENDMDL
MODEL 4
REMARK VINA RESULT:    -6.760     11.533     16.710
REMARK INTER + INTRA:         -26.347
REMARK INTER:                 -19.453
REMARK INTRA:                  -6.894
REMARK UNBOUND:                -6.151
REMARK SMILES C=C1C(=O)N[C@H](C)C(=O)N[C@@H](CC(C)C)C(=O)N[C@@H](C(=O)O)[C@H](C)C(=O)N[C@@H](CCCN=C(N)N)C(=O)N[C@@H](/C=C/C(C)=C/[C@H](C)[C@H](Cc2ccccc2)OC)[C@H](C)C(=O)N[C@@H](C(=O)O)CCC(=O)N1C
REMARK SMILES IDX 39 1 38 2 37 3 36 4 28 6 27 7 25 8 26 9 23 11 24 12 19 13
REMARK SMILES IDX 18 14 16 15 17 16 11 18 10 19 8 20 9 21 12 24 13 25 14 26
REMARK SMILES IDX 15 27 20 28 21 29 22 30 29 32 30 33 31 34 32 35 33 36 34 37
REMARK SMILES IDX 35 38 57 43 58 44 59 45 60 46 61 47 62 49 66 50 67 51 68 52
REMARK SMILES IDX 69 53 70 54 71 55 2 56 1 57 3 58 4 59 5 60 6 62 7 63 63 65
REMARK SMILES IDX 64 66 65 67 40 69 41 70 42 71 44 72 43 73 45 74 46 75 47 76
REMARK SMILES IDX 55 77 56 78 48 79 49 80 50 81 54 82 51 83 53 84 52 85
REMARK H PARENT 38 5 27 10 18 17 10 22 22 31 34 39 34 40 35 41 35 42 61 48
REMARK H PARENT 5 61 65 68
REMARK Flexibility Score:  369.900
ROOT
ATOM      1  C   UNL     1     -11.470   1.743  -7.588  1.00  0.00     0.117 C 
ENDROOT
BRANCH   1   2
ATOM      2  N   UNL     1     -10.822   2.904  -8.198  1.00  0.00    -0.347 N 
ATOM      3  O   UNL     1     -10.609   4.178  -6.300  1.00  0.00    -0.273 OA
ATOM      4  C   UNL     1     -10.359   3.994  -7.487  1.00  0.00     0.243 C 
ATOM      5  H   UNL     1     -10.648   2.907  -9.192  1.00  0.00     0.164 HD
BRANCH   4   6
ATOM      6  C   UNL     1      -9.634   5.047  -8.363  1.00  0.00     0.171 C 
BRANCH   6   7
ATOM      7  N   UNL     1     -10.519   6.192  -8.629  1.00  0.00    -0.344 N 
ATOM      8  C   UNL     1     -11.061   6.386  -9.881  1.00  0.00     0.226 C 
ATOM      9  O   UNL     1     -10.820   5.644 -10.826  1.00  0.00    -0.275 OA
ATOM     10  H   UNL     1     -10.687   6.865  -7.891  1.00  0.00     0.164 HD
BRANCH   8  11
ATOM     11  C   UNL     1     -11.995   7.579  -9.981  1.00  0.00     0.109 C 
ATOM     12  C   UNL     1     -12.832   7.699  -8.708  1.00  0.00     0.021 C 
BRANCH  11  13
ATOM     13  C   UNL     1     -11.192   8.841 -10.351  1.00  0.00     0.204 C 
BRANCH  13  14
ATOM     14  N   UNL     1     -11.329   9.186 -11.770  1.00  0.00    -0.340 N 
ATOM     15  C   UNL     1     -10.376   9.904 -12.460  1.00  0.00     0.243 C 
ATOM     16  O   UNL     1      -9.314  10.254 -11.949  1.00  0.00    -0.273 OA
ATOM     17  H   UNL     1     -12.245   9.060 -12.209  1.00  0.00     0.164 HD
BRANCH  15  18
ATOM     18  C   UNL     1     -10.829  10.327 -13.880  1.00  0.00     0.171 C 
BRANCH  18  19
ATOM     19  N   UNL     1     -11.370  11.679 -13.761  1.00  0.00    -0.343 N 
ATOM     20  C   UNL     1     -12.711  11.948 -13.957  1.00  0.00     0.242 CG0
ATOM     21  O   UNL     1     -13.486  11.088 -14.369  1.00  0.00    -0.273 OA
ATOM     22  H   UNL     1     -10.747  12.446 -13.535  1.00  0.00     0.164 HD
ATOM     23  G   UNL     1     -13.109  13.418 -13.711  1.00  0.00     0.000 G0
ENDBRANCH  18  19
BRANCH  18  24
ATOM     24  C   UNL     1      -9.652  10.277 -14.861  1.00  0.00     0.038 C 
BRANCH  24  25
ATOM     25  C   UNL     1      -9.675  11.368 -15.952  1.00  0.00    -0.015 C 
ATOM     26  C   UNL     1     -10.440  10.929 -17.201  1.00  0.00     0.007 C 
ATOM     27  C   UNL     1      -8.242  11.747 -16.332  1.00  0.00     0.007 C 
ENDBRANCH  24  25
ENDBRANCH  18  24
ENDBRANCH  15  18
ENDBRANCH  13  14
BRANCH  13  28
ATOM     28  C   UNL     1     -11.602  10.076  -9.542  1.00  0.00     0.327 C 
ATOM     29  O   UNL     1     -12.486  10.868  -9.830  1.00  0.00    -0.250 OA
BRANCH  28  30
ATOM     30  O   UNL     1     -10.798  10.305  -8.484  1.00  0.00    -0.480 OA
ATOM     31  H   UNL     1     -10.635   9.416  -8.107  1.00  0.00     0.296 HD
ENDBRANCH  28  30
ENDBRANCH  13  28
ENDBRANCH  11  13
ENDBRANCH   8  11
ENDBRANCH   6   7
BRANCH   6  32
ATOM     32  C   UNL     1      -8.354   5.499  -7.651  1.00  0.00     0.037 C 
BRANCH  32  33
ATOM     33  C   UNL     1      -8.475   6.923  -7.091  1.00  0.00     0.026 C 
BRANCH  33  34
ATOM     34  C   UNL     1      -7.261   7.790  -7.429  1.00  0.00     0.146 C 
BRANCH  34  35
ATOM     35  N   UNL     1      -7.724   9.113  -7.824  1.00  0.00    -0.254 NA
ATOM     36  C   UNL     1      -7.595   9.470  -9.048  1.00  0.00     0.185 C 
ATOM     37  N   UNL     1      -8.022  10.685  -9.424  1.00  0.00    -0.370 N 
ATOM     38  N   UNL     1      -7.069   8.781 -10.077  1.00  0.00    -0.370 N 
ATOM     39  H   UNL     1      -8.441  11.261  -8.705  1.00  0.00     0.159 HD
ATOM     40  H   UNL     1      -8.116  10.969 -10.384  1.00  0.00     0.159 HD
ATOM     41  H   UNL     1      -6.896   9.224 -10.965  1.00  0.00     0.159 HD
ATOM     42  H   UNL     1      -6.693   7.857  -9.936  1.00  0.00     0.159 HD
ENDBRANCH  34  35
ENDBRANCH  33  34
ENDBRANCH  32  33
ENDBRANCH   6  32
ENDBRANCH   4   6
ENDBRANCH   1   2
BRANCH   1  43
ATOM     43  C   UNL     1     -10.497   0.532  -7.669  1.00  0.00     0.102 C 
ATOM     44  C   UNL     1      -9.620   0.366  -6.417  1.00  0.00     0.020 C 
BRANCH  43  45
ATOM     45  C   UNL     1      -9.708   0.548  -8.982  1.00  0.00     0.225 C 
ATOM     46  O   UNL     1     -10.243   0.531 -10.087  1.00  0.00    -0.275 OA
ATOM     47  N   UNL     1      -8.339   0.488  -8.852  1.00  0.00    -0.342 N 
ATOM     48  H   UNL     1      -7.915   0.656  -7.950  1.00  0.00     0.164 HD
BRANCH  47  49
ATOM     49  C   UNL     1      -7.455   0.532 -10.021  1.00  0.00     0.192 C 
BRANCH  49  50
ATOM     50  C   UNL     1      -6.402  -0.573  -9.910  1.00  0.00     0.047 C 
BRANCH  50  51
ATOM     51  C   UNL     1      -6.661  -1.508  -8.721  1.00  0.00     0.103 C 
BRANCH  51  52
ATOM     52  C   UNL     1      -6.428  -2.974  -9.082  1.00  0.00     0.226 C 
ATOM     53  O   UNL     1      -6.403  -3.314 -10.267  1.00  0.00    -0.275 OA
BRANCH  52  54
ATOM     54  N   UNL     1      -6.175  -3.850  -8.011  1.00  0.00    -0.311 N 
ATOM     55  C   UNL     1      -4.805  -4.090  -7.537  1.00  0.00     0.153 C 
BRANCH  54  56
ATOM     56  C   UNL     1      -7.218  -4.523  -7.353  1.00  0.00     0.102 C 
ATOM     57  C   UNL     1      -7.872  -4.060  -6.275  1.00  0.00     0.043 C 
BRANCH  56  58
ATOM     58  C   UNL     1      -7.728  -5.850  -7.863  1.00  0.00     0.268 C 
ATOM     59  O   UNL     1      -7.033  -6.638  -8.492  1.00  0.00    -0.268 OA
ATOM     60  N   UNL     1      -9.026  -6.109  -7.493  1.00  0.00    -0.339 N 
ATOM     61  H   UNL     1      -9.537  -5.400  -6.981  1.00  0.00     0.164 HD
BRANCH  60  62
ATOM     62  C   UNL     1      -9.696  -7.365  -7.828  1.00  0.00     0.168 CG0
ATOM     63  C   UNL     1      -9.571  -8.372  -6.691  1.00  0.00     0.041 C 
ATOM     64  G   UNL     1      -9.100  -7.937  -9.131  1.00  0.00     0.000 G0
ENDBRANCH  60  62
ENDBRANCH  56  58
ENDBRANCH  54  56
ENDBRANCH  52  54
ENDBRANCH  51  52
ENDBRANCH  50  51
ENDBRANCH  49  50
BRANCH  49  65
ATOM     65  C   UNL     1      -6.754   1.893 -10.150  1.00  0.00     0.326 C 
ATOM     66  O   UNL     1      -7.070   2.785 -10.924  1.00  0.00    -0.250 OA
BRANCH  65  67
ATOM     67  O   UNL     1      -5.669   2.046  -9.359  1.00  0.00    -0.480 OA
ATOM     68  H   UNL     1      -5.871   1.485  -8.579  1.00  0.00     0.296 HD
ENDBRANCH  65  67
ENDBRANCH  49  65
ENDBRANCH  47  49
ENDBRANCH  43  45
ENDBRANCH   1  43
BRANCH   1  69
ATOM     69  C   UNL     1     -12.837   1.630  -8.238  1.00  0.00    -0.001 C 
ATOM     70  C   UNL     1     -14.035   1.830  -7.660  1.00  0.00     0.001 C 
BRANCH  70  71
ATOM     71  C   UNL     1     -15.348   1.739  -8.304  1.00  0.00    -0.055 C 
ATOM     72  C   UNL     1     -15.394   1.279  -9.572  1.00  0.00    -0.018 C 
ATOM     73  C   UNL     1     -16.553   2.157  -7.503  1.00  0.00     0.044 C 
BRANCH  72  74
ATOM     74  C   UNL     1     -16.600   1.077 -10.479  1.00  0.00     0.038 C 
ATOM     75  C   UNL     1     -16.649  -0.413 -10.841  1.00  0.00     0.015 C 
BRANCH  74  76
ATOM     76  C   UNL     1     -16.478   2.041 -11.696  1.00  0.00     0.128 C 
BRANCH  76  77
ATOM     77  O   UNL     1     -17.543   3.006 -11.666  1.00  0.00    -0.381 OA
ATOM     78  C   UNL     1     -18.761   2.496 -11.141  1.00  0.00     0.195 C 
ENDBRANCH  76  77
BRANCH  76  79
ATOM     79  C   UNL     1     -15.081   2.694 -11.845  1.00  0.00     0.068 C 
BRANCH  79  80
ATOM     80  C   UNL     1     -15.020   4.166 -12.174  1.00  0.00    -0.045 A 
ATOM     81  C   UNL     1     -15.023   5.133 -11.161  1.00  0.00     0.004 A 
ATOM     82  C   UNL     1     -14.988   4.590 -13.511  1.00  0.00     0.004 A 
ATOM     83  C   UNL     1     -14.980   6.493 -11.474  1.00  0.00     0.000 A 
ATOM     84  C   UNL     1     -14.947   5.951 -13.824  1.00  0.00     0.000 A 
ATOM     85  C   UNL     1     -14.941   6.902 -12.806  1.00  0.00     0.000 A 
ENDBRANCH  79  80
ENDBRANCH  76  79
ENDBRANCH  74  76
ENDBRANCH  72  74
ENDBRANCH  70  71
ENDBRANCH   1  69
TORSDOF 17
ENDMDL
MODEL 5
REMARK VINA RESULT:    -6.660      1.835      2.890
REMARK INTER + INTRA:         -26.048
REMARK INTER:                 -20.154
REMARK INTRA:                  -5.894
REMARK UNBOUND:                -6.151
REMARK SMILES C=C1C(=O)N[C@H](C)C(=O)N[C@@H](CC(C)C)C(=O)N[C@@H](C(=O)O)[C@H](C)C(=O)N[C@@H](CCCN=C(N)N)C(=O)N[C@@H](/C=C/C(C)=C/[C@H](C)[C@H](Cc2ccccc2)OC)[C@H](C)C(=O)N[C@@H](C(=O)O)CCC(=O)N1C
REMARK SMILES IDX 39 1 38 2 37 3 36 4 28 6 27 7 25 8 26 9 23 11 24 12 19 13
REMARK SMILES IDX 18 14 16 15 17 16 11 18 10 19 8 20 9 21 12 24 13 25 14 26
REMARK SMILES IDX 15 27 20 28 21 29 22 30 29 32 30 33 31 34 32 35 33 36 34 37
REMARK SMILES IDX 35 38 57 43 58 44 59 45 60 46 61 47 62 49 66 50 67 51 68 52
REMARK SMILES IDX 69 53 70 54 71 55 2 56 1 57 3 58 4 59 5 60 6 62 7 63 63 65
REMARK SMILES IDX 64 66 65 67 40 69 41 70 42 71 44 72 43 73 45 74 46 75 47 76
REMARK SMILES IDX 55 77 56 78 48 79 49 80 50 81 54 82 51 83 53 84 52 85
REMARK H PARENT 38 5 27 10 18 17 10 22 22 31 34 39 34 40 35 41 35 42 61 48
REMARK H PARENT 5 61 65 68
REMARK Flexibility Score:  369.900
ROOT
ATOM      1  C   UNL     1       1.787   2.709  -0.256  1.00  0.00     0.117 C 
ENDROOT
BRANCH   1   2
ATOM      2  N   UNL     1       0.702   3.226  -1.091  1.00  0.00    -0.347 N 
ATOM      3  O   UNL     1       0.289   1.313  -2.289  1.00  0.00    -0.273 OA
ATOM      4  C   UNL     1      -0.024   2.458  -1.980  1.00  0.00     0.243 C 
ATOM      5  H   UNL     1       0.418   4.189  -0.992  1.00  0.00     0.164 HD
BRANCH   4   6
ATOM      6  C   UNL     1      -1.174   3.229  -2.676  1.00  0.00     0.171 C 
BRANCH   6   7
ATOM      7  N   UNL     1      -1.859   2.362  -3.649  1.00  0.00    -0.344 N 
ATOM      8  C   UNL     1      -1.646   2.519  -5.001  1.00  0.00     0.226 C 
ATOM      9  O   UNL     1      -0.908   3.384  -5.458  1.00  0.00    -0.275 OA
ATOM     10  H   UNL     1      -2.528   1.681  -3.313  1.00  0.00     0.164 HD
BRANCH   8  11
ATOM     11  C   UNL     1      -2.382   1.515  -5.871  1.00  0.00     0.109 C 
ATOM     12  C   UNL     1      -2.952   0.390  -5.007  1.00  0.00     0.021 C 
BRANCH  11  13
ATOM     13  C   UNL     1      -3.416   2.245  -6.750  1.00  0.00     0.204 C 
BRANCH  13  14
ATOM     14  N   UNL     1      -4.377   1.319  -7.357  1.00  0.00    -0.340 N 
ATOM     15  C   UNL     1      -4.469   1.120  -8.717  1.00  0.00     0.243 C 
ATOM     16  O   UNL     1      -3.707   1.662  -9.516  1.00  0.00    -0.273 OA
ATOM     17  H   UNL     1      -5.133   0.957  -6.768  1.00  0.00     0.164 HD
BRANCH  15  18
ATOM     18  C   UNL     1      -5.687   0.261  -9.137  1.00  0.00     0.171 C 
BRANCH  18  19
ATOM     19  N   UNL     1      -5.563   0.033 -10.575  1.00  0.00    -0.343 N 
ATOM     20  C   UNL     1      -6.232   0.813 -11.497  1.00  0.00     0.242 CG0
ATOM     21  O   UNL     1      -7.065   1.647 -11.151  1.00  0.00    -0.273 OA
ATOM     22  H   UNL     1      -4.975  -0.722 -10.909  1.00  0.00     0.164 HD
ATOM     23  G   UNL     1      -5.916   0.473 -12.968  1.00  0.00     0.000 G0
ENDBRANCH  18  19
BRANCH  18  24
ATOM     24  C   UNL     1      -5.713  -1.059  -8.358  1.00  0.00     0.038 C 
BRANCH  24  25
ATOM     25  C   UNL     1      -7.115  -1.506  -7.893  1.00  0.00    -0.015 C 
ATOM     26  C   UNL     1      -7.551  -2.825  -8.533  1.00  0.00     0.007 C 
ATOM     27  C   UNL     1      -8.137  -0.414  -8.216  1.00  0.00     0.007 C 
ENDBRANCH  24  25
ENDBRANCH  18  24
ENDBRANCH  15  18
ENDBRANCH  13  14
BRANCH  13  28
ATOM     28  C   UNL     1      -4.223   3.299  -5.984  1.00  0.00     0.327 C 
ATOM     29  O   UNL     1      -4.025   4.504  -5.988  1.00  0.00    -0.250 OA
BRANCH  28  30
ATOM     30  O   UNL     1      -5.152   2.762  -5.167  1.00  0.00    -0.480 OA
ATOM     31  H   UNL     1      -4.847   2.998  -4.267  1.00  0.00     0.296 HD
ENDBRANCH  28  30
ENDBRANCH  13  28
ENDBRANCH  11  13
ENDBRANCH   8  11
ENDBRANCH   6   7
BRANCH   6  32
ATOM     32  C   UNL     1      -2.153   3.739  -1.613  1.00  0.00     0.037 C 
BRANCH  32  33
ATOM     33  C   UNL     1      -3.615   3.610  -2.063  1.00  0.00     0.026 C 
BRANCH  33  34
ATOM     34  C   UNL     1      -4.597   3.692  -0.893  1.00  0.00     0.146 C 
BRANCH  34  35
ATOM     35  N   UNL     1      -4.969   5.086  -0.690  1.00  0.00    -0.254 NA
ATOM     36  C   UNL     1      -5.959   5.351   0.079  1.00  0.00     0.185 C 
ATOM     37  N   UNL     1      -6.307   6.632   0.277  1.00  0.00    -0.370 N 
ATOM     38  N   UNL     1      -6.751   4.504   0.760  1.00  0.00    -0.370 N 
ATOM     39  H   UNL     1      -5.750   7.333  -0.194  1.00  0.00     0.159 HD
ATOM     40  H   UNL     1      -6.950   6.929   0.991  1.00  0.00     0.159 HD
ATOM     41  H   UNL     1      -7.585   4.828   1.221  1.00  0.00     0.159 HD
ATOM     42  H   UNL     1      -6.614   3.508   0.691  1.00  0.00     0.159 HD
ENDBRANCH  34  35
ENDBRANCH  33  34
ENDBRANCH  32  33
ENDBRANCH   6  32
ENDBRANCH   4   6
ENDBRANCH   1   2
BRANCH   1  43
ATOM     43  C   UNL     1       1.401   2.910   1.238  1.00  0.00     0.102 C 
ATOM     44  C   UNL     1       2.064   1.894   2.183  1.00  0.00     0.020 C 
BRANCH  43  45
ATOM     45  C   UNL     1      -0.118   3.014   1.404  1.00  0.00     0.225 C 
ATOM     46  O   UNL     1      -0.723   4.082   1.388  1.00  0.00    -0.275 OA
ATOM     47  N   UNL     1      -0.767   1.830   1.671  1.00  0.00    -0.342 N 
ATOM     48  H   UNL     1      -0.286   0.953   1.531  1.00  0.00     0.164 HD
BRANCH  47  49
ATOM     49  C   UNL     1      -2.225   1.772   1.819  1.00  0.00     0.192 C 
BRANCH  49  50
ATOM     50  C   UNL     1      -2.580   1.235   3.208  1.00  0.00     0.047 C 
BRANCH  50  51
ATOM     51  C   UNL     1      -3.584   2.135   3.940  1.00  0.00     0.103 C 
BRANCH  51  52
ATOM     52  C   UNL     1      -2.970   2.797   5.172  1.00  0.00     0.226 C 
ATOM     53  O   UNL     1      -3.300   2.418   6.297  1.00  0.00    -0.275 OA
BRANCH  52  54
ATOM     54  N   UNL     1      -1.984   3.773   4.932  1.00  0.00    -0.311 N 
ATOM     55  C   UNL     1      -2.294   4.990   4.171  1.00  0.00     0.153 C 
BRANCH  54  56
ATOM     56  C   UNL     1      -0.673   3.623   5.415  1.00  0.00     0.102 C 
ATOM     57  C   UNL     1       0.101   2.544   5.213  1.00  0.00     0.043 C 
BRANCH  56  58
ATOM     58  C   UNL     1      -0.000   4.732   6.188  1.00  0.00     0.268 C 
ATOM     59  O   UNL     1      -0.320   5.044   7.327  1.00  0.00    -0.268 OA
ATOM     60  N   UNL     1       1.047   5.307   5.508  1.00  0.00    -0.339 N 
ATOM     61  H   UNL     1       1.242   4.999   4.563  1.00  0.00     0.164 HD
BRANCH  60  62
ATOM     62  C   UNL     1       1.875   6.358   6.097  1.00  0.00     0.168 CG0
ATOM     63  C   UNL     1       3.355   6.094   5.846  1.00  0.00     0.041 C 
ATOM     64  G   UNL     1       1.587   6.456   7.610  1.00  0.00     0.000 G0
ENDBRANCH  60  62
ENDBRANCH  56  58
ENDBRANCH  54  56
ENDBRANCH  52  54
ENDBRANCH  51  52
ENDBRANCH  50  51
ENDBRANCH  49  50
BRANCH  49  65
ATOM     65  C   UNL     1      -2.868   0.877   0.748  1.00  0.00     0.326 C 
ATOM     66  O   UNL     1      -3.990   0.396   0.804  1.00  0.00    -0.250 OA
BRANCH  65  67
ATOM     67  O   UNL     1      -2.064   0.583  -0.298  1.00  0.00    -0.480 OA
ATOM     68  H   UNL     1      -1.602   1.429  -0.481  1.00  0.00     0.296 HD
ENDBRANCH  65  67
ENDBRANCH  49  65
ENDBRANCH  47  49
ENDBRANCH  43  45
ENDBRANCH   1  43
BRANCH   1  69
ATOM     69  C   UNL     1       3.063   3.345  -0.776  1.00  0.00    -0.001 C 
ATOM     70  C   UNL     1       4.111   2.726  -1.347  1.00  0.00     0.001 C 
BRANCH  70  71
ATOM     71  C   UNL     1       5.328   3.353  -1.865  1.00  0.00    -0.055 C 
ATOM     72  C   UNL     1       5.978   2.729  -2.870  1.00  0.00    -0.018 C 
ATOM     73  C   UNL     1       5.766   4.655  -1.245  1.00  0.00     0.044 C 
BRANCH  72  74
ATOM     74  C   UNL     1       7.248   3.142  -3.599  1.00  0.00     0.038 C 
ATOM     75  C   UNL     1       8.278   3.529  -2.530  1.00  0.00     0.015 C 
BRANCH  74  76
ATOM     76  C   UNL     1       6.900   4.273  -4.610  1.00  0.00     0.128 C 
BRANCH  76  77
ATOM     77  O   UNL     1       7.854   4.281  -5.686  1.00  0.00    -0.381 OA
ATOM     78  C   UNL     1       7.441   3.532  -6.821  1.00  0.00     0.195 C 
ENDBRANCH  76  77
BRANCH  76  79
ATOM     79  C   UNL     1       5.434   4.242  -5.110  1.00  0.00     0.068 C 
BRANCH  79  80
ATOM     80  C   UNL     1       4.638   5.523  -5.048  1.00  0.00    -0.045 A 
ATOM     81  C   UNL     1       3.595   5.682  -4.126  1.00  0.00     0.004 A 
ATOM     82  C   UNL     1       4.915   6.571  -5.939  1.00  0.00     0.004 A 
ATOM     83  C   UNL     1       2.855   6.865  -4.085  1.00  0.00     0.000 A 
ATOM     84  C   UNL     1       4.174   7.754  -5.897  1.00  0.00     0.000 A 
ATOM     85  C   UNL     1       3.145   7.901  -4.969  1.00  0.00     0.000 A 
ENDBRANCH  79  80
ENDBRANCH  76  79
ENDBRANCH  74  76
ENDBRANCH  72  74
ENDBRANCH  70  71
ENDBRANCH   1  69
TORSDOF 17
ENDMDL
MODEL 6
REMARK VINA RESULT:    -6.594      3.682      5.501
REMARK INTER + INTRA:         -25.852
REMARK INTER:                 -18.646
REMARK INTRA:                  -7.206
REMARK UNBOUND:                -6.151
REMARK SMILES C=C1C(=O)N[C@H](C)C(=O)N[C@@H](CC(C)C)C(=O)N[C@@H](C(=O)O)[C@H](C)C(=O)N[C@@H](CCCN=C(N)N)C(=O)N[C@@H](/C=C/C(C)=C/[C@H](C)[C@H](Cc2ccccc2)OC)[C@H](C)C(=O)N[C@@H](C(=O)O)CCC(=O)N1C
REMARK SMILES IDX 39 1 38 2 37 3 36 4 28 6 27 7 25 8 26 9 23 11 24 12 19 13
REMARK SMILES IDX 18 14 16 15 17 16 11 18 10 19 8 20 9 21 12 24 13 25 14 26
REMARK SMILES IDX 15 27 20 28 21 29 22 30 29 32 30 33 31 34 32 35 33 36 34 37
REMARK SMILES IDX 35 38 57 43 58 44 59 45 60 46 61 47 62 49 66 50 67 51 68 52
REMARK SMILES IDX 69 53 70 54 71 55 2 56 1 57 3 58 4 59 5 60 6 62 7 63 63 65
REMARK SMILES IDX 64 66 65 67 40 69 41 70 42 71 44 72 43 73 45 74 46 75 47 76
REMARK SMILES IDX 55 77 56 78 48 79 49 80 50 81 54 82 51 83 53 84 52 85
REMARK H PARENT 38 5 27 10 18 17 10 22 22 31 34 39 34 40 35 41 35 42 61 48
REMARK H PARENT 5 61 65 68
REMARK Flexibility Score:  369.900
ROOT
ATOM      1  C   UNL     1       0.786   2.495  -0.375  1.00  0.00     0.117 C 
ENDROOT
BRANCH   1   2
ATOM      2  N   UNL     1      -0.265   3.241  -1.068  1.00  0.00    -0.347 N 
ATOM      3  O   UNL     1      -1.434   1.446  -1.891  1.00  0.00    -0.273 OA
ATOM      4  C   UNL     1      -1.345   2.653  -1.696  1.00  0.00     0.243 C 
ATOM      5  H   UNL     1      -0.244   4.250  -1.056  1.00  0.00     0.164 HD
BRANCH   4   6
ATOM      6  C   UNL     1      -2.358   3.672  -2.278  1.00  0.00     0.171 C 
BRANCH   6   7
ATOM      7  N   UNL     1      -2.634   3.372  -3.692  1.00  0.00    -0.344 N 
ATOM      8  C   UNL     1      -1.759   3.770  -4.679  1.00  0.00     0.226 C 
ATOM      9  O   UNL     1      -0.736   4.401  -4.439  1.00  0.00    -0.275 OA
ATOM     10  H   UNL     1      -3.502   2.911  -3.935  1.00  0.00     0.164 HD
BRANCH   8  11
ATOM     11  C   UNL     1      -2.156   3.338  -6.079  1.00  0.00     0.109 C 
ATOM     12  C   UNL     1      -3.353   2.388  -6.017  1.00  0.00     0.021 C 
BRANCH  11  13
ATOM     13  C   UNL     1      -2.360   4.580  -6.970  1.00  0.00     0.204 C 
BRANCH  13  14
ATOM     14  N   UNL     1      -2.398   5.819  -6.188  1.00  0.00    -0.340 N 
ATOM     15  C   UNL     1      -3.503   6.642  -6.141  1.00  0.00     0.243 C 
ATOM     16  O   UNL     1      -4.559   6.361  -6.706  1.00  0.00    -0.273 OA
ATOM     17  H   UNL     1      -1.514   6.184  -5.823  1.00  0.00     0.164 HD
BRANCH  15  18
ATOM     18  C   UNL     1      -3.241   7.990  -5.426  1.00  0.00     0.171 C 
BRANCH  18  19
ATOM     19  N   UNL     1      -2.971   8.973  -6.472  1.00  0.00    -0.343 N 
ATOM     20  C   UNL     1      -1.738   9.060  -7.089  1.00  0.00     0.242 CG0
ATOM     21  O   UNL     1      -0.774   8.407  -6.696  1.00  0.00    -0.273 OA
ATOM     22  H   UNL     1      -3.703   9.616  -6.752  1.00  0.00     0.164 HD
ATOM     23  G   UNL     1      -1.665  10.104  -8.223  1.00  0.00     0.000 G0
ENDBRANCH  18  19
BRANCH  18  24
ATOM     24  C   UNL     1      -4.451   8.394  -4.573  1.00  0.00     0.038 C 
BRANCH  24  25
ATOM     25  C   UNL     1      -4.101   8.896  -3.156  1.00  0.00    -0.015 C 
ATOM     26  C   UNL     1      -4.942   8.221  -2.073  1.00  0.00     0.007 C 
ATOM     27  C   UNL     1      -4.292  10.413  -3.086  1.00  0.00     0.007 C 
ENDBRANCH  24  25
ENDBRANCH  18  24
ENDBRANCH  15  18
ENDBRANCH  13  14
BRANCH  13  28
ATOM     28  C   UNL     1      -1.270   4.747  -8.032  1.00  0.00     0.327 C 
ATOM     29  O   UNL     1      -1.444   4.849  -9.237  1.00  0.00    -0.250 OA
BRANCH  28  30
ATOM     30  O   UNL     1      -0.022   4.655  -7.528  1.00  0.00    -0.480 OA
ATOM     31  H   UNL     1       0.483   4.180  -8.220  1.00  0.00     0.296 HD
ENDBRANCH  28  30
ENDBRANCH  13  28
ENDBRANCH  11  13
ENDBRANCH   8  11
ENDBRANCH   6   7
BRANCH   6  32
ATOM     32  C   UNL     1      -3.646   3.632  -1.448  1.00  0.00     0.037 C 
BRANCH  32  33
ATOM     33  C   UNL     1      -3.838   4.906  -0.614  1.00  0.00     0.026 C 
BRANCH  33  34
ATOM     34  C   UNL     1      -5.020   4.802   0.350  1.00  0.00     0.146 C 
BRANCH  34  35
ATOM     35  N   UNL     1      -4.688   5.510   1.579  1.00  0.00    -0.254 NA
ATOM     36  C   UNL     1      -5.241   5.136   2.672  1.00  0.00     0.185 C 
ATOM     37  N   UNL     1      -4.939   5.779   3.811  1.00  0.00    -0.370 N 
ATOM     38  N   UNL     1      -6.127   4.145   2.875  1.00  0.00    -0.370 N 
ATOM     39  H   UNL     1      -4.269   6.534   3.742  1.00  0.00     0.159 HD
ATOM     40  H   UNL     1      -5.191   5.441   4.724  1.00  0.00     0.159 HD
ATOM     41  H   UNL     1      -6.596   4.038   3.760  1.00  0.00     0.159 HD
ATOM     42  H   UNL     1      -6.457   3.587   2.103  1.00  0.00     0.159 HD
ENDBRANCH  34  35
ENDBRANCH  33  34
ENDBRANCH  32  33
ENDBRANCH   6  32
ENDBRANCH   4   6
ENDBRANCH   1   2
BRANCH   1  43
ATOM     43  C   UNL     1       0.623   2.716   1.157  1.00  0.00     0.102 C 
ATOM     44  C   UNL     1       1.214   1.579   2.006  1.00  0.00     0.020 C 
BRANCH  43  45
ATOM     45  C   UNL     1      -0.825   3.068   1.511  1.00  0.00     0.225 C 
ATOM     46  O   UNL     1      -1.237   4.222   1.583  1.00  0.00    -0.275 OA
ATOM     47  N   UNL     1      -1.630   2.001   1.839  1.00  0.00    -0.342 N 
ATOM     48  H   UNL     1      -1.325   1.061   1.629  1.00  0.00     0.164 HD
BRANCH  47  49
ATOM     49  C   UNL     1      -3.048   2.183   2.165  1.00  0.00     0.192 C 
BRANCH  49  50
ATOM     50  C   UNL     1      -3.262   1.976   3.666  1.00  0.00     0.047 C 
BRANCH  50  51
ATOM     51  C   UNL     1      -2.637   3.101   4.503  1.00  0.00     0.103 C 
BRANCH  51  52
ATOM     52  C   UNL     1      -1.544   2.583   5.436  1.00  0.00     0.226 C 
ATOM     53  O   UNL     1      -0.657   1.853   4.990  1.00  0.00    -0.275 OA
BRANCH  52  54
ATOM     54  N   UNL     1      -1.581   3.048   6.764  1.00  0.00    -0.311 N 
ATOM     55  C   UNL     1      -0.810   4.229   7.173  1.00  0.00     0.153 C 
BRANCH  54  56
ATOM     56  C   UNL     1      -2.358   2.406   7.743  1.00  0.00     0.102 C 
ATOM     57  C   UNL     1      -3.678   2.584   7.914  1.00  0.00     0.043 C 
BRANCH  56  58
ATOM     58  C   UNL     1      -1.742   1.396   8.681  1.00  0.00     0.268 C 
ATOM     59  O   UNL     1      -0.575   1.036   8.605  1.00  0.00    -0.268 OA
ATOM     60  N   UNL     1      -2.605   0.974   9.664  1.00  0.00    -0.339 N 
ATOM     61  H   UNL     1      -3.560   1.311   9.651  1.00  0.00     0.164 HD
BRANCH  60  62
ATOM     62  C   UNL     1      -2.195   0.043  10.714  1.00  0.00     0.168 CG0
ATOM     63  C   UNL     1      -2.882  -1.306  10.548  1.00  0.00     0.041 C 
ATOM     64  G   UNL     1      -2.513   0.651  12.096  1.00  0.00     0.000 G0
ENDBRANCH  60  62
ENDBRANCH  56  58
ENDBRANCH  54  56
ENDBRANCH  52  54
ENDBRANCH  51  52
ENDBRANCH  50  51
ENDBRANCH  49  50
BRANCH  49  65
ATOM     65  C   UNL     1      -3.939   1.204   1.384  1.00  0.00     0.326 C 
ATOM     66  O   UNL     1      -3.552   0.202   0.800  1.00  0.00    -0.250 OA
BRANCH  65  67
ATOM     67  O   UNL     1      -5.243   1.553   1.323  1.00  0.00    -0.480 OA
ATOM     68  H   UNL     1      -5.404   1.677   0.363  1.00  0.00     0.296 HD
ENDBRANCH  65  67
ENDBRANCH  49  65
ENDBRANCH  47  49
ENDBRANCH  43  45
ENDBRANCH   1  43
BRANCH   1  69
ATOM     69  C   UNL     1       2.093   2.888  -1.038  1.00  0.00    -0.001 C 
ATOM     70  C   UNL     1       3.242   3.241  -0.434  1.00  0.00     0.001 C 
BRANCH  70  71
ATOM     71  C   UNL     1       4.504   3.598  -1.084  1.00  0.00    -0.055 C 
ATOM     72  C   UNL     1       5.011   2.733  -1.987  1.00  0.00    -0.018 C 
ATOM     73  C   UNL     1       5.143   4.909  -0.706  1.00  0.00     0.044 C 
BRANCH  72  74
ATOM     74  C   UNL     1       6.287   2.838  -2.811  1.00  0.00     0.038 C 
ATOM     75  C   UNL     1       7.463   2.821  -1.828  1.00  0.00     0.015 C 
BRANCH  74  76
ATOM     76  C   UNL     1       6.202   4.110  -3.706  1.00  0.00     0.128 C 
BRANCH  76  77
ATOM     77  O   UNL     1       7.411   4.254  -4.470  1.00  0.00    -0.381 OA
ATOM     78  C   UNL     1       7.380   3.579  -5.720  1.00  0.00     0.195 C 
ENDBRANCH  76  77
BRANCH  76  79
ATOM     79  C   UNL     1       4.926   4.179  -4.583  1.00  0.00     0.068 C 
BRANCH  79  80
ATOM     80  C   UNL     1       4.272   5.526  -4.774  1.00  0.00    -0.045 A 
ATOM     81  C   UNL     1       3.292   5.985  -3.884  1.00  0.00     0.004 A 
ATOM     82  C   UNL     1       4.617   6.331  -5.870  1.00  0.00     0.004 A 
ATOM     83  C   UNL     1       2.681   7.226  -4.076  1.00  0.00     0.000 A 
ATOM     84  C   UNL     1       4.005   7.571  -6.061  1.00  0.00     0.000 A 
ATOM     85  C   UNL     1       3.039   8.019  -5.164  1.00  0.00     0.000 A 
ENDBRANCH  79  80
ENDBRANCH  76  79
ENDBRANCH  74  76
ENDBRANCH  72  74
ENDBRANCH  70  71
ENDBRANCH   1  69
TORSDOF 17
ENDMDL
MODEL 7
REMARK VINA RESULT:    -6.591      4.689     10.010
REMARK INTER + INTRA:         -25.843
REMARK INTER:                 -18.252
REMARK INTRA:                  -7.591
REMARK UNBOUND:                -6.151
REMARK SMILES C=C1C(=O)N[C@H](C)C(=O)N[C@@H](CC(C)C)C(=O)N[C@@H](C(=O)O)[C@H](C)C(=O)N[C@@H](CCCN=C(N)N)C(=O)N[C@@H](/C=C/C(C)=C/[C@H](C)[C@H](Cc2ccccc2)OC)[C@H](C)C(=O)N[C@@H](C(=O)O)CCC(=O)N1C
REMARK SMILES IDX 39 1 38 2 37 3 36 4 28 6 27 7 25 8 26 9 23 11 24 12 19 13
REMARK SMILES IDX 18 14 16 15 17 16 11 18 10 19 8 20 9 21 12 24 13 25 14 26
REMARK SMILES IDX 15 27 20 28 21 29 22 30 29 32 30 33 31 34 32 35 33 36 34 37
REMARK SMILES IDX 35 38 57 43 58 44 59 45 60 46 61 47 62 49 66 50 67 51 68 52
REMARK SMILES IDX 69 53 70 54 71 55 2 56 1 57 3 58 4 59 5 60 6 62 7 63 63 65
REMARK SMILES IDX 64 66 65 67 40 69 41 70 42 71 44 72 43 73 45 74 46 75 47 76
REMARK SMILES IDX 55 77 56 78 48 79 49 80 50 81 54 82 51 83 53 84 52 85
REMARK H PARENT 38 5 27 10 18 17 10 22 22 31 34 39 34 40 35 41 35 42 61 48
REMARK H PARENT 5 61 65 68
REMARK Flexibility Score:  369.900
ROOT
ATOM      1  C   UNL     1       1.877   2.183   0.186  1.00  0.00     0.117 C 
ENDROOT
BRANCH   1   2
ATOM      2  N   UNL     1       0.773   2.681   1.007  1.00  0.00    -0.347 N 
ATOM      3  O   UNL     1      -0.640   0.890   0.752  1.00  0.00    -0.273 OA
ATOM      4  C   UNL     1      -0.364   1.952   1.300  1.00  0.00     0.243 C 
ATOM      5  H   UNL     1       0.847   3.591   1.436  1.00  0.00     0.164 HD
BRANCH   4   6
ATOM      6  C   UNL     1      -1.339   2.678   2.261  1.00  0.00     0.171 C 
BRANCH   6   7
ATOM      7  N   UNL     1      -2.642   2.888   1.609  1.00  0.00    -0.344 N 
ATOM      8  C   UNL     1      -3.102   4.161   1.351  1.00  0.00     0.226 C 
ATOM      9  O   UNL     1      -2.474   5.166   1.665  1.00  0.00    -0.275 OA
ATOM     10  H   UNL     1      -3.220   2.084   1.397  1.00  0.00     0.164 HD
BRANCH   8  11
ATOM     11  C   UNL     1      -4.436   4.210   0.626  1.00  0.00     0.109 C 
ATOM     12  C   UNL     1      -4.305   3.576  -0.759  1.00  0.00     0.021 C 
BRANCH  11  13
ATOM     13  C   UNL     1      -5.536   3.599   1.517  1.00  0.00     0.204 C 
BRANCH  13  14
ATOM     14  N   UNL     1      -5.825   4.434   2.687  1.00  0.00    -0.340 N 
ATOM     15  C   UNL     1      -6.234   3.913   3.896  1.00  0.00     0.243 C 
ATOM     16  O   UNL     1      -6.326   2.703   4.096  1.00  0.00    -0.273 OA
ATOM     17  H   UNL     1      -5.915   5.443   2.546  1.00  0.00     0.164 HD
BRANCH  15  18
ATOM     18  C   UNL     1      -6.680   4.990   4.915  1.00  0.00     0.171 C 
BRANCH  18  19
ATOM     19  N   UNL     1      -8.140   5.022   4.878  1.00  0.00    -0.343 N 
ATOM     20  C   UNL     1      -8.830   5.757   3.933  1.00  0.00     0.242 CG0
ATOM     21  O   UNL     1      -8.251   6.521   3.165  1.00  0.00    -0.273 OA
ATOM     22  H   UNL     1      -8.667   4.496   5.567  1.00  0.00     0.164 HD
ATOM     23  G   UNL     1     -10.363   5.604   4.003  1.00  0.00     0.000 G0
ENDBRANCH  18  19
BRANCH  18  24
ATOM     24  C   UNL     1      -6.160   4.655   6.318  1.00  0.00     0.038 C 
BRANCH  24  25
ATOM     25  C   UNL     1      -7.249   4.223   7.323  1.00  0.00    -0.015 C 
ATOM     26  C   UNL     1      -7.439   5.237   8.452  1.00  0.00     0.007 C 
ATOM     27  C   UNL     1      -6.893   2.856   7.913  1.00  0.00     0.007 C 
ENDBRANCH  24  25
ENDBRANCH  18  24
ENDBRANCH  15  18
ENDBRANCH  13  14
BRANCH  13  28
ATOM     28  C   UNL     1      -6.859   3.380   0.777  1.00  0.00     0.327 C 
ATOM     29  O   UNL     1      -7.726   4.218   0.583  1.00  0.00    -0.250 OA
BRANCH  28  30
ATOM     30  O   UNL     1      -7.064   2.093   0.430  1.00  0.00    -0.480 OA
ATOM     31  H   UNL     1      -7.973   2.084   0.065  1.00  0.00     0.296 HD
ENDBRANCH  28  30
ENDBRANCH  13  28
ENDBRANCH  11  13
ENDBRANCH   8  11
ENDBRANCH   6   7
BRANCH   6  32
ATOM     32  C   UNL     1      -1.495   1.849   3.541  1.00  0.00     0.037 C 
BRANCH  32  33
ATOM     33  C   UNL     1      -0.141   1.399   4.107  1.00  0.00     0.026 C 
BRANCH  33  34
ATOM     34  C   UNL     1      -0.151  -0.062   4.559  1.00  0.00     0.146 C 
BRANCH  34  35
ATOM     35  N   UNL     1       0.301  -0.898   3.455  1.00  0.00    -0.254 NA
ATOM     36  C   UNL     1      -0.350  -1.968   3.188  1.00  0.00     0.185 C 
ATOM     37  N   UNL     1       0.055  -2.743   2.170  1.00  0.00    -0.370 N 
ATOM     38  N   UNL     1      -1.439  -2.469   3.798  1.00  0.00    -0.370 N 
ATOM     39  H   UNL     1       0.865  -2.426   1.653  1.00  0.00     0.159 HD
ATOM     40  H   UNL     1      -0.495  -3.495   1.791  1.00  0.00     0.159 HD
ATOM     41  H   UNL     1      -1.777  -3.393   3.584  1.00  0.00     0.159 HD
ATOM     42  H   UNL     1      -1.844  -1.998   4.592  1.00  0.00     0.159 HD
ENDBRANCH  34  35
ENDBRANCH  33  34
ENDBRANCH  32  33
ENDBRANCH   6  32
ENDBRANCH   4   6
ENDBRANCH   1   2
BRANCH   1  43
ATOM     43  C   UNL     1       3.217   2.522   0.900  1.00  0.00     0.102 C 
ATOM     44  C   UNL     1       3.043   2.900   2.381  1.00  0.00     0.020 C 
BRANCH  43  45
ATOM     45  C   UNL     1       4.029   3.538   0.091  1.00  0.00     0.225 C 
ATOM     46  O   UNL     1       3.764   4.737   0.060  1.00  0.00    -0.275 OA
ATOM     47  N   UNL     1       5.033   3.009  -0.687  1.00  0.00    -0.342 N 
ATOM     48  H   UNL     1       5.334   2.057  -0.536  1.00  0.00     0.164 HD
BRANCH  47  49
ATOM     49  C   UNL     1       5.915   3.866  -1.486  1.00  0.00     0.192 C 
BRANCH  49  50
ATOM     50  C   UNL     1       5.598   3.684  -2.973  1.00  0.00     0.047 C 
BRANCH  50  51
ATOM     51  C   UNL     1       4.652   2.503  -3.226  1.00  0.00     0.103 C 
BRANCH  51  52
ATOM     52  C   UNL     1       5.297   1.428  -4.099  1.00  0.00     0.226 C 
ATOM     53  O   UNL     1       6.056   0.602  -3.589  1.00  0.00    -0.275 OA
BRANCH  52  54
ATOM     54  N   UNL     1       4.912   1.406  -5.453  1.00  0.00    -0.311 N 
ATOM     55  C   UNL     1       3.561   0.988  -5.848  1.00  0.00     0.153 C 
BRANCH  54  56
ATOM     56  C   UNL     1       5.801   1.785  -6.473  1.00  0.00     0.102 C 
ATOM     57  C   UNL     1       6.037   1.077  -7.589  1.00  0.00     0.043 C 
BRANCH  56  58
ATOM     58  C   UNL     1       6.549   3.095  -6.401  1.00  0.00     0.268 C 
ATOM     59  O   UNL     1       7.659   3.205  -5.898  1.00  0.00    -0.268 OA
ATOM     60  N   UNL     1       5.885   4.131  -7.014  1.00  0.00    -0.339 N 
ATOM     61  H   UNL     1       4.964   3.960  -7.397  1.00  0.00     0.164 HD
BRANCH  60  62
ATOM     62  C   UNL     1       6.459   5.473  -7.115  1.00  0.00     0.168 CG0
ATOM     63  C   UNL     1       5.501   6.520  -6.560  1.00  0.00     0.041 C 
ATOM     64  G   UNL     1       6.808   5.776  -8.586  1.00  0.00     0.000 G0
ENDBRANCH  60  62
ENDBRANCH  56  58
ENDBRANCH  54  56
ENDBRANCH  52  54
ENDBRANCH  51  52
ENDBRANCH  50  51
ENDBRANCH  49  50
BRANCH  49  65
ATOM     65  C   UNL     1       7.396   3.542  -1.238  1.00  0.00     0.326 C 
ATOM     66  O   UNL     1       8.181   4.240  -0.613  1.00  0.00    -0.250 OA
BRANCH  65  67
ATOM     67  O   UNL     1       7.832   2.407  -1.828  1.00  0.00    -0.480 OA
ATOM     68  H   UNL     1       7.546   1.701  -1.210  1.00  0.00     0.296 HD
ENDBRANCH  65  67
ENDBRANCH  49  65
ENDBRANCH  47  49
ENDBRANCH  43  45
ENDBRANCH   1  43
BRANCH   1  69
ATOM     69  C   UNL     1       1.637   2.714  -1.215  1.00  0.00    -0.001 C 
ATOM     70  C   UNL     1       0.967   2.112  -2.214  1.00  0.00     0.001 C 
BRANCH  70  71
ATOM     71  C   UNL     1       0.724   2.644  -3.556  1.00  0.00    -0.055 C 
ATOM     72  C   UNL     1       1.309   3.816  -3.882  1.00  0.00    -0.018 C 
ATOM     73  C   UNL     1      -0.155   1.843  -4.480  1.00  0.00     0.044 C 
BRANCH  72  74
ATOM     74  C   UNL     1       1.239   4.598  -5.186  1.00  0.00     0.038 C 
ATOM     75  C   UNL     1       2.577   4.395  -5.907  1.00  0.00     0.015 C 
BRANCH  74  76
ATOM     76  C   UNL     1       0.888   6.081  -4.863  1.00  0.00     0.128 C 
BRANCH  76  77
ATOM     77  O   UNL     1       1.883   6.953  -5.425  1.00  0.00    -0.381 OA
ATOM     78  C   UNL     1       2.644   7.655  -4.450  1.00  0.00     0.195 C 
ENDBRANCH  76  77
BRANCH  76  79
ATOM     79  C   UNL     1      -0.555   6.486  -5.255  1.00  0.00     0.068 C 
BRANCH  79  80
ATOM     80  C   UNL     1      -1.606   5.403  -5.299  1.00  0.00    -0.045 A 
ATOM     81  C   UNL     1      -1.992   4.820  -6.513  1.00  0.00     0.004 A 
ATOM     82  C   UNL     1      -2.237   4.982  -4.118  1.00  0.00     0.004 A 
ATOM     83  C   UNL     1      -2.976   3.830  -6.546  1.00  0.00     0.000 A 
ATOM     84  C   UNL     1      -3.221   3.992  -4.153  1.00  0.00     0.000 A 
ATOM     85  C   UNL     1      -3.589   3.415  -5.366  1.00  0.00     0.000 A 
ENDBRANCH  79  80
ENDBRANCH  76  79
ENDBRANCH  74  76
ENDBRANCH  72  74
ENDBRANCH  70  71
ENDBRANCH   1  69
TORSDOF 17
ENDMDL
MODEL 8
REMARK VINA RESULT:    -6.514      4.283     11.300
REMARK INTER + INTRA:         -25.612
REMARK INTER:                 -18.450
REMARK INTRA:                  -7.163
REMARK UNBOUND:                -6.151
REMARK SMILES C=C1C(=O)N[C@H](C)C(=O)N[C@@H](CC(C)C)C(=O)N[C@@H](C(=O)O)[C@H](C)C(=O)N[C@@H](CCCN=C(N)N)C(=O)N[C@@H](/C=C/C(C)=C/[C@H](C)[C@H](Cc2ccccc2)OC)[C@H](C)C(=O)N[C@@H](C(=O)O)CCC(=O)N1C
REMARK SMILES IDX 39 1 38 2 37 3 36 4 28 6 27 7 25 8 26 9 23 11 24 12 19 13
REMARK SMILES IDX 18 14 16 15 17 16 11 18 10 19 8 20 9 21 12 24 13 25 14 26
REMARK SMILES IDX 15 27 20 28 21 29 22 30 29 32 30 33 31 34 32 35 33 36 34 37
REMARK SMILES IDX 35 38 57 43 58 44 59 45 60 46 61 47 62 49 66 50 67 51 68 52
REMARK SMILES IDX 69 53 70 54 71 55 2 56 1 57 3 58 4 59 5 60 6 62 7 63 63 65
REMARK SMILES IDX 64 66 65 67 40 69 41 70 42 71 44 72 43 73 45 74 46 75 47 76
REMARK SMILES IDX 55 77 56 78 48 79 49 80 50 81 54 82 51 83 53 84 52 85
REMARK H PARENT 38 5 27 10 18 17 10 22 22 31 34 39 34 40 35 41 35 42 61 48
REMARK H PARENT 5 61 65 68
REMARK Flexibility Score:  369.900
ROOT
ATOM      1  C   UNL     1       2.927   2.934  -2.250  1.00  0.00     0.117 C 
ENDROOT
BRANCH   1   2
ATOM      2  N   UNL     1       2.238   3.214  -0.989  1.00  0.00    -0.347 N 
ATOM      3  O   UNL     1       0.566   1.655  -1.194  1.00  0.00    -0.273 OA
ATOM      4  C   UNL     1       1.162   2.486  -0.518  1.00  0.00     0.243 C 
ATOM      5  H   UNL     1       2.585   3.946  -0.389  1.00  0.00     0.164 HD
BRANCH   4   6
ATOM      6  C   UNL     1       0.673   2.934   0.883  1.00  0.00     0.171 C 
BRANCH   6   7
ATOM      7  N   UNL     1      -0.774   2.705   1.020  1.00  0.00    -0.344 N 
ATOM      8  C   UNL     1      -1.644   3.766   1.146  1.00  0.00     0.226 C 
ATOM      9  O   UNL     1      -1.265   4.931   1.173  1.00  0.00    -0.275 OA
ATOM     10  H   UNL     1      -1.118   1.755   1.069  1.00  0.00     0.164 HD
BRANCH   8  11
ATOM     11  C   UNL     1      -3.108   3.369   1.222  1.00  0.00     0.109 C 
ATOM     12  C   UNL     1      -3.310   1.985   0.607  1.00  0.00     0.021 C 
BRANCH  11  13
ATOM     13  C   UNL     1      -3.613   3.515   2.672  1.00  0.00     0.204 C 
BRANCH  13  14
ATOM     14  N   UNL     1      -2.522   3.800   3.609  1.00  0.00    -0.340 N 
ATOM     15  C   UNL     1      -2.220   2.981   4.677  1.00  0.00     0.243 C 
ATOM     16  O   UNL     1      -2.807   1.920   4.882  1.00  0.00    -0.273 OA
ATOM     17  H   UNL     1      -2.100   4.731   3.586  1.00  0.00     0.164 HD
BRANCH  15  18
ATOM     18  C   UNL     1      -1.174   3.587   5.644  1.00  0.00     0.171 C 
BRANCH  18  19
ATOM     19  N   UNL     1      -0.931   2.585   6.680  1.00  0.00    -0.343 N 
ATOM     20  C   UNL     1      -1.611   2.601   7.882  1.00  0.00     0.242 CG0
ATOM     21  O   UNL     1      -2.352   3.532   8.190  1.00  0.00    -0.273 OA
ATOM     22  H   UNL     1      -0.242   1.859   6.518  1.00  0.00     0.164 HD
ATOM     23  G   UNL     1      -1.279   1.419   8.817  1.00  0.00     0.000 G0
ENDBRANCH  18  19
BRANCH  18  24
ATOM     24  C   UNL     1       0.116   3.943   4.893  1.00  0.00     0.038 C 
BRANCH  24  25
ATOM     25  C   UNL     1       0.873   5.164   5.455  1.00  0.00    -0.015 C 
ATOM     26  C   UNL     1       2.360   4.882   5.672  1.00  0.00     0.007 C 
ATOM     27  C   UNL     1       0.234   5.603   6.775  1.00  0.00     0.007 C 
ENDBRANCH  24  25
ENDBRANCH  18  24
ENDBRANCH  15  18
ENDBRANCH  13  14
BRANCH  13  28
ATOM     28  C   UNL     1      -4.657   4.623   2.839  1.00  0.00     0.327 C 
ATOM     29  O   UNL     1      -5.834   4.561   2.521  1.00  0.00    -0.250 OA
BRANCH  28  30
ATOM     30  O   UNL     1      -4.130   5.782   3.285  1.00  0.00    -0.480 OA
ATOM     31  H   UNL     1      -4.891   6.256   3.680  1.00  0.00     0.296 HD
ENDBRANCH  28  30
ENDBRANCH  13  28
ENDBRANCH  11  13
ENDBRANCH   8  11
ENDBRANCH   6   7
BRANCH   6  32
ATOM     32  C   UNL     1       1.452   2.166   1.957  1.00  0.00     0.037 C 
BRANCH  32  33
ATOM     33  C   UNL     1       0.849   0.782   2.233  1.00  0.00     0.026 C 
BRANCH  33  34
ATOM     34  C   UNL     1       0.399   0.619   3.685  1.00  0.00     0.146 C 
BRANCH  34  35
ATOM     35  N   UNL     1       0.055  -0.777   3.916  1.00  0.00    -0.254 NA
ATOM     36  C   UNL     1      -1.117  -1.183   3.594  1.00  0.00     0.185 C 
ATOM     37  N   UNL     1      -1.443  -2.468   3.798  1.00  0.00    -0.370 N 
ATOM     38  N   UNL     1      -2.132  -0.487   3.052  1.00  0.00    -0.370 N 
ATOM     39  H   UNL     1      -0.725  -3.061   4.195  1.00  0.00     0.159 HD
ATOM     40  H   UNL     1      -2.268  -2.900   3.418  1.00  0.00     0.159 HD
ATOM     41  H   UNL     1      -3.053  -0.886   2.973  1.00  0.00     0.159 HD
ATOM     42  H   UNL     1      -2.034   0.497   2.859  1.00  0.00     0.159 HD
ENDBRANCH  34  35
ENDBRANCH  33  34
ENDBRANCH  32  33
ENDBRANCH   6  32
ENDBRANCH   4   6
ENDBRANCH   1   2
BRANCH   1  43
ATOM     43  C   UNL     1       4.461   3.044  -2.011  1.00  0.00     0.102 C 
ATOM     44  C   UNL     1       4.922   4.466  -1.646  1.00  0.00     0.020 C 
BRANCH  43  45
ATOM     45  C   UNL     1       5.244   2.414  -3.167  1.00  0.00     0.225 C 
ATOM     46  O   UNL     1       5.721   1.284  -3.116  1.00  0.00    -0.275 OA
ATOM     47  N   UNL     1       5.467   3.235  -4.249  1.00  0.00    -0.342 N 
ATOM     48  H   UNL     1       4.945   4.096  -4.339  1.00  0.00     0.164 HD
BRANCH  47  49
ATOM     49  C   UNL     1       6.171   2.756  -5.442  1.00  0.00     0.192 C 
BRANCH  49  50
ATOM     50  C   UNL     1       6.883   3.926  -6.124  1.00  0.00     0.047 C 
BRANCH  50  51
ATOM     51  C   UNL     1       6.213   5.273  -5.818  1.00  0.00     0.103 C 
BRANCH  51  52
ATOM     52  C   UNL     1       5.798   6.009  -7.090  1.00  0.00     0.226 C 
ATOM     53  O   UNL     1       6.612   6.152  -8.005  1.00  0.00    -0.275 OA
BRANCH  52  54
ATOM     54  N   UNL     1       4.455   6.421  -7.167  1.00  0.00    -0.311 N 
ATOM     55  C   UNL     1       3.387   5.462  -7.479  1.00  0.00     0.153 C 
BRANCH  54  56
ATOM     56  C   UNL     1       4.085   7.757  -6.942  1.00  0.00     0.102 C 
ATOM     57  C   UNL     1       4.185   8.395  -5.764  1.00  0.00     0.043 C 
BRANCH  56  58
ATOM     58  C   UNL     1       3.568   8.618  -8.070  1.00  0.00     0.268 C 
ATOM     59  O   UNL     1       2.402   8.980  -8.156  1.00  0.00    -0.268 OA
ATOM     60  N   UNL     1       4.551   9.006  -8.948  1.00  0.00    -0.339 N 
ATOM     61  H   UNL     1       5.491   8.655  -8.813  1.00  0.00     0.164 HD
BRANCH  60  62
ATOM     62  C   UNL     1       4.281   9.894 -10.078  1.00  0.00     0.168 CG0
ATOM     63  C   UNL     1       5.564  10.232 -10.827  1.00  0.00     0.041 C 
ATOM     64  G   UNL     1       3.588  11.177  -9.574  1.00  0.00     0.000 G0
ENDBRANCH  60  62
ENDBRANCH  56  58
ENDBRANCH  54  56
ENDBRANCH  52  54
ENDBRANCH  51  52
ENDBRANCH  50  51
ENDBRANCH  49  50
BRANCH  49  65
ATOM     65  C   UNL     1       5.208   2.094  -6.440  1.00  0.00     0.326 C 
ATOM     66  O   UNL     1       3.989   2.168  -6.407  1.00  0.00    -0.250 OA
BRANCH  65  67
ATOM     67  O   UNL     1       5.808   1.334  -7.382  1.00  0.00    -0.480 OA
ATOM     68  H   UNL     1       6.765   1.505  -7.244  1.00  0.00     0.296 HD
ENDBRANCH  65  67
ENDBRANCH  49  65
ENDBRANCH  47  49
ENDBRANCH  43  45
ENDBRANCH   1  43
BRANCH   1  69
ATOM     69  C   UNL     1       2.281   3.826  -3.293  1.00  0.00    -0.001 C 
ATOM     70  C   UNL     1       1.320   3.492  -4.173  1.00  0.00     0.001 C 
BRANCH  70  71
ATOM     71  C   UNL     1       0.689   4.368  -5.161  1.00  0.00    -0.055 C 
ATOM     72  C   UNL     1       0.511   5.664  -4.828  1.00  0.00    -0.018 C 
ATOM     73  C   UNL     1       0.290   3.764  -6.482  1.00  0.00     0.044 C 
BRANCH  72  74
ATOM     74  C   UNL     1      -0.106   6.792  -5.643  1.00  0.00     0.038 C 
ATOM     75  C   UNL     1       0.742   8.046  -5.395  1.00  0.00     0.015 C 
BRANCH  74  76
ATOM     76  C   UNL     1      -1.607   6.931  -5.251  1.00  0.00     0.128 C 
BRANCH  76  77
ATOM     77  O   UNL     1      -2.057   8.273  -5.499  1.00  0.00    -0.381 OA
ATOM     78  C   UNL     1      -2.775   8.844  -4.414  1.00  0.00     0.195 C 
ENDBRANCH  76  77
BRANCH  76  79
ATOM     79  C   UNL     1      -2.526   5.862  -5.894  1.00  0.00     0.068 C 
BRANCH  79  80
ATOM     80  C   UNL     1      -3.104   4.795  -4.996  1.00  0.00    -0.045 A 
ATOM     81  C   UNL     1      -2.827   4.778  -3.623  1.00  0.00     0.004 A 
ATOM     82  C   UNL     1      -3.911   3.780  -5.533  1.00  0.00     0.004 A 
ATOM     83  C   UNL     1      -3.354   3.779  -2.802  1.00  0.00     0.000 A 
ATOM     84  C   UNL     1      -4.436   2.780  -4.711  1.00  0.00     0.000 A 
ATOM     85  C   UNL     1      -4.160   2.781  -3.346  1.00  0.00     0.000 A 
ENDBRANCH  79  80
ENDBRANCH  76  79
ENDBRANCH  74  76
ENDBRANCH  72  74
ENDBRANCH  70  71
ENDBRANCH   1  69
TORSDOF 17
ENDMDL
MODEL 9
REMARK VINA RESULT:    -6.462      4.369     10.294
REMARK INTER + INTRA:         -25.458
REMARK INTER:                 -18.446
REMARK INTRA:                  -7.012
REMARK UNBOUND:                -6.151
REMARK SMILES C=C1C(=O)N[C@H](C)C(=O)N[C@@H](CC(C)C)C(=O)N[C@@H](C(=O)O)[C@H](C)C(=O)N[C@@H](CCCN=C(N)N)C(=O)N[C@@H](/C=C/C(C)=C/[C@H](C)[C@H](Cc2ccccc2)OC)[C@H](C)C(=O)N[C@@H](C(=O)O)CCC(=O)N1C
REMARK SMILES IDX 39 1 38 2 37 3 36 4 28 6 27 7 25 8 26 9 23 11 24 12 19 13
REMARK SMILES IDX 18 14 16 15 17 16 11 18 10 19 8 20 9 21 12 24 13 25 14 26
REMARK SMILES IDX 15 27 20 28 21 29 22 30 29 32 30 33 31 34 32 35 33 36 34 37
REMARK SMILES IDX 35 38 57 43 58 44 59 45 60 46 61 47 62 49 66 50 67 51 68 52
REMARK SMILES IDX 69 53 70 54 71 55 2 56 1 57 3 58 4 59 5 60 6 62 7 63 63 65
REMARK SMILES IDX 64 66 65 67 40 69 41 70 42 71 44 72 43 73 45 74 46 75 47 76
REMARK SMILES IDX 55 77 56 78 48 79 49 80 50 81 54 82 51 83 53 84 52 85
REMARK H PARENT 38 5 27 10 18 17 10 22 22 31 34 39 34 40 35 41 35 42 61 48
REMARK H PARENT 5 61 65 68
REMARK Flexibility Score:  369.900
ROOT
ATOM      1  C   UNL     1       1.711   2.185   0.635  1.00  0.00     0.117 C 
ENDROOT
BRANCH   1   2
ATOM      2  N   UNL     1       0.666   2.712   1.514  1.00  0.00    -0.347 N 
ATOM      3  O   UNL     1      -0.845   1.002   1.264  1.00  0.00    -0.273 OA
ATOM      4  C   UNL     1      -0.494   2.032   1.830  1.00  0.00     0.243 C 
ATOM      5  H   UNL     1       0.803   3.604   1.965  1.00  0.00     0.164 HD
BRANCH   4   6
ATOM      6  C   UNL     1      -1.394   2.775   2.850  1.00  0.00     0.171 C 
BRANCH   6   7
ATOM      7  N   UNL     1      -2.705   3.078   2.255  1.00  0.00    -0.344 N 
ATOM      8  C   UNL     1      -3.159   4.377   2.180  1.00  0.00     0.226 C 
ATOM      9  O   UNL     1      -2.520   5.326   2.617  1.00  0.00    -0.275 OA
ATOM     10  H   UNL     1      -3.291   2.314   1.944  1.00  0.00     0.164 HD
BRANCH   8  11
ATOM     11  C   UNL     1      -4.503   4.531   1.490  1.00  0.00     0.109 C 
ATOM     12  C   UNL     1      -4.306   4.683  -0.018  1.00  0.00     0.021 C 
BRANCH  11  13
ATOM     13  C   UNL     1      -5.439   3.379   1.909  1.00  0.00     0.204 C 
BRANCH  13  14
ATOM     14  N   UNL     1      -5.924   3.534   3.284  1.00  0.00    -0.340 N 
ATOM     15  C   UNL     1      -5.637   2.631   4.285  1.00  0.00     0.243 C 
ATOM     16  O   UNL     1      -4.902   1.661   4.108  1.00  0.00    -0.273 OA
ATOM     17  H   UNL     1      -6.656   4.227   3.460  1.00  0.00     0.164 HD
BRANCH  15  18
ATOM     18  C   UNL     1      -6.424   2.888   5.593  1.00  0.00     0.171 C 
BRANCH  18  19
ATOM     19  N   UNL     1      -7.644   3.598   5.216  1.00  0.00    -0.343 N 
ATOM     20  C   UNL     1      -8.135   4.652   5.963  1.00  0.00     0.242 CG0
ATOM     21  O   UNL     1      -7.645   4.954   7.048  1.00  0.00    -0.273 OA
ATOM     22  H   UNL     1      -8.151   3.310   4.387  1.00  0.00     0.164 HD
ATOM     23  G   UNL     1      -9.387   5.327   5.366  1.00  0.00     0.000 G0
ENDBRANCH  18  19
BRANCH  18  24
ATOM     24  C   UNL     1      -6.740   1.566   6.303  1.00  0.00     0.038 C 
BRANCH  24  25
ATOM     25  C   UNL     1      -6.293   1.504   7.779  1.00  0.00    -0.015 C 
ATOM     26  C   UNL     1      -7.415   1.883   8.747  1.00  0.00     0.007 C 
ATOM     27  C   UNL     1      -5.093   2.430   7.993  1.00  0.00     0.007 C 
ENDBRANCH  24  25
ENDBRANCH  18  24
ENDBRANCH  15  18
ENDBRANCH  13  14
BRANCH  13  28
ATOM     28  C   UNL     1      -6.669   3.242   1.006  1.00  0.00     0.327 C 
ATOM     29  O   UNL     1      -7.561   4.066   0.871  1.00  0.00    -0.250 OA
BRANCH  28  30
ATOM     30  O   UNL     1      -6.765   2.031   0.422  1.00  0.00    -0.480 OA
ATOM     31  H   UNL     1      -6.854   2.231  -0.533  1.00  0.00     0.296 HD
ENDBRANCH  28  30
ENDBRANCH  13  28
ENDBRANCH  11  13
ENDBRANCH   8  11
ENDBRANCH   6   7
BRANCH   6  32
ATOM     32  C   UNL     1      -1.550   1.911   4.107  1.00  0.00     0.037 C 
BRANCH  32  33
ATOM     33  C   UNL     1      -0.236   1.786   4.891  1.00  0.00     0.026 C 
BRANCH  33  34
ATOM     34  C   UNL     1       0.474   0.457   4.634  1.00  0.00     0.146 C 
BRANCH  34  35
ATOM     35  N   UNL     1      -0.504  -0.620   4.701  1.00  0.00    -0.254 NA
ATOM     36  C   UNL     1      -0.549  -1.470   3.744  1.00  0.00     0.185 C 
ATOM     37  N   UNL     1      -1.444  -2.469   3.798  1.00  0.00    -0.370 N 
ATOM     38  N   UNL     1       0.201  -1.527   2.629  1.00  0.00    -0.370 N 
ATOM     39  H   UNL     1      -2.040  -2.500   4.615  1.00  0.00     0.159 HD
ATOM     40  H   UNL     1      -1.426  -3.265   3.184  1.00  0.00     0.159 HD
ATOM     41  H   UNL     1      -0.024  -2.164   1.882  1.00  0.00     0.159 HD
ATOM     42  H   UNL     1       0.905  -0.828   2.448  1.00  0.00     0.159 HD
ENDBRANCH  34  35
ENDBRANCH  33  34
ENDBRANCH  32  33
ENDBRANCH   6  32
ENDBRANCH   4   6
ENDBRANCH   1   2
BRANCH   1  43
ATOM     43  C   UNL     1       3.093   2.433   1.305  1.00  0.00     0.102 C 
ATOM     44  C   UNL     1       3.001   2.693   2.819  1.00  0.00     0.020 C 
BRANCH  43  45
ATOM     45  C   UNL     1       3.893   3.492   0.541  1.00  0.00     0.225 C 
ATOM     46  O   UNL     1       3.522   4.656   0.420  1.00  0.00    -0.275 OA
ATOM     47  N   UNL     1       5.025   3.034  -0.094  1.00  0.00    -0.342 N 
ATOM     48  H   UNL     1       5.395   2.123   0.137  1.00  0.00     0.164 HD
BRANCH  47  49
ATOM     49  C   UNL     1       5.908   3.941  -0.834  1.00  0.00     0.192 C 
BRANCH  49  50
ATOM     50  C   UNL     1       5.576   3.879  -2.327  1.00  0.00     0.047 C 
BRANCH  50  51
ATOM     51  C   UNL     1       4.931   2.544  -2.724  1.00  0.00     0.103 C 
BRANCH  51  52
ATOM     52  C   UNL     1       5.585   1.939  -3.965  1.00  0.00     0.226 C 
ATOM     53  O   UNL     1       6.811   1.972  -4.087  1.00  0.00    -0.275 OA
BRANCH  52  54
ATOM     54  N   UNL     1       4.725   1.300  -4.878  1.00  0.00    -0.311 N 
ATOM     55  C   UNL     1       4.260   1.989  -6.089  1.00  0.00     0.153 C 
BRANCH  54  56
ATOM     56  C   UNL     1       4.285  -0.018  -4.669  1.00  0.00     0.102 C 
ATOM     57  C   UNL     1       3.007  -0.378  -4.465  1.00  0.00     0.043 C 
BRANCH  56  58
ATOM     58  C   UNL     1       5.256  -1.175  -4.708  1.00  0.00     0.268 C 
ATOM     59  O   UNL     1       5.683  -1.724  -3.701  1.00  0.00    -0.268 OA
ATOM     60  N   UNL     1       5.556  -1.586  -5.985  1.00  0.00    -0.339 N 
ATOM     61  H   UNL     1       5.169  -1.070  -6.766  1.00  0.00     0.164 HD
BRANCH  60  62
ATOM     62  C   UNL     1       6.427  -2.730  -6.250  1.00  0.00     0.168 CG0
ATOM     63  C   UNL     1       5.612  -3.999  -6.469  1.00  0.00     0.041 C 
ATOM     64  G   UNL     1       7.415  -2.910  -5.079  1.00  0.00     0.000 G0
ENDBRANCH  60  62
ENDBRANCH  56  58
ENDBRANCH  54  56
ENDBRANCH  52  54
ENDBRANCH  51  52
ENDBRANCH  50  51
ENDBRANCH  49  50
BRANCH  49  65
ATOM     65  C   UNL     1       7.389   3.585  -0.627  1.00  0.00     0.326 C 
ATOM     66  O   UNL     1       8.150   4.136   0.155  1.00  0.00    -0.250 OA
BRANCH  65  67
ATOM     67  O   UNL     1       7.853   2.611  -1.441  1.00  0.00    -0.480 OA
ATOM     68  H   UNL     1       7.043   2.125  -1.706  1.00  0.00     0.296 HD
ENDBRANCH  65  67
ENDBRANCH  49  65
ENDBRANCH  47  49
ENDBRANCH  43  45
ENDBRANCH   1  43
BRANCH   1  69
ATOM     69  C   UNL     1       1.446   2.774  -0.739  1.00  0.00    -0.001 C 
ATOM     70  C   UNL     1       0.612   2.302  -1.683  1.00  0.00     0.001 C 
BRANCH  70  71
ATOM     71  C   UNL     1       0.349   2.890  -2.997  1.00  0.00    -0.055 C 
ATOM     72  C   UNL     1      -0.926   3.221  -3.293  1.00  0.00    -0.018 C 
ATOM     73  C   UNL     1       1.520   3.093  -3.924  1.00  0.00     0.044 C 
BRANCH  72  74
ATOM     74  C   UNL     1      -1.490   3.843  -4.562  1.00  0.00     0.038 C 
ATOM     75  C   UNL     1      -2.408   4.994  -4.133  1.00  0.00     0.015 C 
BRANCH  74  76
ATOM     76  C   UNL     1      -2.186   2.729  -5.399  1.00  0.00     0.128 C 
BRANCH  76  77
ATOM     77  O   UNL     1      -1.307   2.277  -6.442  1.00  0.00    -0.381 OA
ATOM     78  C   UNL     1      -1.683   2.722  -7.739  1.00  0.00     0.195 C 
ENDBRANCH  76  77
BRANCH  76  79
ATOM     79  C   UNL     1      -2.756   1.566  -4.548  1.00  0.00     0.068 C 
BRANCH  79  80
ATOM     80  C   UNL     1      -2.224   0.177  -4.804  1.00  0.00    -0.045 A 
ATOM     81  C   UNL     1      -2.940  -0.738  -5.587  1.00  0.00     0.004 A 
ATOM     82  C   UNL     1      -1.008  -0.231  -4.234  1.00  0.00     0.004 A 
ATOM     83  C   UNL     1      -2.448  -2.026  -5.808  1.00  0.00     0.000 A 
ATOM     84  C   UNL     1      -0.517  -1.520  -4.454  1.00  0.00     0.000 A 
ATOM     85  C   UNL     1      -1.236  -2.416  -5.242  1.00  0.00     0.000 A 
ENDBRANCH  79  80
ENDBRANCH  76  79
ENDBRANCH  74  76
ENDBRANCH  72  74
ENDBRANCH  70  71
ENDBRANCH   1  69
TORSDOF 17
ENDMDL
MODEL 10
REMARK VINA RESULT:    -6.431     11.392     17.268
REMARK INTER + INTRA:         -25.363
REMARK INTER:                 -18.283
REMARK INTRA:                  -7.081
REMARK UNBOUND:                -6.151
REMARK SMILES C=C1C(=O)N[C@H](C)C(=O)N[C@@H](CC(C)C)C(=O)N[C@@H](C(=O)O)[C@H](C)C(=O)N[C@@H](CCCN=C(N)N)C(=O)N[C@@H](/C=C/C(C)=C/[C@H](C)[C@H](Cc2ccccc2)OC)[C@H](C)C(=O)N[C@@H](C(=O)O)CCC(=O)N1C
REMARK SMILES IDX 39 1 38 2 37 3 36 4 28 6 27 7 25 8 26 9 23 11 24 12 19 13
REMARK SMILES IDX 18 14 16 15 17 16 11 18 10 19 8 20 9 21 12 24 13 25 14 26
REMARK SMILES IDX 15 27 20 28 21 29 22 30 29 32 30 33 31 34 32 35 33 36 34 37
REMARK SMILES IDX 35 38 57 43 58 44 59 45 60 46 61 47 62 49 66 50 67 51 68 52
REMARK SMILES IDX 69 53 70 54 71 55 2 56 1 57 3 58 4 59 5 60 6 62 7 63 63 65
REMARK SMILES IDX 64 66 65 67 40 69 41 70 42 71 44 72 43 73 45 74 46 75 47 76
REMARK SMILES IDX 55 77 56 78 48 79 49 80 50 81 54 82 51 83 53 84 52 85
REMARK H PARENT 38 5 27 10 18 17 10 22 22 31 34 39 34 40 35 41 35 42 61 48
REMARK H PARENT 5 61 65 68
REMARK Flexibility Score:  369.900
ROOT
ATOM      1  C   UNL     1     -11.784   1.220  -7.449  1.00  0.00     0.117 C 
ENDROOT
BRANCH   1   2
ATOM      2  N   UNL     1     -11.476   2.473  -8.139  1.00  0.00    -0.347 N 
ATOM      3  O   UNL     1     -11.865   3.900  -6.383  1.00  0.00    -0.273 OA
ATOM      4  C   UNL     1     -11.453   3.709  -7.522  1.00  0.00     0.243 C 
ATOM      5  H   UNL     1     -11.214   2.450  -9.113  1.00  0.00     0.164 HD
BRANCH   4   6
ATOM      6  C   UNL     1     -11.012   4.864  -8.458  1.00  0.00     0.171 C 
BRANCH   6   7
ATOM      7  N   UNL     1     -12.166   5.391  -9.203  1.00  0.00    -0.344 N 
ATOM      8  C   UNL     1     -12.085   5.611 -10.561  1.00  0.00     0.226 C 
ATOM      9  O   UNL     1     -11.062   5.405 -11.203  1.00  0.00    -0.275 OA
ATOM     10  H   UNL     1     -13.007   5.637  -8.695  1.00  0.00     0.164 HD
BRANCH   8  11
ATOM     11  C   UNL     1     -13.375   6.105 -11.193  1.00  0.00     0.109 C 
ATOM     12  C   UNL     1     -13.211   6.210 -12.709  1.00  0.00     0.021 C 
BRANCH  11  13
ATOM     13  C   UNL     1     -14.553   5.226 -10.727  1.00  0.00     0.204 C 
BRANCH  13  14
ATOM     14  N   UNL     1     -15.267   5.816  -9.591  1.00  0.00    -0.340 N 
ATOM     15  C   UNL     1     -15.428   7.175  -9.433  1.00  0.00     0.243 C 
ATOM     16  O   UNL     1     -15.036   7.988 -10.269  1.00  0.00    -0.273 OA
ATOM     17  H   UNL     1     -15.481   5.213  -8.792  1.00  0.00     0.164 HD
BRANCH  15  18
ATOM     18  C   UNL     1     -16.027   7.572  -8.062  1.00  0.00     0.171 C 
BRANCH  18  19
ATOM     19  N   UNL     1     -16.599   8.907  -8.225  1.00  0.00    -0.343 N 
ATOM     20  C   UNL     1     -16.096  10.003  -7.550  1.00  0.00     0.242 CG0
ATOM     21  O   UNL     1     -15.234   9.885  -6.683  1.00  0.00    -0.273 OA
ATOM     22  H   UNL     1     -17.391   9.037  -8.845  1.00  0.00     0.164 HD
ATOM     23  G   UNL     1     -16.777  11.340  -7.910  1.00  0.00     0.000 G0
ENDBRANCH  18  19
BRANCH  18  24
ATOM     24  C   UNL     1     -17.088   6.557  -7.620  1.00  0.00     0.038 C 
BRANCH  24  25
ATOM     25  C   UNL     1     -18.332   7.175  -6.947  1.00  0.00    -0.015 C 
ATOM     26  C   UNL     1     -18.209   7.226  -5.424  1.00  0.00     0.007 C 
ATOM     27  C   UNL     1     -19.579   6.377  -7.337  1.00  0.00     0.007 C 
ENDBRANCH  24  25
ENDBRANCH  18  24
ENDBRANCH  15  18
ENDBRANCH  13  14
BRANCH  13  28
ATOM     28  C   UNL     1     -15.586   4.969 -11.829  1.00  0.00     0.327 C 
ATOM     29  O   UNL     1     -15.707   3.944 -12.482  1.00  0.00    -0.250 OA
BRANCH  28  30
ATOM     30  O   UNL     1     -16.327   6.057 -12.122  1.00  0.00    -0.480 OA
ATOM     31  H   UNL     1     -17.224   5.833 -11.798  1.00  0.00     0.296 HD
ENDBRANCH  28  30
ENDBRANCH  13  28
ENDBRANCH  11  13
ENDBRANCH   8  11
ENDBRANCH   6   7
BRANCH   6  32
ATOM     32  C   UNL     1     -10.351   5.965  -7.621  1.00  0.00     0.037 C 
BRANCH  32  33
ATOM     33  C   UNL     1     -11.269   7.180  -7.434  1.00  0.00     0.026 C 
BRANCH  33  34
ATOM     34  C   UNL     1     -10.567   8.341  -6.728  1.00  0.00     0.146 C 
BRANCH  34  35
ATOM     35  N   UNL     1     -11.492   9.462  -6.635  1.00  0.00    -0.254 NA
ATOM     36  C   UNL     1     -11.771   9.935  -5.477  1.00  0.00     0.185 C 
ATOM     37  N   UNL     1     -12.618  10.971  -5.380  1.00  0.00    -0.370 N 
ATOM     38  N   UNL     1     -11.325   9.536  -4.272  1.00  0.00    -0.370 N 
ATOM     39  H   UNL     1     -12.990  11.336  -6.248  1.00  0.00     0.159 HD
ATOM     40  H   UNL     1     -12.750  11.504  -4.538  1.00  0.00     0.159 HD
ATOM     41  H   UNL     1     -11.726   9.898  -3.423  1.00  0.00     0.159 HD
ATOM     42  H   UNL     1     -10.693   8.755  -4.192  1.00  0.00     0.159 HD
ENDBRANCH  34  35
ENDBRANCH  33  34
ENDBRANCH  32  33
ENDBRANCH   6  32
ENDBRANCH   4   6
ENDBRANCH   1   2
BRANCH   1  43
ATOM     43  C   UNL     1     -10.596   0.236  -7.654  1.00  0.00     0.102 C 
ATOM     44  C   UNL     1      -9.686   0.110  -6.421  1.00  0.00     0.020 C 
BRANCH  43  45
ATOM     45  C   UNL     1      -9.843   0.546  -8.952  1.00  0.00     0.225 C 
ATOM     46  O   UNL     1     -10.405   0.698 -10.033  1.00  0.00    -0.275 OA
ATOM     47  N   UNL     1      -8.471   0.553  -8.854  1.00  0.00    -0.342 N 
ATOM     48  H   UNL     1      -8.035   0.578  -7.943  1.00  0.00     0.164 HD
BRANCH  47  49
ATOM     49  C   UNL     1      -7.622   0.869 -10.006  1.00  0.00     0.192 C 
BRANCH  49  50
ATOM     50  C   UNL     1      -6.474  -0.141 -10.092  1.00  0.00     0.047 C 
BRANCH  50  51
ATOM     51  C   UNL     1      -6.797  -1.452  -9.364  1.00  0.00     0.103 C 
BRANCH  51  52
ATOM     52  C   UNL     1      -5.808  -1.741  -8.236  1.00  0.00     0.226 C 
ATOM     53  O   UNL     1      -5.096  -0.833  -7.802  1.00  0.00    -0.275 OA
BRANCH  52  54
ATOM     54  N   UNL     1      -5.830  -3.042  -7.701  1.00  0.00    -0.311 N 
ATOM     55  C   UNL     1      -4.590  -3.812  -7.535  1.00  0.00     0.153 C 
BRANCH  54  56
ATOM     56  C   UNL     1      -7.032  -3.650  -7.301  1.00  0.00     0.102 C 
ATOM     57  C   UNL     1      -7.816  -3.216  -6.300  1.00  0.00     0.043 C 
BRANCH  56  58
ATOM     58  C   UNL     1      -7.570  -4.858  -8.031  1.00  0.00     0.268 C 
ATOM     59  O   UNL     1      -7.519  -4.983  -9.247  1.00  0.00    -0.268 OA
ATOM     60  N   UNL     1      -8.059  -5.826  -7.186  1.00  0.00    -0.339 N 
ATOM     61  H   UNL     1      -8.075  -5.640  -6.190  1.00  0.00     0.164 HD
BRANCH  60  62
ATOM     62  C   UNL     1      -8.571  -7.104  -7.679  1.00  0.00     0.168 CG0
ATOM     63  C   UNL     1     -10.073  -7.216  -7.450  1.00  0.00     0.041 C 
ATOM     64  G   UNL     1      -7.825  -8.262  -6.985  1.00  0.00     0.000 G0
ENDBRANCH  60  62
ENDBRANCH  56  58
ENDBRANCH  54  56
ENDBRANCH  52  54
ENDBRANCH  51  52
ENDBRANCH  50  51
ENDBRANCH  49  50
BRANCH  49  65
ATOM     65  C   UNL     1      -7.044   2.290  -9.912  1.00  0.00     0.326 C 
ATOM     66  O   UNL     1      -7.447   3.263 -10.532  1.00  0.00    -0.250 OA
BRANCH  65  67
ATOM     67  O   UNL     1      -5.967   2.408  -9.104  1.00  0.00    -0.480 OA
ATOM     68  H   UNL     1      -6.358   2.593  -8.223  1.00  0.00     0.296 HD
ENDBRANCH  65  67
ENDBRANCH  49  65
ENDBRANCH  47  49
ENDBRANCH  43  45
ENDBRANCH   1  43
BRANCH   1  69
ATOM     69  C   UNL     1     -13.167   0.807  -7.919  1.00  0.00    -0.001 C 
ATOM     70  C   UNL     1     -14.344   1.065  -7.321  1.00  0.00     0.001 C 
BRANCH  70  71
ATOM     71  C   UNL     1     -15.675   0.679  -7.794  1.00  0.00    -0.055 C 
ATOM     72  C   UNL     1     -16.066   1.133  -9.004  1.00  0.00    -0.018 C 
ATOM     73  C   UNL     1     -16.509  -0.203  -6.903  1.00  0.00     0.044 C 
BRANCH  72  74
ATOM     74  C   UNL     1     -17.375   0.896  -9.744  1.00  0.00     0.038 C 
ATOM     75  C   UNL     1     -17.020   0.589 -11.204  1.00  0.00     0.015 C 
BRANCH  74  76
ATOM     76  C   UNL     1     -18.296   2.135  -9.542  1.00  0.00     0.128 C 
BRANCH  76  77
ATOM     77  O   UNL     1     -18.766   2.609 -10.815  1.00  0.00    -0.381 OA
ATOM     78  C   UNL     1     -19.076   3.996 -10.829  1.00  0.00     0.195 C 
ENDBRANCH  76  77
BRANCH  76  79
ATOM     79  C   UNL     1     -19.443   1.908  -8.526  1.00  0.00     0.068 C 
BRANCH  79  80
ATOM     80  C   UNL     1     -19.286   2.487  -7.141  1.00  0.00    -0.045 A 
ATOM     81  C   UNL     1     -18.083   3.082  -6.740  1.00  0.00     0.004 A 
ATOM     82  C   UNL     1     -20.342   2.414  -6.220  1.00  0.00     0.004 A 
ATOM     83  C   UNL     1     -17.941   3.603  -5.452  1.00  0.00     0.000 A 
ATOM     84  C   UNL     1     -20.199   2.935  -4.932  1.00  0.00     0.000 A 
ATOM     85  C   UNL     1     -18.999   3.531  -4.549  1.00  0.00     0.000 A 
ENDBRANCH  79  80
ENDBRANCH  76  79
ENDBRANCH  74  76
ENDBRANCH  72  74
ENDBRANCH  70  71
ENDBRANCH   1  69
TORSDOF 17
ENDMDL
