MODEL 1
REMARK VINA RESULT:    -4.108      0.000      0.000
REMARK INTER + INTRA:          -9.830
REMARK INTER:                  -7.351
REMARK INTRA:                  -2.479
REMARK UNBOUND:                -2.479
REMARK SMILES CC[C@H](C)[C@H]1NC(=O)c2coc(n2)[C@H](C(C)C)NC(=O)[C@H]([C@@H](C)O)NC(=O)[C@H](C)NC(=O)c2csc1n2
REMARK SMILES IDX 11 1 13 2 12 3 9 4 10 5 7 6 6 7 8 8 5 10 36 11 35 12 34 13
REMARK SMILES IDX 37 14 33 15 31 16 32 17 30 18 28 20 29 21 3 23 4 24 2 25
REMARK SMILES IDX 1 26 14 27 18 28 19 29 20 30 21 32 25 33 26 34 27 35 22 38
REMARK SMILES IDX 23 39 24 40 15 42 16 43 17 44
REMARK H PARENT 6 9 30 19 18 31 25 36 24 41
REMARK Flexibility Score:   94.900
ROOT
ATOM      1  O   UNL     1      13.423  -2.227  -2.083  1.00  0.00    -0.446 OA
ATOM      2  N   UNL     1      12.051  -0.441  -2.006  1.00  0.00    -0.207 NA
ATOM      3  C   UNL     1      12.322  -1.639  -1.520  1.00  0.00     0.217 A 
ATOM      4  C   UNL     1      13.055  -0.214  -2.930  1.00  0.00     0.167 A 
ATOM      5  C   UNL     1      13.888  -1.306  -2.972  1.00  0.00     0.231 A 
ENDROOT
BRANCH   4   6
ATOM      6  C   UNL     1      13.142   0.998  -3.726  1.00  0.00     0.273 C 
ATOM      7  N   UNL     1      13.849   1.982  -3.082  1.00  0.00    -0.341 N 
ATOM      8  O   UNL     1      12.622   1.123  -4.828  1.00  0.00    -0.267 OA
ATOM      9  H   UNL     1      14.142   1.764  -2.134  1.00  0.00     0.164 HD
BRANCH   7  10
ATOM     10  C   UNL     1      13.879   3.359  -3.532  1.00  0.00     0.145 C 
BRANCH  10  11
ATOM     11  C   UNL     1      13.064   4.184  -2.547  1.00  0.00     0.116 A 
ATOM     12  S   UNL     1      12.611   5.797  -2.952  1.00  0.00    -0.124 S 
ATOM     13  C   UNL     1      11.781   5.929  -1.463  1.00  0.00     0.101 A 
ATOM     14  N   UNL     1      12.642   3.757  -1.368  1.00  0.00    -0.234 NA
ATOM     15  C   UNL     1      11.886   4.753  -0.745  1.00  0.00     0.139 A 
BRANCH  15  16
ATOM     16  C   UNL     1      11.260   4.540   0.562  1.00  0.00     0.271 C 
ATOM     17  O   UNL     1      10.767   5.451   1.219  1.00  0.00    -0.267 OA
ATOM     18  N   UNL     1      11.278   3.225   0.973  1.00  0.00    -0.339 N 
ATOM     19  H   UNL     1      11.813   2.585   0.392  1.00  0.00     0.164 HD
BRANCH  18  20
ATOM     20  C   UNL     1      10.760   2.835   2.278  1.00  0.00     0.168 CG0
ATOM     21  C   UNL     1       9.288   2.427   2.193  1.00  0.00     0.041 C 
ATOM     22  G   UNL     1      11.537   1.663   2.900  1.00  0.00     0.000 G0
ENDBRANCH  18  20
ENDBRANCH  15  16
ENDBRANCH  10  11
BRANCH  10  23
ATOM     23  C   UNL     1      15.328   3.891  -3.693  1.00  0.00     0.015 C 
ATOM     24  C   UNL     1      16.094   3.981  -2.363  1.00  0.00     0.010 C 
BRANCH  23  25
ATOM     25  C   UNL     1      16.164   3.059  -4.691  1.00  0.00     0.002 C 
ATOM     26  C   UNL     1      16.105   3.569  -6.124  1.00  0.00     0.004 C 
ENDBRANCH  23  25
ENDBRANCH  10  23
ENDBRANCH   7  10
ENDBRANCH   4   6
BRANCH   3  27
ATOM     27  C   UNL     1      11.532  -2.401  -0.491  1.00  0.00     0.171 C 
BRANCH  27  28
ATOM     28  N   UNL     1      11.400  -1.552   0.688  1.00  0.00    -0.342 N 
ATOM     29  C   UNL     1      11.919  -1.894   1.917  1.00  0.00     0.245 C 
ATOM     30  O   UNL     1      12.547  -2.934   2.108  1.00  0.00    -0.273 OA
ATOM     31  H   UNL     1      10.993  -0.624   0.580  1.00  0.00     0.164 HD
BRANCH  29  32
ATOM     32  C   UNL     1      11.792  -0.812   3.011  1.00  0.00     0.200 C 
BRANCH  32  33
ATOM     33  N   UNL     1      11.253   0.406   2.394  1.00  0.00    -0.340 N 
ATOM     34  C   UNL     1      11.519   1.653   2.920  1.00  0.00     0.243 CG0
ATOM     35  O   UNL     1      12.161   1.796   3.958  1.00  0.00    -0.273 OA
ATOM     36  H   UNL     1      10.694   0.317   1.553  1.00  0.00     0.164 HD
ATOM     37  G   UNL     1      10.781   2.827   2.258  1.00  0.00     0.000 G0
ENDBRANCH  32  33
BRANCH  32  38
ATOM     38  C   UNL     1      10.942  -1.311   4.203  1.00  0.00     0.143 C 
ATOM     39  C   UNL     1       9.438  -1.230   3.972  1.00  0.00     0.041 C 
BRANCH  38  40
ATOM     40  O   UNL     1      11.293  -2.672   4.523  1.00  0.00    -0.391 OA
ATOM     41  H   UNL     1      10.630  -3.241   4.088  1.00  0.00     0.211 HD
ENDBRANCH  38  40
ENDBRANCH  32  38
ENDBRANCH  29  32
ENDBRANCH  27  28
BRANCH  27  42
ATOM     42  C   UNL     1      10.167  -2.985  -0.929  1.00  0.00     0.015 C 
ATOM     43  C   UNL     1       8.970  -2.035  -0.799  1.00  0.00     0.010 C 
ATOM     44  C   UNL     1      10.223  -3.578  -2.340  1.00  0.00     0.010 C 
ENDBRANCH  27  42
ENDBRANCH   3  27
TORSDOF 5
ENDMDL
MODEL 2
REMARK VINA RESULT:    -4.054      6.754     10.134
REMARK INTER + INTRA:          -9.733
REMARK INTER:                  -7.659
REMARK INTRA:                  -2.073
REMARK UNBOUND:                -2.479
REMARK SMILES CC[C@H](C)[C@H]1NC(=O)c2coc(n2)[C@H](C(C)C)NC(=O)[C@H]([C@@H](C)O)NC(=O)[C@H](C)NC(=O)c2csc1n2
REMARK SMILES IDX 11 1 13 2 12 3 9 4 10 5 7 6 6 7 8 8 5 10 36 11 35 12 34 13
REMARK SMILES IDX 37 14 33 15 31 16 32 17 30 18 28 20 29 21 3 23 4 24 2 25
REMARK SMILES IDX 1 26 14 27 18 28 19 29 20 30 21 32 25 33 26 34 27 35 22 38
REMARK SMILES IDX 23 39 24 40 15 42 16 43 17 44
REMARK H PARENT 6 9 30 19 18 31 25 36 24 41
REMARK Flexibility Score:   94.900
ROOT
ATOM      1  O   UNL     1      12.102   0.743  10.030  1.00  0.00    -0.446 OA
ATOM      2  N   UNL     1      13.477   1.554   8.438  1.00  0.00    -0.207 NA
ATOM      3  C   UNL     1      13.384   1.040   9.652  1.00  0.00     0.217 A 
ATOM      4  C   UNL     1      12.172   1.572   7.978  1.00  0.00     0.167 A 
ATOM      5  C   UNL     1      11.340   1.076   8.952  1.00  0.00     0.231 A 
ENDROOT
BRANCH   4   6
ATOM      6  C   UNL     1      11.799   2.080   6.669  1.00  0.00     0.273 C 
ATOM      7  N   UNL     1      12.114   1.194   5.670  1.00  0.00    -0.341 N 
ATOM      8  O   UNL     1      11.290   3.179   6.488  1.00  0.00    -0.267 OA
ATOM      9  H   UNL     1      12.618   0.362   5.962  1.00  0.00     0.164 HD
BRANCH   7  10
ATOM     10  C   UNL     1      12.081   1.543   4.263  1.00  0.00     0.145 C 
BRANCH  10  11
ATOM     11  C   UNL     1      13.516   1.776   3.812  1.00  0.00     0.116 A 
ATOM     12  S   UNL     1      13.837   2.851   2.505  1.00  0.00    -0.124 S 
ATOM     13  C   UNL     1      15.513   2.570   2.695  1.00  0.00     0.101 A 
ATOM     14  N   UNL     1      14.583   1.218   4.361  1.00  0.00    -0.234 NA
ATOM     15  C   UNL     1      15.739   1.686   3.732  1.00  0.00     0.139 A 
BRANCH  15  16
ATOM     16  C   UNL     1      17.074   1.263   4.162  1.00  0.00     0.271 C 
ATOM     17  O   UNL     1      18.019   1.155   3.388  1.00  0.00    -0.267 OA
ATOM     18  N   UNL     1      17.160   1.002   5.513  1.00  0.00    -0.339 N 
ATOM     19  H   UNL     1      16.283   1.020   6.026  1.00  0.00     0.164 HD
BRANCH  18  20
ATOM     20  C   UNL     1      18.393   0.506   6.109  1.00  0.00     0.168 CG0
ATOM     21  C   UNL     1      19.110   1.602   6.899  1.00  0.00     0.041 C 
ATOM     22  G   UNL     1      18.159  -0.682   7.057  1.00  0.00     0.000 G0
ENDBRANCH  18  20
ENDBRANCH  15  16
ENDBRANCH  10  11
BRANCH  10  23
ATOM     23  C   UNL     1      11.361   0.466   3.409  1.00  0.00     0.015 C 
ATOM     24  C   UNL     1      12.309  -0.620   2.872  1.00  0.00     0.010 C 
BRANCH  23  25
ATOM     25  C   UNL     1      10.201  -0.220   4.166  1.00  0.00     0.002 C 
ATOM     26  C   UNL     1      10.360  -1.728   4.306  1.00  0.00     0.004 C 
ENDBRANCH  23  25
ENDBRANCH  10  23
ENDBRANCH   7  10
ENDBRANCH   4   6
BRANCH   3  27
ATOM     27  C   UNL     1      14.506   0.814  10.629  1.00  0.00     0.171 C 
BRANCH  27  28
ATOM     28  N   UNL     1      15.638   0.265   9.890  1.00  0.00    -0.342 N 
ATOM     29  C   UNL     1      16.315  -0.864  10.292  1.00  0.00     0.245 C 
ATOM     30  O   UNL     1      16.006  -1.503  11.296  1.00  0.00    -0.273 OA
ATOM     31  H   UNL     1      15.879   0.673   8.988  1.00  0.00     0.164 HD
BRANCH  29  32
ATOM     32  C   UNL     1      17.399  -1.366   9.315  1.00  0.00     0.200 C 
BRANCH  32  33
ATOM     33  N   UNL     1      17.579  -0.354   8.266  1.00  0.00    -0.340 N 
ATOM     34  C   UNL     1      18.143  -0.676   7.049  1.00  0.00     0.243 CG0
ATOM     35  O   UNL     1      18.576  -1.802   6.812  1.00  0.00    -0.273 OA
ATOM     36  H   UNL     1      17.259   0.591   8.445  1.00  0.00     0.164 HD
ATOM     37  G   UNL     1      18.397   0.505   6.099  1.00  0.00     0.000 G0
ENDBRANCH  32  33
BRANCH  32  38
ATOM     38  C   UNL     1      18.713  -1.708  10.055  1.00  0.00     0.143 C 
ATOM     39  C   UNL     1      19.188  -0.621  11.013  1.00  0.00     0.041 C 
BRANCH  38  40
ATOM     40  O   UNL     1      18.562  -2.941  10.784  1.00  0.00    -0.391 OA
ATOM     41  H   UNL     1      19.283  -3.529  10.490  1.00  0.00     0.211 HD
ENDBRANCH  38  40
ENDBRANCH  32  38
ENDBRANCH  29  32
ENDBRANCH  27  28
BRANCH  27  42
ATOM     42  C   UNL     1      14.931   2.010  11.515  1.00  0.00     0.015 C 
ATOM     43  C   UNL     1      13.799   2.952  11.942  1.00  0.00     0.010 C 
ATOM     44  C   UNL     1      15.736   1.559  12.738  1.00  0.00     0.010 C 
ENDBRANCH  27  42
ENDBRANCH   3  27
TORSDOF 5
ENDMDL
MODEL 3
REMARK VINA RESULT:    -4.040     10.274     14.193
REMARK INTER + INTRA:          -9.708
REMARK INTER:                  -7.248
REMARK INTRA:                  -2.460
REMARK UNBOUND:                -2.479
REMARK SMILES CC[C@H](C)[C@H]1NC(=O)c2coc(n2)[C@H](C(C)C)NC(=O)[C@H]([C@@H](C)O)NC(=O)[C@H](C)NC(=O)c2csc1n2
REMARK SMILES IDX 11 1 13 2 12 3 9 4 10 5 7 6 6 7 8 8 5 10 36 11 35 12 34 13
REMARK SMILES IDX 37 14 33 15 31 16 32 17 30 18 28 20 29 21 3 23 4 24 2 25
REMARK SMILES IDX 1 26 14 27 18 28 19 29 20 30 21 32 25 33 26 34 27 35 22 38
REMARK SMILES IDX 23 39 24 40 15 42 16 43 17 44
REMARK H PARENT 6 9 30 19 18 31 25 36 24 41
REMARK Flexibility Score:   94.900
ROOT
ATOM      1  O   UNL     1       5.002   6.742  10.524  1.00  0.00    -0.446 OA
ATOM      2  N   UNL     1       5.292   4.512  10.678  1.00  0.00    -0.207 NA
ATOM      3  C   UNL     1       4.524   5.543  10.981  1.00  0.00     0.217 A 
ATOM      4  C   UNL     1       6.331   5.066   9.950  1.00  0.00     0.167 A 
ATOM      5  C   UNL     1       6.148   6.424   9.859  1.00  0.00     0.231 A 
ENDROOT
BRANCH   4   6
ATOM      6  C   UNL     1       7.433   4.283   9.418  1.00  0.00     0.273 C 
ATOM      7  N   UNL     1       7.170   3.827   8.151  1.00  0.00    -0.341 N 
ATOM      8  O   UNL     1       8.459   4.044  10.044  1.00  0.00    -0.267 OA
ATOM      9  H   UNL     1       6.239   4.027   7.795  1.00  0.00     0.164 HD
BRANCH   7  10
ATOM     10  C   UNL     1       7.980   2.827   7.485  1.00  0.00     0.145 C 
BRANCH  10  11
ATOM     11  C   UNL     1       7.373   1.465   7.789  1.00  0.00     0.116 A 
ATOM     12  S   UNL     1       8.367   0.058   7.749  1.00  0.00    -0.124 S 
ATOM     13  C   UNL     1       7.023  -0.895   8.204  1.00  0.00     0.101 A 
ATOM     14  N   UNL     1       6.106   1.254   8.107  1.00  0.00    -0.234 NA
ATOM     15  C   UNL     1       5.902  -0.104   8.364  1.00  0.00     0.139 A 
BRANCH  15  16
ATOM     16  C   UNL     1       4.595  -0.621   8.778  1.00  0.00     0.271 C 
ATOM     17  O   UNL     1       4.277  -1.798   8.656  1.00  0.00    -0.267 OA
ATOM     18  N   UNL     1       3.767   0.342   9.315  1.00  0.00    -0.339 N 
ATOM     19  H   UNL     1       4.104   1.300   9.259  1.00  0.00     0.164 HD
BRANCH  18  20
ATOM     20  C   UNL     1       2.404   0.025   9.719  1.00  0.00     0.168 CG0
ATOM     21  C   UNL     1       2.331  -0.318  11.209  1.00  0.00     0.041 C 
ATOM     22  G   UNL     1       1.422   1.178   9.454  1.00  0.00     0.000 G0
ENDBRANCH  18  20
ENDBRANCH  15  16
ENDBRANCH  10  11
BRANCH  10  23
ATOM     23  C   UNL     1       8.104   3.093   5.961  1.00  0.00     0.015 C 
ATOM     24  C   UNL     1       7.266   4.289   5.482  1.00  0.00     0.010 C 
BRANCH  23  25
ATOM     25  C   UNL     1       9.567   3.300   5.507  1.00  0.00     0.002 C 
ATOM     26  C   UNL     1      10.592   3.102   6.615  1.00  0.00     0.004 C 
ENDBRANCH  23  25
ENDBRANCH  10  23
ENDBRANCH   7  10
ENDBRANCH   4   6
BRANCH   3  27
ATOM     27  C   UNL     1       3.259   5.523  11.794  1.00  0.00     0.171 C 
BRANCH  27  28
ATOM     28  N   UNL     1       2.439   4.414  11.316  1.00  0.00    -0.342 N 
ATOM     29  C   UNL     1       1.127   4.568  10.927  1.00  0.00     0.245 C 
ATOM     30  O   UNL     1       0.553   5.656  10.939  1.00  0.00    -0.273 OA
ATOM     31  H   UNL     1       2.880   3.506  11.171  1.00  0.00     0.164 HD
BRANCH  29  32
ATOM     32  C   UNL     1       0.464   3.309  10.330  1.00  0.00     0.200 C 
BRANCH  32  33
ATOM     33  N   UNL     1       1.429   2.204  10.397  1.00  0.00    -0.340 N 
ATOM     34  C   UNL     1       1.436   1.202   9.450  1.00  0.00     0.243 CG0
ATOM     35  O   UNL     1       0.601   1.153   8.549  1.00  0.00    -0.273 OA
ATOM     36  H   UNL     1       2.111   2.201  11.147  1.00  0.00     0.164 HD
ATOM     37  G   UNL     1       2.405   0.039   9.718  1.00  0.00     0.000 G0
ENDBRANCH  32  33
BRANCH  32  38
ATOM     38  C   UNL     1      -0.873   2.985  11.036  1.00  0.00     0.143 C 
ATOM     39  C   UNL     1      -0.713   2.386  12.429  1.00  0.00     0.041 C 
BRANCH  38  40
ATOM     40  O   UNL     1      -1.681   4.174  11.130  1.00  0.00    -0.391 OA
ATOM     41  H   UNL     1      -1.270   4.838  10.544  1.00  0.00     0.211 HD
ENDBRANCH  38  40
ENDBRANCH  32  38
ENDBRANCH  29  32
ENDBRANCH  27  28
BRANCH  27  42
ATOM     42  C   UNL     1       3.401   5.502  13.336  1.00  0.00     0.015 C 
ATOM     43  C   UNL     1       2.160   5.942  14.120  1.00  0.00     0.010 C 
ATOM     44  C   UNL     1       3.900   4.146  13.847  1.00  0.00     0.010 C 
ENDBRANCH  27  42
ENDBRANCH   3  27
TORSDOF 5
ENDMDL
MODEL 4
REMARK VINA RESULT:    -3.943      3.157      5.872
REMARK INTER + INTRA:          -9.533
REMARK INTER:                  -7.467
REMARK INTRA:                  -2.066
REMARK UNBOUND:                -2.479
REMARK SMILES CC[C@H](C)[C@H]1NC(=O)c2coc(n2)[C@H](C(C)C)NC(=O)[C@H]([C@@H](C)O)NC(=O)[C@H](C)NC(=O)c2csc1n2
REMARK SMILES IDX 11 1 13 2 12 3 9 4 10 5 7 6 6 7 8 8 5 10 36 11 35 12 34 13
REMARK SMILES IDX 37 14 33 15 31 16 32 17 30 18 28 20 29 21 3 23 4 24 2 25
REMARK SMILES IDX 1 26 14 27 18 28 19 29 20 30 21 32 25 33 26 34 27 35 22 38
REMARK SMILES IDX 23 39 24 40 15 42 16 43 17 44
REMARK H PARENT 6 9 30 19 18 31 25 36 24 41
REMARK Flexibility Score:   94.900
ROOT
ATOM      1  O   UNL     1      15.129   2.130  -3.067  1.00  0.00    -0.446 OA
ATOM      2  N   UNL     1      13.307   2.522  -1.799  1.00  0.00    -0.207 NA
ATOM      3  C   UNL     1      13.791   1.917  -2.869  1.00  0.00     0.217 A 
ATOM      4  C   UNL     1      14.405   3.153  -1.241  1.00  0.00     0.167 A 
ATOM      5  C   UNL     1      15.512   2.909  -2.017  1.00  0.00     0.231 A 
ENDROOT
BRANCH   4   6
ATOM      6  C   UNL     1      14.329   3.961  -0.036  1.00  0.00     0.273 C 
ATOM      7  N   UNL     1      15.242   3.559   0.906  1.00  0.00    -0.341 N 
ATOM      8  O   UNL     1      13.525   4.872   0.119  1.00  0.00    -0.267 OA
ATOM      9  H   UNL     1      15.780   2.729   0.673  1.00  0.00     0.164 HD
BRANCH   7  10
ATOM     10  C   UNL     1      15.218   4.023   2.279  1.00  0.00     0.145 C 
BRANCH  10  11
ATOM     11  C   UNL     1      14.436   3.004   3.096  1.00  0.00     0.116 A 
ATOM     12  S   UNL     1      14.312   3.191   4.804  1.00  0.00    -0.124 S 
ATOM     13  C   UNL     1      13.337   1.789   4.880  1.00  0.00     0.101 A 
ATOM     14  N   UNL     1      13.805   1.955   2.595  1.00  0.00    -0.234 NA
ATOM     15  C   UNL     1      13.155   1.259   3.617  1.00  0.00     0.139 A 
BRANCH  15  16
ATOM     16  C   UNL     1      12.344   0.070   3.345  1.00  0.00     0.271 C 
ATOM     17  O   UNL     1      11.812  -0.589   4.231  1.00  0.00    -0.267 OA
ATOM     18  N   UNL     1      12.239  -0.229   2.003  1.00  0.00    -0.339 N 
ATOM     19  H   UNL     1      12.816   0.328   1.377  1.00  0.00     0.164 HD
BRANCH  18  20
ATOM     20  C   UNL     1      11.527  -1.415   1.547  1.00  0.00     0.168 CG0
ATOM     21  C   UNL     1      10.104  -1.073   1.101  1.00  0.00     0.041 C 
ATOM     22  G   UNL     1      12.231  -2.117   0.375  1.00  0.00     0.000 G0
ENDBRANCH  18  20
ENDBRANCH  15  16
ENDBRANCH  10  11
BRANCH  10  23
ATOM     23  C   UNL     1      16.645   4.261   2.842  1.00  0.00     0.015 C 
ATOM     24  C   UNL     1      17.757   3.700   1.940  1.00  0.00     0.010 C 
BRANCH  23  25
ATOM     25  C   UNL     1      16.937   5.754   3.117  1.00  0.00     0.002 C 
ATOM     26  C   UNL     1      17.221   6.068   4.580  1.00  0.00     0.004 C 
ENDBRANCH  23  25
ENDBRANCH  10  23
ENDBRANCH   7  10
ENDBRANCH   4   6
BRANCH   3  27
ATOM     27  C   UNL     1      13.024   1.099  -3.872  1.00  0.00     0.171 C 
BRANCH  27  28
ATOM     28  N   UNL     1      12.465  -0.054  -3.174  1.00  0.00    -0.342 N 
ATOM     29  C   UNL     1      13.174  -1.214  -2.960  1.00  0.00     0.245 C 
ATOM     30  O   UNL     1      14.338  -1.360  -3.328  1.00  0.00    -0.273 OA
ATOM     31  H   UNL     1      11.546   0.035  -2.741  1.00  0.00     0.164 HD
BRANCH  29  32
ATOM     32  C   UNL     1      12.461  -2.272  -2.092  1.00  0.00     0.200 C 
BRANCH  32  33
ATOM     33  N   UNL     1      11.964  -1.613  -0.877  1.00  0.00    -0.340 N 
ATOM     34  C   UNL     1      12.219  -2.133   0.375  1.00  0.00     0.243 CG0
ATOM     35  O   UNL     1      12.814  -3.198   0.527  1.00  0.00    -0.273 OA
ATOM     36  H   UNL     1      11.443  -0.749  -0.973  1.00  0.00     0.164 HD
ATOM     37  G   UNL     1      11.525  -1.420   1.546  1.00  0.00     0.000 G0
ENDBRANCH  32  33
BRANCH  32  38
ATOM     38  C   UNL     1      11.347  -2.996  -2.883  1.00  0.00     0.143 C 
ATOM     39  C   UNL     1      10.092  -3.286  -2.069  1.00  0.00     0.041 C 
BRANCH  38  40
ATOM     40  O   UNL     1      10.983  -2.221  -4.042  1.00  0.00    -0.391 OA
ATOM     41  H   UNL     1      10.559  -1.406  -3.712  1.00  0.00     0.211 HD
ENDBRANCH  38  40
ENDBRANCH  32  38
ENDBRANCH  29  32
ENDBRANCH  27  28
BRANCH  27  42
ATOM     42  C   UNL     1      11.952   1.829  -4.718  1.00  0.00     0.015 C 
ATOM     43  C   UNL     1      10.505   1.382  -4.479  1.00  0.00     0.010 C 
ATOM     44  C   UNL     1      12.065   3.352  -4.595  1.00  0.00     0.010 C 
ENDBRANCH  27  42
ENDBRANCH   3  27
TORSDOF 5
ENDMDL
MODEL 5
REMARK VINA RESULT:    -3.904     16.966     20.165
REMARK INTER + INTRA:          -9.464
REMARK INTER:                  -7.370
REMARK INTRA:                  -2.095
REMARK UNBOUND:                -2.479
REMARK SMILES CC[C@H](C)[C@H]1NC(=O)c2coc(n2)[C@H](C(C)C)NC(=O)[C@H]([C@@H](C)O)NC(=O)[C@H](C)NC(=O)c2csc1n2
REMARK SMILES IDX 11 1 13 2 12 3 9 4 10 5 7 6 6 7 8 8 5 10 36 11 35 12 34 13
REMARK SMILES IDX 37 14 33 15 31 16 32 17 30 18 28 20 29 21 3 23 4 24 2 25
REMARK SMILES IDX 1 26 14 27 18 28 19 29 20 30 21 32 25 33 26 34 27 35 22 38
REMARK SMILES IDX 23 39 24 40 15 42 16 43 17 44
REMARK H PARENT 6 9 30 19 18 31 25 36 24 41
REMARK Flexibility Score:   94.900
ROOT
ATOM      1  O   UNL     1      -0.970  -9.804  -2.600  1.00  0.00    -0.446 OA
ATOM      2  N   UNL     1      -2.508  -8.313  -1.898  1.00  0.00    -0.207 NA
ATOM      3  C   UNL     1      -2.167  -9.180  -2.834  1.00  0.00     0.217 A 
ATOM      4  C   UNL     1      -1.480  -8.390  -0.974  1.00  0.00     0.167 A 
ATOM      5  C   UNL     1      -0.548  -9.300  -1.407  1.00  0.00     0.231 A 
ENDROOT
BRANCH   4   6
ATOM      6  C   UNL     1      -1.436  -7.582   0.233  1.00  0.00     0.273 C 
ATOM      7  N   UNL     1      -1.526  -8.351   1.365  1.00  0.00    -0.341 N 
ATOM      8  O   UNL     1      -1.354  -6.359   0.227  1.00  0.00    -0.267 OA
ATOM      9  H   UNL     1      -1.683  -9.343   1.212  1.00  0.00     0.164 HD
BRANCH   7  10
ATOM     10  C   UNL     1      -1.754  -7.795   2.684  1.00  0.00     0.145 C 
BRANCH  10  11
ATOM     11  C   UNL     1      -3.194  -7.304   2.734  1.00  0.00     0.116 A 
ATOM     12  S   UNL     1      -3.603  -5.956   3.727  1.00  0.00    -0.124 S 
ATOM     13  C   UNL     1      -5.224  -6.066   3.195  1.00  0.00     0.101 A 
ATOM     14  N   UNL     1      -4.198  -7.828   2.050  1.00  0.00    -0.234 NA
ATOM     15  C   UNL     1      -5.368  -7.107   2.298  1.00  0.00     0.139 A 
BRANCH  15  16
ATOM     16  C   UNL     1      -6.633  -7.443   1.641  1.00  0.00     0.271 C 
ATOM     17  O   UNL     1      -7.726  -7.239   2.158  1.00  0.00    -0.267 OA
ATOM     18  N   UNL     1      -6.472  -8.006   0.392  1.00  0.00    -0.339 N 
ATOM     19  H   UNL     1      -5.517  -8.225   0.123  1.00  0.00     0.164 HD
BRANCH  18  20
ATOM     20  C   UNL     1      -7.618  -8.466  -0.381  1.00  0.00     0.168 CG0
ATOM     21  C   UNL     1      -7.985  -7.467  -1.480  1.00  0.00     0.041 C 
ATOM     22  G   UNL     1      -7.375  -9.830  -1.048  1.00  0.00     0.000 G0
ENDBRANCH  18  20
ENDBRANCH  15  16
ENDBRANCH  10  11
BRANCH  10  23
ATOM     23  C   UNL     1      -1.436  -8.812   3.812  1.00  0.00     0.015 C 
ATOM     24  C   UNL     1      -0.646  -8.199   4.980  1.00  0.00     0.010 C 
BRANCH  23  25
ATOM     25  C   UNL     1      -2.703  -9.495   4.376  1.00  0.00     0.002 C 
ATOM     26  C   UNL     1      -2.842  -9.386   5.888  1.00  0.00     0.004 C 
ENDBRANCH  23  25
ENDBRANCH  10  23
ENDBRANCH   7  10
ENDBRANCH   4   6
BRANCH   3  27
ATOM     27  C   UNL     1      -2.916  -9.488  -4.101  1.00  0.00     0.171 C 
BRANCH  27  28
ATOM     28  N   UNL     1      -4.312  -9.723  -3.748  1.00  0.00    -0.342 N 
ATOM     29  C   UNL     1      -4.797 -10.965  -3.404  1.00  0.00     0.245 C 
ATOM     30  O   UNL     1      -4.085 -11.967  -3.353  1.00  0.00    -0.273 OA
ATOM     31  H   UNL     1      -4.936  -8.922  -3.657  1.00  0.00     0.164 HD
BRANCH  29  32
ATOM     32  C   UNL     1      -6.268 -10.993  -2.938  1.00  0.00     0.200 C 
BRANCH  32  33
ATOM     33  N   UNL     1      -6.520  -9.789  -2.137  1.00  0.00    -0.340 N 
ATOM     34  C   UNL     1      -7.351  -9.823  -1.036  1.00  0.00     0.243 CG0
ATOM     35  O   UNL     1      -7.964 -10.839  -0.715  1.00  0.00    -0.273 OA
ATOM     36  H   UNL     1      -6.053  -8.928  -2.395  1.00  0.00     0.164 HD
ATOM     37  G   UNL     1      -7.635  -8.465  -0.373  1.00  0.00     0.000 G0
ENDBRANCH  32  33
BRANCH  32  38
ATOM     38  C   UNL     1      -7.238 -11.136  -4.134  1.00  0.00     0.143 C 
ATOM     39  C   UNL     1      -7.658  -9.809  -4.756  1.00  0.00     0.041 C 
BRANCH  38  40
ATOM     40  O   UNL     1      -6.644 -11.963  -5.153  1.00  0.00    -0.391 OA
ATOM     41  H   UNL     1      -6.678 -11.451  -5.983  1.00  0.00     0.211 HD
ENDBRANCH  38  40
ENDBRANCH  32  38
ENDBRANCH  29  32
ENDBRANCH  27  28
BRANCH  27  42
ATOM     42  C   UNL     1      -2.786  -8.481  -5.270  1.00  0.00     0.015 C 
ATOM     43  C   UNL     1      -1.452  -7.730  -5.350  1.00  0.00     0.010 C 
ATOM     44  C   UNL     1      -3.115  -9.125  -6.621  1.00  0.00     0.010 C 
ENDBRANCH  27  42
ENDBRANCH   3  27
TORSDOF 5
ENDMDL
MODEL 6
REMARK VINA RESULT:    -3.783      4.944      8.711
REMARK INTER + INTRA:          -9.248
REMARK INTER:                  -6.905
REMARK INTRA:                  -2.344
REMARK UNBOUND:                -2.479
REMARK SMILES CC[C@H](C)[C@H]1NC(=O)c2coc(n2)[C@H](C(C)C)NC(=O)[C@H]([C@@H](C)O)NC(=O)[C@H](C)NC(=O)c2csc1n2
REMARK SMILES IDX 11 1 13 2 12 3 9 4 10 5 7 6 6 7 8 8 5 10 36 11 35 12 34 13
REMARK SMILES IDX 37 14 33 15 31 16 32 17 30 18 28 20 29 21 3 23 4 24 2 25
REMARK SMILES IDX 1 26 14 27 18 28 19 29 20 30 21 32 25 33 26 34 27 35 22 38
REMARK SMILES IDX 23 39 24 40 15 42 16 43 17 44
REMARK H PARENT 6 9 30 19 18 31 25 36 24 41
REMARK Flexibility Score:   94.900
ROOT
ATOM      1  O   UNL     1      15.593   4.178   3.328  1.00  0.00    -0.446 OA
ATOM      2  N   UNL     1      13.435   3.533   3.424  1.00  0.00    -0.207 NA
ATOM      3  C   UNL     1      14.276   4.551   3.366  1.00  0.00     0.217 A 
ATOM      4  C   UNL     1      14.252   2.416   3.395  1.00  0.00     0.167 A 
ATOM      5  C   UNL     1      15.565   2.816   3.336  1.00  0.00     0.231 A 
ENDROOT
BRANCH   4   6
ATOM      6  C   UNL     1      13.742   1.058   3.454  1.00  0.00     0.273 C 
ATOM      7  N   UNL     1      12.507   0.951   2.866  1.00  0.00    -0.341 N 
ATOM      8  O   UNL     1      14.339   0.132   3.991  1.00  0.00    -0.267 OA
ATOM      9  H   UNL     1      12.095   1.823   2.545  1.00  0.00     0.164 HD
BRANCH   7  10
ATOM     10  C   UNL     1      11.665  -0.221   2.999  1.00  0.00     0.145 C 
BRANCH  10  11
ATOM     11  C   UNL     1      10.931  -0.112   4.328  1.00  0.00     0.116 A 
ATOM     12  S   UNL     1      10.188  -1.508   5.012  1.00  0.00    -0.124 S 
ATOM     13  C   UNL     1       9.697  -0.579   6.359  1.00  0.00     0.101 A 
ATOM     14  N   UNL     1      10.817   0.996   5.043  1.00  0.00    -0.234 NA
ATOM     15  C   UNL     1      10.121   0.729   6.224  1.00  0.00     0.139 A 
BRANCH  15  16
ATOM     16  C   UNL     1       9.880   1.769   7.227  1.00  0.00     0.271 C 
ATOM     17  O   UNL     1       8.908   1.761   7.973  1.00  0.00    -0.267 OA
ATOM     18  N   UNL     1      10.850   2.749   7.248  1.00  0.00    -0.339 N 
ATOM     19  H   UNL     1      11.544   2.704   6.506  1.00  0.00     0.164 HD
BRANCH  18  20
ATOM     20  C   UNL     1      10.741   3.900   8.134  1.00  0.00     0.168 CG0
ATOM     21  C   UNL     1      12.040   4.129   8.910  1.00  0.00     0.041 C 
ATOM     22  G   UNL     1      10.407   5.199   7.384  1.00  0.00     0.000 G0
ENDBRANCH  18  20
ENDBRANCH  15  16
ENDBRANCH  10  11
BRANCH  10  23
ATOM     23  C   UNL     1      10.694  -0.385   1.800  1.00  0.00     0.015 C 
ATOM     24  C   UNL     1       9.887   0.887   1.491  1.00  0.00     0.010 C 
BRANCH  23  25
ATOM     25  C   UNL     1      11.411  -0.841   0.509  1.00  0.00     0.002 C 
ATOM     26  C   UNL     1      11.717  -2.332   0.465  1.00  0.00     0.004 C 
ENDBRANCH  23  25
ENDBRANCH  10  23
ENDBRANCH   7  10
ENDBRANCH   4   6
BRANCH   3  27
ATOM     27  C   UNL     1      13.931   6.015   3.393  1.00  0.00     0.171 C 
BRANCH  27  28
ATOM     28  N   UNL     1      13.179   6.274   4.616  1.00  0.00    -0.342 N 
ATOM     29  C   UNL     1      12.009   7.000   4.635  1.00  0.00     0.245 C 
ATOM     30  O   UNL     1      11.502   7.471   3.618  1.00  0.00    -0.273 OA
ATOM     31  H   UNL     1      13.476   5.820   5.479  1.00  0.00     0.164 HD
BRANCH  29  32
ATOM     32  C   UNL     1      11.291   7.059   5.999  1.00  0.00     0.200 C 
BRANCH  32  33
ATOM     33  N   UNL     1      11.432   5.751   6.651  1.00  0.00    -0.340 N 
ATOM     34  C   UNL     1      10.408   5.210   7.401  1.00  0.00     0.243 CG0
ATOM     35  O   UNL     1       9.363   5.822   7.610  1.00  0.00    -0.273 OA
ATOM     36  H   UNL     1      12.295   5.235   6.522  1.00  0.00     0.164 HD
ATOM     37  G   UNL     1      10.740   3.903   8.138  1.00  0.00     0.000 G0
ENDBRANCH  32  33
BRANCH  32  38
ATOM     38  C   UNL     1      11.820   8.225   6.867  1.00  0.00     0.143 C 
ATOM     39  C   UNL     1      12.810   7.799   7.945  1.00  0.00     0.041 C 
BRANCH  38  40
ATOM     40  O   UNL     1      12.440   9.220   6.030  1.00  0.00    -0.391 OA
ATOM     41  H   UNL     1      13.314   9.408   6.421  1.00  0.00     0.211 HD
ENDBRANCH  38  40
ENDBRANCH  32  38
ENDBRANCH  29  32
ENDBRANCH  27  28
BRANCH  27  42
ATOM     42  C   UNL     1      15.091   7.024   3.212  1.00  0.00     0.015 C 
ATOM     43  C   UNL     1      15.096   7.794   1.886  1.00  0.00     0.010 C 
ATOM     44  C   UNL     1      15.193   7.997   4.391  1.00  0.00     0.010 C 
ENDBRANCH  27  42
ENDBRANCH   3  27
TORSDOF 5
ENDMDL
MODEL 7
REMARK VINA RESULT:    -3.722     11.457     14.472
REMARK INTER + INTRA:          -9.138
REMARK INTER:                  -6.642
REMARK INTRA:                  -2.496
REMARK UNBOUND:                -2.479
REMARK SMILES CC[C@H](C)[C@H]1NC(=O)c2coc(n2)[C@H](C(C)C)NC(=O)[C@H]([C@@H](C)O)NC(=O)[C@H](C)NC(=O)c2csc1n2
REMARK SMILES IDX 11 1 13 2 12 3 9 4 10 5 7 6 6 7 8 8 5 10 36 11 35 12 34 13
REMARK SMILES IDX 37 14 33 15 31 16 32 17 30 18 28 20 29 21 3 23 4 24 2 25
REMARK SMILES IDX 1 26 14 27 18 28 19 29 20 30 21 32 25 33 26 34 27 35 22 38
REMARK SMILES IDX 23 39 24 40 15 42 16 43 17 44
REMARK H PARENT 6 9 30 19 18 31 25 36 24 41
REMARK Flexibility Score:   94.900
ROOT
ATOM      1  O   UNL     1      -0.350  -5.525  -1.042  1.00  0.00    -0.446 OA
ATOM      2  N   UNL     1      -0.382  -4.387   0.904  1.00  0.00    -0.207 NA
ATOM      3  C   UNL     1      -1.032  -5.214   0.104  1.00  0.00     0.217 A 
ATOM      4  C   UNL     1       0.818  -4.161   0.254  1.00  0.00     0.167 A 
ATOM      5  C   UNL     1       0.832  -4.857  -0.930  1.00  0.00     0.231 A 
ENDROOT
BRANCH   4   6
ATOM      6  C   UNL     1       1.852  -3.285   0.779  1.00  0.00     0.273 C 
ATOM      7  N   UNL     1       2.954  -3.989   1.195  1.00  0.00    -0.341 N 
ATOM      8  O   UNL     1       1.733  -2.068   0.859  1.00  0.00    -0.267 OA
ATOM      9  H   UNL     1       2.872  -5.000   1.152  1.00  0.00     0.164 HD
BRANCH   7  10
ATOM     10  C   UNL     1       4.021  -3.399   1.979  1.00  0.00     0.145 C 
BRANCH  10  11
ATOM     11  C   UNL     1       3.699  -3.637   3.447  1.00  0.00     0.116 A 
ATOM     12  S   UNL     1       4.441  -2.656   4.655  1.00  0.00    -0.124 S 
ATOM     13  C   UNL     1       3.570  -3.498   5.862  1.00  0.00     0.101 A 
ATOM     14  N   UNL     1       2.859  -4.553   3.900  1.00  0.00    -0.234 NA
ATOM     15  C   UNL     1       2.767  -4.466   5.291  1.00  0.00     0.139 A 
BRANCH  15  16
ATOM     16  C   UNL     1       1.877  -5.339   6.060  1.00  0.00     0.271 C 
ATOM     17  O   UNL     1       2.054  -5.590   7.247  1.00  0.00    -0.267 OA
ATOM     18  N   UNL     1       0.829  -5.845   5.321  1.00  0.00    -0.339 N 
ATOM     19  H   UNL     1       0.856  -5.653   4.323  1.00  0.00     0.164 HD
BRANCH  18  20
ATOM     20  C   UNL     1      -0.120  -6.786   5.902  1.00  0.00     0.168 CG0
ATOM     21  C   UNL     1      -1.404  -6.080   6.342  1.00  0.00     0.041 C 
ATOM     22  G   UNL     1      -0.511  -7.911   4.931  1.00  0.00     0.000 G0
ENDBRANCH  18  20
ENDBRANCH  15  16
ENDBRANCH  10  11
BRANCH  10  23
ATOM     23  C   UNL     1       5.415  -3.952   1.582  1.00  0.00     0.015 C 
ATOM     24  C   UNL     1       5.584  -5.450   1.883  1.00  0.00     0.010 C 
BRANCH  23  25
ATOM     25  C   UNL     1       5.755  -3.705   0.095  1.00  0.00     0.002 C 
ATOM     26  C   UNL     1       6.418  -4.891  -0.593  1.00  0.00     0.004 C 
ENDBRANCH  23  25
ENDBRANCH  10  23
ENDBRANCH   7  10
ENDBRANCH   4   6
BRANCH   3  27
ATOM     27  C   UNL     1      -2.414  -5.772   0.307  1.00  0.00     0.171 C 
BRANCH  27  28
ATOM     28  N   UNL     1      -2.397  -6.573   1.527  1.00  0.00    -0.342 N 
ATOM     29  C   UNL     1      -1.970  -7.882   1.556  1.00  0.00     0.245 C 
ATOM     30  O   UNL     1      -1.556  -8.469   0.558  1.00  0.00    -0.273 OA
ATOM     31  H   UNL     1      -2.617  -6.120   2.414  1.00  0.00     0.164 HD
BRANCH  29  32
ATOM     32  C   UNL     1      -1.903  -8.522   2.959  1.00  0.00     0.200 C 
BRANCH  32  33
ATOM     33  N   UNL     1      -1.364  -7.528   3.894  1.00  0.00    -0.340 N 
ATOM     34  C   UNL     1      -0.510  -7.893   4.914  1.00  0.00     0.243 CG0
ATOM     35  O   UNL     1      -0.215  -9.068   5.125  1.00  0.00    -0.273 OA
ATOM     36  H   UNL     1      -1.614  -6.554   3.765  1.00  0.00     0.164 HD
ATOM     37  G   UNL     1      -0.132  -6.776   5.900  1.00  0.00     0.000 G0
ENDBRANCH  32  33
BRANCH  32  38
ATOM     38  C   UNL     1      -3.280  -9.076   3.394  1.00  0.00     0.143 C 
ATOM     39  C   UNL     1      -3.921  -8.312   4.547  1.00  0.00     0.041 C 
BRANCH  38  40
ATOM     40  O   UNL     1      -4.186  -9.080   2.274  1.00  0.00    -0.391 OA
ATOM     41  H   UNL     1      -4.230 -10.000   1.954  1.00  0.00     0.211 HD
ENDBRANCH  38  40
ENDBRANCH  32  38
ENDBRANCH  29  32
ENDBRANCH  27  28
BRANCH  27  42
ATOM     42  C   UNL     1      -3.596  -4.773   0.299  1.00  0.00     0.015 C 
ATOM     43  C   UNL     1      -3.510  -3.656  -0.749  1.00  0.00     0.010 C 
ATOM     44  C   UNL     1      -4.949  -5.486   0.204  1.00  0.00     0.010 C 
ENDBRANCH  27  42
ENDBRANCH   3  27
TORSDOF 5
ENDMDL
MODEL 8
REMARK VINA RESULT:    -3.696     15.051     18.273
REMARK INTER + INTRA:          -9.092
REMARK INTER:                  -6.522
REMARK INTRA:                  -2.570
REMARK UNBOUND:                -2.479
REMARK SMILES CC[C@H](C)[C@H]1NC(=O)c2coc(n2)[C@H](C(C)C)NC(=O)[C@H]([C@@H](C)O)NC(=O)[C@H](C)NC(=O)c2csc1n2
REMARK SMILES IDX 11 1 13 2 12 3 9 4 10 5 7 6 6 7 8 8 5 10 36 11 35 12 34 13
REMARK SMILES IDX 37 14 33 15 31 16 32 17 30 18 28 20 29 21 3 23 4 24 2 25
REMARK SMILES IDX 1 26 14 27 18 28 19 29 20 30 21 32 25 33 26 34 27 35 22 38
REMARK SMILES IDX 23 39 24 40 15 42 16 43 17 44
REMARK H PARENT 6 9 30 19 18 31 25 36 24 41
REMARK Flexibility Score:   94.900
ROOT
ATOM      1  O   UNL     1      -6.274   2.353  -1.631  1.00  0.00    -0.446 OA
ATOM      2  N   UNL     1      -5.331   0.475  -2.447  1.00  0.00    -0.207 NA
ATOM      3  C   UNL     1      -5.178   1.765  -2.205  1.00  0.00     0.217 A 
ATOM      4  C   UNL     1      -6.601   0.190  -1.978  1.00  0.00     0.167 A 
ATOM      5  C   UNL     1      -7.170   1.337  -1.481  1.00  0.00     0.231 A 
ENDROOT
BRANCH   4   6
ATOM      6  C   UNL     1      -7.198  -1.132  -2.056  1.00  0.00     0.273 C 
ATOM      7  N   UNL     1      -7.490  -1.634  -0.813  1.00  0.00    -0.341 N 
ATOM      8  O   UNL     1      -7.389  -1.728  -3.109  1.00  0.00    -0.267 OA
ATOM      9  H   UNL     1      -7.190  -1.065  -0.027  1.00  0.00     0.164 HD
BRANCH   7  10
ATOM     10  C   UNL     1      -7.859  -3.018  -0.584  1.00  0.00     0.145 C 
BRANCH  10  11
ATOM     11  C   UNL     1      -6.646  -3.726   0.001  1.00  0.00     0.116 A 
ATOM     12  S   UNL     1      -6.738  -5.404   0.383  1.00  0.00    -0.124 S 
ATOM     13  C   UNL     1      -5.105  -5.372   0.885  1.00  0.00     0.101 A 
ATOM     14  N   UNL     1      -5.477  -3.155   0.242  1.00  0.00    -0.234 NA
ATOM     15  C   UNL     1      -4.578  -4.104   0.736  1.00  0.00     0.139 A 
BRANCH  15  16
ATOM     16  C   UNL     1      -3.191  -3.757   1.055  1.00  0.00     0.271 C 
ATOM     17  O   UNL     1      -2.475  -4.462   1.757  1.00  0.00    -0.267 OA
ATOM     18  N   UNL     1      -2.777  -2.570   0.489  1.00  0.00    -0.339 N 
ATOM     19  H   UNL     1      -3.496  -2.025   0.022  1.00  0.00     0.164 HD
BRANCH  18  20
ATOM     20  C   UNL     1      -1.449  -2.032   0.753  1.00  0.00     0.168 CG0
ATOM     21  C   UNL     1      -0.543  -2.159  -0.474  1.00  0.00     0.041 C 
ATOM     22  G   UNL     1      -1.478  -0.551   1.164  1.00  0.00     0.000 G0
ENDBRANCH  18  20
ENDBRANCH  15  16
ENDBRANCH  10  11
BRANCH  10  23
ATOM     23  C   UNL     1      -9.113  -3.148   0.319  1.00  0.00     0.015 C 
ATOM     24  C   UNL     1      -9.082  -2.218   1.543  1.00  0.00     0.010 C 
BRANCH  23  25
ATOM     25  C   UNL     1     -10.432  -2.908  -0.451  1.00  0.00     0.002 C 
ATOM     26  C   UNL     1     -10.449  -3.507  -1.850  1.00  0.00     0.004 C 
ENDBRANCH  23  25
ENDBRANCH  10  23
ENDBRANCH   7  10
ENDBRANCH   4   6
BRANCH   3  27
ATOM     27  C   UNL     1      -3.983   2.615  -2.538  1.00  0.00     0.171 C 
BRANCH  27  28
ATOM     28  N   UNL     1      -2.868   2.160  -1.715  1.00  0.00    -0.342 N 
ATOM     29  C   UNL     1      -2.738   2.489  -0.385  1.00  0.00     0.245 C 
ATOM     30  O   UNL     1      -3.562   3.180   0.213  1.00  0.00    -0.273 OA
ATOM     31  H   UNL     1      -2.207   1.491  -2.111  1.00  0.00     0.164 HD
BRANCH  29  32
ATOM     32  C   UNL     1      -1.564   1.809   0.352  1.00  0.00     0.200 C 
BRANCH  32  33
ATOM     33  N   UNL     1      -1.654   0.362   0.124  1.00  0.00    -0.340 N 
ATOM     34  C   UNL     1      -1.464  -0.538   1.152  1.00  0.00     0.243 CG0
ATOM     35  O   UNL     1      -1.151  -0.175   2.284  1.00  0.00    -0.273 OA
ATOM     36  H   UNL     1      -1.880   0.031  -0.806  1.00  0.00     0.164 HD
ATOM     37  G   UNL     1      -1.449  -2.021   0.746  1.00  0.00     0.000 G0
ENDBRANCH  32  33
BRANCH  32  38
ATOM     38  C   UNL     1      -0.204   2.405  -0.081  1.00  0.00     0.143 C 
ATOM     39  C   UNL     1       0.604   1.503  -1.006  1.00  0.00     0.041 C 
BRANCH  38  40
ATOM     40  O   UNL     1      -0.407   3.677  -0.727  1.00  0.00    -0.391 OA
ATOM     41  H   UNL     1      -0.558   4.330  -0.018  1.00  0.00     0.211 HD
ENDBRANCH  38  40
ENDBRANCH  32  38
ENDBRANCH  29  32
ENDBRANCH  27  28
BRANCH  27  42
ATOM     42  C   UNL     1      -3.581   2.727  -4.030  1.00  0.00     0.015 C 
ATOM     43  C   UNL     1      -4.363   3.761  -4.848  1.00  0.00     0.010 C 
ATOM     44  C   UNL     1      -2.074   2.942  -4.202  1.00  0.00     0.010 C 
ENDBRANCH  27  42
ENDBRANCH   3  27
TORSDOF 5
ENDMDL
MODEL 9
REMARK VINA RESULT:    -3.682      8.622     10.466
REMARK INTER + INTRA:          -9.067
REMARK INTER:                  -6.975
REMARK INTRA:                  -2.092
REMARK UNBOUND:                -2.479
REMARK SMILES CC[C@H](C)[C@H]1NC(=O)c2coc(n2)[C@H](C(C)C)NC(=O)[C@H]([C@@H](C)O)NC(=O)[C@H](C)NC(=O)c2csc1n2
REMARK SMILES IDX 11 1 13 2 12 3 9 4 10 5 7 6 6 7 8 8 5 10 36 11 35 12 34 13
REMARK SMILES IDX 37 14 33 15 31 16 32 17 30 18 28 20 29 21 3 23 4 24 2 25
REMARK SMILES IDX 1 26 14 27 18 28 19 29 20 30 21 32 25 33 26 34 27 35 22 38
REMARK SMILES IDX 23 39 24 40 15 42 16 43 17 44
REMARK H PARENT 6 9 30 19 18 31 25 36 24 41
REMARK Flexibility Score:   94.900
ROOT
ATOM      1  O   UNL     1       8.060   2.207   9.778  1.00  0.00    -0.446 OA
ATOM      2  N   UNL     1       7.920   2.520   7.551  1.00  0.00    -0.207 NA
ATOM      3  C   UNL     1       7.323   2.055   8.634  1.00  0.00     0.217 A 
ATOM      4  C   UNL     1       9.116   3.036   8.017  1.00  0.00     0.167 A 
ATOM      5  C   UNL     1       9.195   2.843   9.375  1.00  0.00     0.231 A 
ENDROOT
BRANCH   4   6
ATOM      6  C   UNL     1      10.109   3.646   7.150  1.00  0.00     0.273 C 
ATOM      7  N   UNL     1       9.870   4.984   6.963  1.00  0.00    -0.341 N 
ATOM      8  O   UNL     1      11.030   3.026   6.633  1.00  0.00    -0.267 OA
ATOM      9  H   UNL     1       9.015   5.341   7.381  1.00  0.00     0.164 HD
BRANCH   7  10
ATOM     10  C   UNL     1      10.550   5.778   5.959  1.00  0.00     0.145 C 
BRANCH  10  11
ATOM     11  C   UNL     1       9.493   6.333   5.016  1.00  0.00     0.116 A 
ATOM     12  S   UNL     1       9.968   7.308   3.677  1.00  0.00    -0.124 S 
ATOM     13  C   UNL     1       8.332   7.436   3.200  1.00  0.00     0.101 A 
ATOM     14  N   UNL     1       8.192   6.117   5.125  1.00  0.00    -0.234 NA
ATOM     15  C   UNL     1       7.518   6.737   4.070  1.00  0.00     0.139 A 
BRANCH  15  16
ATOM     16  C   UNL     1       6.065   6.631   3.916  1.00  0.00     0.271 C 
ATOM     17  O   UNL     1       5.448   7.201   3.023  1.00  0.00    -0.267 OA
ATOM     18  N   UNL     1       5.468   5.832   4.868  1.00  0.00    -0.339 N 
ATOM     19  H   UNL     1       6.072   5.508   5.619  1.00  0.00     0.164 HD
BRANCH  18  20
ATOM     20  C   UNL     1       4.021   5.665   4.913  1.00  0.00     0.168 CG0
ATOM     21  C   UNL     1       3.581   4.417   4.145  1.00  0.00     0.041 C 
ATOM     22  G   UNL     1       3.481   5.549   6.347  1.00  0.00     0.000 G0
ENDBRANCH  18  20
ENDBRANCH  15  16
ENDBRANCH  10  11
BRANCH  10  23
ATOM     23  C   UNL     1      11.426   6.894   6.588  1.00  0.00     0.015 C 
ATOM     24  C   UNL     1      11.300   6.976   8.119  1.00  0.00     0.010 C 
BRANCH  23  25
ATOM     25  C   UNL     1      12.922   6.758   6.221  1.00  0.00     0.002 C 
ATOM     26  C   UNL     1      13.635   8.090   6.034  1.00  0.00     0.004 C 
ENDBRANCH  23  25
ENDBRANCH  10  23
ENDBRANCH   7  10
ENDBRANCH   4   6
BRANCH   3  27
ATOM     27  C   UNL     1       5.993   1.357   8.707  1.00  0.00     0.171 C 
BRANCH  27  28
ATOM     28  N   UNL     1       4.973   2.289   8.238  1.00  0.00    -0.342 N 
ATOM     29  C   UNL     1       4.276   3.123   9.083  1.00  0.00     0.245 C 
ATOM     30  O   UNL     1       4.473   3.155  10.297  1.00  0.00    -0.273 OA
ATOM     31  H   UNL     1       4.837   2.400   7.234  1.00  0.00     0.164 HD
BRANCH  29  32
ATOM     32  C   UNL     1       3.333   4.127   8.389  1.00  0.00     0.200 C 
BRANCH  32  33
ATOM     33  N   UNL     1       3.875   4.424   7.057  1.00  0.00    -0.340 N 
ATOM     34  C   UNL     1       3.469   5.537   6.351  1.00  0.00     0.243 CG0
ATOM     35  O   UNL     1       2.595   6.291   6.773  1.00  0.00    -0.273 OA
ATOM     36  H   UNL     1       4.575   3.803   6.669  1.00  0.00     0.164 HD
ATOM     37  G   UNL     1       4.012   5.651   4.917  1.00  0.00     0.000 G0
ENDBRANCH  32  33
BRANCH  32  38
ATOM     38  C   UNL     1       1.880   3.600   8.345  1.00  0.00     0.143 C 
ATOM     39  C   UNL     1       1.595   2.475   9.333  1.00  0.00     0.041 C 
BRANCH  38  40
ATOM     40  O   UNL     1       0.956   4.679   8.587  1.00  0.00    -0.391 OA
ATOM     41  H   UNL     1       0.624   4.963   7.715  1.00  0.00     0.211 HD
ENDBRANCH  38  40
ENDBRANCH  32  38
ENDBRANCH  29  32
ENDBRANCH  27  28
BRANCH  27  42
ATOM     42  C   UNL     1       5.871  -0.020   8.011  1.00  0.00     0.015 C 
ATOM     43  C   UNL     1       7.035  -0.988   8.250  1.00  0.00     0.010 C 
ATOM     44  C   UNL     1       4.537  -0.705   8.327  1.00  0.00     0.010 C 
ENDBRANCH  27  42
ENDBRANCH   3  27
TORSDOF 5
ENDMDL
MODEL 10
REMARK VINA RESULT:    -3.656     16.846     19.327
REMARK INTER + INTRA:          -9.020
REMARK INTER:                  -6.606
REMARK INTRA:                  -2.414
REMARK UNBOUND:                -2.479
REMARK SMILES CC[C@H](C)[C@H]1NC(=O)c2coc(n2)[C@H](C(C)C)NC(=O)[C@H]([C@@H](C)O)NC(=O)[C@H](C)NC(=O)c2csc1n2
REMARK SMILES IDX 11 1 13 2 12 3 9 4 10 5 7 6 6 7 8 8 5 10 36 11 35 12 34 13
REMARK SMILES IDX 37 14 33 15 31 16 32 17 30 18 28 20 29 21 3 23 4 24 2 25
REMARK SMILES IDX 1 26 14 27 18 28 19 29 20 30 21 32 25 33 26 34 27 35 22 38
REMARK SMILES IDX 23 39 24 40 15 42 16 43 17 44
REMARK H PARENT 6 9 30 19 18 31 25 36 24 41
REMARK Flexibility Score:   94.900
ROOT
ATOM      1  O   UNL     1      -2.318  -2.736   4.345  1.00  0.00    -0.446 OA
ATOM      2  N   UNL     1      -4.119  -3.111   3.042  1.00  0.00    -0.207 NA
ATOM      3  C   UNL     1      -3.509  -3.392   4.180  1.00  0.00     0.217 A 
ATOM      4  C   UNL     1      -3.287  -2.189   2.430  1.00  0.00     0.167 A 
ATOM      5  C   UNL     1      -2.193  -1.965   3.229  1.00  0.00     0.231 A 
ENDROOT
BRANCH   4   6
ATOM      6  C   UNL     1      -3.567  -1.610   1.128  1.00  0.00     0.273 C 
ATOM      7  N   UNL     1      -4.224  -0.410   1.234  1.00  0.00    -0.341 N 
ATOM      8  O   UNL     1      -3.271  -2.148   0.068  1.00  0.00    -0.267 OA
ATOM      9  H   UNL     1      -4.486  -0.133   2.176  1.00  0.00     0.164 HD
BRANCH   7  10
ATOM     10  C   UNL     1      -4.839   0.259   0.105  1.00  0.00     0.145 C 
BRANCH  10  11
ATOM     11  C   UNL     1      -6.271  -0.246  -0.006  1.00  0.00     0.116 A 
ATOM     12  S   UNL     1      -7.099  -0.144  -1.514  1.00  0.00    -0.124 S 
ATOM     13  C   UNL     1      -8.463  -0.892  -0.807  1.00  0.00     0.101 A 
ATOM     14  N   UNL     1      -6.961  -0.790   0.983  1.00  0.00    -0.234 NA
ATOM     15  C   UNL     1      -8.221  -1.180   0.523  1.00  0.00     0.139 A 
BRANCH  15  16
ATOM     16  C   UNL     1      -9.187  -1.848   1.398  1.00  0.00     0.271 C 
ATOM     17  O   UNL     1     -10.381  -1.931   1.130  1.00  0.00    -0.267 OA
ATOM     18  N   UNL     1      -8.624  -2.371   2.543  1.00  0.00    -0.339 N 
ATOM     19  H   UNL     1      -7.647  -2.139   2.703  1.00  0.00     0.164 HD
BRANCH  18  20
ATOM     20  C   UNL     1      -9.443  -3.011   3.563  1.00  0.00     0.168 CG0
ATOM     21  C   UNL     1      -9.553  -4.518   3.323  1.00  0.00     0.041 C 
ATOM     22  G   UNL     1      -8.896  -2.800   4.984  1.00  0.00     0.000 G0
ENDBRANCH  18  20
ENDBRANCH  15  16
ENDBRANCH  10  11
BRANCH  10  23
ATOM     23  C   UNL     1      -4.765   1.804   0.227  1.00  0.00     0.015 C 
ATOM     24  C   UNL     1      -4.066   2.280   1.512  1.00  0.00     0.010 C 
BRANCH  23  25
ATOM     25  C   UNL     1      -4.077   2.468  -0.986  1.00  0.00     0.002 C 
ATOM     26  C   UNL     1      -3.456   1.479  -1.963  1.00  0.00     0.004 C 
ENDBRANCH  23  25
ENDBRANCH  10  23
ENDBRANCH   7  10
ENDBRANCH   4   6
BRANCH   3  27
ATOM     27  C   UNL     1      -3.961  -4.364   5.234  1.00  0.00     0.171 C 
BRANCH  27  28
ATOM     28  N   UNL     1      -5.382  -4.136   5.473  1.00  0.00    -0.342 N 
ATOM     29  C   UNL     1      -5.921  -4.033   6.736  1.00  0.00     0.245 C 
ATOM     30  O   UNL     1      -5.241  -4.110   7.758  1.00  0.00    -0.273 OA
ATOM     31  H   UNL     1      -5.989  -3.948   4.675  1.00  0.00     0.164 HD
BRANCH  29  32
ATOM     32  C   UNL     1      -7.418  -3.662   6.786  1.00  0.00     0.200 C 
BRANCH  32  33
ATOM     33  N   UNL     1      -7.948  -3.699   5.417  1.00  0.00    -0.340 N 
ATOM     34  C   UNL     1      -8.892  -2.788   4.990  1.00  0.00     0.243 CG0
ATOM     35  O   UNL     1      -9.376  -1.950   5.749  1.00  0.00    -0.273 OA
ATOM     36  H   UNL     1      -7.591  -4.399   4.778  1.00  0.00     0.164 HD
ATOM     37  G   UNL     1      -9.459  -3.027   3.582  1.00  0.00     0.000 G0
ENDBRANCH  32  33
BRANCH  32  38
ATOM     38  C   UNL     1      -8.195  -4.580   7.758  1.00  0.00     0.143 C 
ATOM     39  C   UNL     1      -7.844  -6.058   7.634  1.00  0.00     0.041 C 
BRANCH  38  40
ATOM     40  O   UNL     1      -7.972  -4.159   9.118  1.00  0.00    -0.391 OA
ATOM     41  H   UNL     1      -7.186  -3.580   9.106  1.00  0.00     0.211 HD
ENDBRANCH  38  40
ENDBRANCH  32  38
ENDBRANCH  29  32
ENDBRANCH  27  28
BRANCH  27  42
ATOM     42  C   UNL     1      -3.657  -5.864   4.999  1.00  0.00     0.015 C 
ATOM     43  C   UNL     1      -2.955  -6.585   6.155  1.00  0.00     0.010 C 
ATOM     44  C   UNL     1      -4.905  -6.641   4.568  1.00  0.00     0.010 C 
ENDBRANCH  27  42
ENDBRANCH   3  27
TORSDOF 5
ENDMDL
