MODEL 1
REMARK VINA RESULT:    -6.938      0.000      0.000
REMARK INTER + INTRA:         -13.015
REMARK INTER:                 -11.804
REMARK INTRA:                  -1.210
REMARK UNBOUND:                -1.210
REMARK SMILES CC[C@H](C)[C@@H]1NC(=O)[C@H]2CSC(=N2)[C@@H]([C@@H](C)CC)NC(=O)c2csc(n2)CNC(=O)[C@H]2N=C1O[C@@H]2C
REMARK SMILES IDX 27 1 25 2 22 3 26 4 23 5 24 6 20 7 19 8 21 9 14 11 12 12
REMARK SMILES IDX 11 13 10 14 13 15 9 16 15 18 16 19 17 20 18 21 28 22 29 23
REMARK SMILES IDX 30 24 31 26 32 27 35 28 33 29 34 30 36 31 5 32 6 33 7 34
REMARK SMILES IDX 8 35 3 38 4 39 2 40 1 41
REMARK H PARENT 19 10 28 25 6 36
REMARK Flexibility Score:   91.900
ROOT
ATOM      1  C   UNL     1      -9.889  -0.968  -4.991  1.00  0.00     0.183 C 
ENDROOT
BRANCH   1   2
ATOM      2  C   UNL     1      -9.489  -0.148  -6.184  1.00  0.00     0.113 A 
ATOM      3  C   UNL     1      -8.229   1.118  -7.516  1.00  0.00     0.139 A 
ATOM      4  N   UNL     1      -8.262   0.294  -6.390  1.00  0.00    -0.234 NA
ATOM      5  C   UNL     1      -9.436   1.234  -8.176  1.00  0.00     0.101 A 
ATOM      6  S   UNL     1     -10.643   0.320  -7.366  1.00  0.00    -0.125 S 
BRANCH   3   7
ATOM      7  C   UNL     1      -6.989   1.806  -7.885  1.00  0.00     0.271 C 
ATOM      8  N   UNL     1      -5.919   1.341  -7.161  1.00  0.00    -0.341 N 
ATOM      9  O   UNL     1      -6.931   2.706  -8.713  1.00  0.00    -0.267 OA
ATOM     10  H   UNL     1      -6.118   0.571  -6.525  1.00  0.00     0.164 HD
BRANCH   8  11
ATOM     11  C   UNL     1      -4.600   1.953  -7.170  1.00  0.00     0.140 C 
BRANCH  11  12
ATOM     12  C   UNL     1      -4.186   2.196  -5.716  1.00  0.00     0.091 C 
ATOM     13  S   UNL     1      -2.677   1.560  -5.104  1.00  0.00    -0.106 SA
ATOM     14  C   UNL     1      -2.843   2.565  -3.613  1.00  0.00     0.113 C 
ATOM     15  N   UNL     1      -4.958   2.810  -4.875  1.00  0.00    -0.267 NA
ATOM     16  C   UNL     1      -4.341   2.805  -3.511  1.00  0.00     0.205 CG0
ATOM     17  G   UNL     1      -5.001   1.746  -2.614  1.00  0.00     0.000 G0
ENDBRANCH  11  12
BRANCH  11  18
ATOM     18  C   UNL     1      -3.570   1.218  -8.066  1.00  0.00     0.015 C 
ATOM     19  C   UNL     1      -4.280   0.214  -8.983  1.00  0.00     0.010 C 
BRANCH  18  20
ATOM     20  C   UNL     1      -2.632   2.146  -8.864  1.00  0.00     0.002 C 
ATOM     21  C   UNL     1      -2.901   2.116 -10.364  1.00  0.00     0.004 C 
ENDBRANCH  18  20
ENDBRANCH  11  18
ENDBRANCH   8  11
ENDBRANCH   3   7
ENDBRANCH   1   2
BRANCH   1  22
ATOM     22  N   UNL     1      -9.812  -0.109  -3.830  1.00  0.00    -0.348 N 
ATOM     23  C   UNL     1     -10.661  -0.169  -2.759  1.00  0.00     0.249 C 
ATOM     24  O   UNL     1     -11.531  -1.025  -2.637  1.00  0.00    -0.272 OA
ATOM     25  H   UNL     1      -9.137   0.654  -3.836  1.00  0.00     0.163 HD
BRANCH  23  26
ATOM     26  C   UNL     1     -10.366   0.908  -1.704  1.00  0.00     0.238 C 
ATOM     27  N   UNL     1      -9.160   0.513  -0.924  1.00  0.00    -0.236 NA
ATOM     28  C   UNL     1     -10.021   2.245  -2.337  1.00  0.00     0.206 C 
ATOM     29  C   UNL     1      -8.267   1.381  -1.297  1.00  0.00     0.208 C 
ATOM     30  O   UNL     1      -8.605   2.343  -2.190  1.00  0.00    -0.474 OA
ATOM     31  C   UNL     1     -10.668   3.418  -1.614  1.00  0.00     0.056 C 
BRANCH  29  32
ATOM     32  C   UNL     1      -6.803   1.413  -0.868  1.00  0.00     0.171 C 
BRANCH  32  33
ATOM     33  N   UNL     1      -6.019   2.251  -1.761  1.00  0.00    -0.342 N 
ATOM     34  C   UNL     1      -5.042   1.745  -2.585  1.00  0.00     0.246 CG0
ATOM     35  O   UNL     1      -4.739   0.555  -2.612  1.00  0.00    -0.273 OA
ATOM     36  H   UNL     1      -6.142   3.258  -1.779  1.00  0.00     0.164 HD
ATOM     37  G   UNL     1      -4.371   2.788  -3.493  1.00  0.00     0.000 G0
ENDBRANCH  32  33
BRANCH  32  38
ATOM     38  C   UNL     1      -6.682   1.850   0.616  1.00  0.00     0.017 C 
ATOM     39  C   UNL     1      -7.171   0.725   1.538  1.00  0.00     0.010 C 
BRANCH  38  40
ATOM     40  C   UNL     1      -5.257   2.316   0.993  1.00  0.00     0.002 C 
ATOM     41  C   UNL     1      -5.213   3.711   1.601  1.00  0.00     0.004 C 
ENDBRANCH  38  40
ENDBRANCH  32  38
ENDBRANCH  29  32
ENDBRANCH  23  26
ENDBRANCH   1  22
TORSDOF 4
ENDMDL
MODEL 2
REMARK VINA RESULT:    -6.904      3.689      6.646
REMARK INTER + INTRA:         -12.957
REMARK INTER:                 -11.460
REMARK INTRA:                  -1.497
REMARK UNBOUND:                -1.210
REMARK SMILES CC[C@H](C)[C@@H]1NC(=O)[C@H]2CSC(=N2)[C@@H]([C@@H](C)CC)NC(=O)c2csc(n2)CNC(=O)[C@H]2N=C1O[C@@H]2C
REMARK SMILES IDX 27 1 25 2 22 3 26 4 23 5 24 6 20 7 19 8 21 9 14 11 12 12
REMARK SMILES IDX 11 13 10 14 13 15 9 16 15 18 16 19 17 20 18 21 28 22 29 23
REMARK SMILES IDX 30 24 31 26 32 27 35 28 33 29 34 30 36 31 5 32 6 33 7 34
REMARK SMILES IDX 8 35 3 38 4 39 2 40 1 41
REMARK H PARENT 19 10 28 25 6 36
REMARK Flexibility Score:   91.900
ROOT
ATOM      1  C   UNL     1     -10.558   1.413  -9.168  1.00  0.00     0.183 C 
ENDROOT
BRANCH   1   2
ATOM      2  C   UNL     1      -9.269   1.262  -8.412  1.00  0.00     0.113 A 
ATOM      3  C   UNL     1      -7.717   1.602  -6.849  1.00  0.00     0.139 A 
ATOM      4  N   UNL     1      -9.037   1.831  -7.243  1.00  0.00    -0.234 NA
ATOM      5  C   UNL     1      -6.992   0.806  -7.714  1.00  0.00     0.101 A 
ATOM      6  S   UNL     1      -7.962   0.355  -9.056  1.00  0.00    -0.125 S 
BRANCH   3   7
ATOM      7  C   UNL     1      -7.199   2.221  -5.627  1.00  0.00     0.271 C 
ATOM      8  N   UNL     1      -7.560   1.512  -4.508  1.00  0.00    -0.341 N 
ATOM      9  O   UNL     1      -6.554   3.262  -5.613  1.00  0.00    -0.267 OA
ATOM     10  H   UNL     1      -8.078   0.651  -4.680  1.00  0.00     0.164 HD
BRANCH   8  11
ATOM     11  C   UNL     1      -7.354   1.975  -3.145  1.00  0.00     0.140 C 
BRANCH  11  12
ATOM     12  C   UNL     1      -8.676   1.812  -2.390  1.00  0.00     0.091 C 
ATOM     13  S   UNL     1      -8.700   1.138  -0.777  1.00  0.00    -0.106 SA
ATOM     14  C   UNL     1     -10.420   1.648  -0.575  1.00  0.00     0.113 C 
ATOM     15  N   UNL     1      -9.818   2.094  -2.935  1.00  0.00    -0.267 NA
ATOM     16  C   UNL     1     -10.934   1.736  -2.003  1.00  0.00     0.205 CG0
ATOM     17  G   UNL     1     -11.598   0.415  -2.425  1.00  0.00     0.000 G0
ENDBRANCH  11  12
BRANCH  11  18
ATOM     18  C   UNL     1      -6.093   1.385  -2.463  1.00  0.00     0.015 C 
ATOM     19  C   UNL     1      -5.828  -0.039  -2.968  1.00  0.00     0.010 C 
BRANCH  18  20
ATOM     20  C   UNL     1      -4.832   2.266  -2.569  1.00  0.00     0.002 C 
ATOM     21  C   UNL     1      -4.546   3.053  -1.295  1.00  0.00     0.004 C 
ENDBRANCH  18  20
ENDBRANCH  11  18
ENDBRANCH   8  11
ENDBRANCH   3   7
ENDBRANCH   1   2
BRANCH   1  22
ATOM     22  N   UNL     1     -11.513   0.499  -8.582  1.00  0.00    -0.348 N 
ATOM     23  C   UNL     1     -12.725   0.866  -8.064  1.00  0.00     0.249 C 
ATOM     24  O   UNL     1     -13.164   2.009  -8.124  1.00  0.00    -0.272 OA
ATOM     25  H   UNL     1     -11.241  -0.476  -8.462  1.00  0.00     0.163 HD
BRANCH  23  26
ATOM     26  C   UNL     1     -13.497  -0.317  -7.460  1.00  0.00     0.238 C 
ATOM     27  N   UNL     1     -12.827  -0.749  -6.202  1.00  0.00    -0.236 NA
ATOM     28  C   UNL     1     -14.909   0.072  -7.056  1.00  0.00     0.206 C 
ATOM     29  C   UNL     1     -13.675  -0.404  -5.279  1.00  0.00     0.208 C 
ATOM     30  O   UNL     1     -14.845   0.182  -5.635  1.00  0.00    -0.474 OA
ATOM     31  C   UNL     1     -15.934  -0.995  -7.415  1.00  0.00     0.056 C 
BRANCH  29  32
ATOM     32  C   UNL     1     -13.478  -0.541  -3.772  1.00  0.00     0.171 C 
BRANCH  32  33
ATOM     33  N   UNL     1     -12.713   0.578  -3.245  1.00  0.00    -0.342 N 
ATOM     34  C   UNL     1     -11.625   0.410  -2.422  1.00  0.00     0.246 CG0
ATOM     35  O   UNL     1     -11.232  -0.693  -2.048  1.00  0.00    -0.273 OA
ATOM     36  H   UNL     1     -12.983   1.536  -3.440  1.00  0.00     0.164 HD
ATOM     37  G   UNL     1     -10.920   1.716  -2.022  1.00  0.00     0.000 G0
ENDBRANCH  32  33
BRANCH  32  38
ATOM     38  C   UNL     1     -14.845  -0.715  -3.060  1.00  0.00     0.017 C 
ATOM     39  C   UNL     1     -14.722  -1.745  -1.929  1.00  0.00     0.010 C 
BRANCH  38  40
ATOM     40  C   UNL     1     -15.434   0.620  -2.551  1.00  0.00     0.002 C 
ATOM     41  C   UNL     1     -16.583   0.444  -1.567  1.00  0.00     0.004 C 
ENDBRANCH  38  40
ENDBRANCH  32  38
ENDBRANCH  29  32
ENDBRANCH  23  26
ENDBRANCH   1  22
TORSDOF 4
ENDMDL
MODEL 3
REMARK VINA RESULT:    -6.804      3.539      6.068
REMARK INTER + INTRA:         -12.788
REMARK INTER:                 -11.222
REMARK INTRA:                  -1.566
REMARK UNBOUND:                -1.210
REMARK SMILES CC[C@H](C)[C@@H]1NC(=O)[C@H]2CSC(=N2)[C@@H]([C@@H](C)CC)NC(=O)c2csc(n2)CNC(=O)[C@H]2N=C1O[C@@H]2C
REMARK SMILES IDX 27 1 25 2 22 3 26 4 23 5 24 6 20 7 19 8 21 9 14 11 12 12
REMARK SMILES IDX 11 13 10 14 13 15 9 16 15 18 16 19 17 20 18 21 28 22 29 23
REMARK SMILES IDX 30 24 31 26 32 27 35 28 33 29 34 30 36 31 5 32 6 33 7 34
REMARK SMILES IDX 8 35 3 38 4 39 2 40 1 41
REMARK H PARENT 19 10 28 25 6 36
REMARK Flexibility Score:   91.900
ROOT
ATOM      1  C   UNL     1     -13.535   0.865   0.300  1.00  0.00     0.183 C 
ENDROOT
BRANCH   1   2
ATOM      2  C   UNL     1     -14.058   0.403  -1.029  1.00  0.00     0.113 A 
ATOM      3  C   UNL     1     -14.364   0.319  -3.235  1.00  0.00     0.139 A 
ATOM      4  N   UNL     1     -13.606   0.847  -2.188  1.00  0.00    -0.234 NA
ATOM      5  C   UNL     1     -15.346  -0.568  -2.840  1.00  0.00     0.101 A 
ATOM      6  S   UNL     1     -15.343  -0.731  -1.132  1.00  0.00    -0.125 S 
BRANCH   3   7
ATOM      7  C   UNL     1     -14.111   0.749  -4.612  1.00  0.00     0.271 C 
ATOM      8  N   UNL     1     -12.812   0.506  -4.987  1.00  0.00    -0.341 N 
ATOM      9  O   UNL     1     -14.950   1.290  -5.321  1.00  0.00    -0.267 OA
ATOM     10  H   UNL     1     -12.236   0.027  -4.296  1.00  0.00     0.164 HD
BRANCH   8  11
ATOM     11  C   UNL     1     -12.214   0.989  -6.221  1.00  0.00     0.140 C 
BRANCH  11  12
ATOM     12  C   UNL     1     -10.747   1.321  -5.934  1.00  0.00     0.091 C 
ATOM     13  S   UNL     1      -9.491   0.822  -7.042  1.00  0.00    -0.106 SA
ATOM     14  C   UNL     1      -8.299   1.872  -6.183  1.00  0.00     0.113 C 
ATOM     15  N   UNL     1     -10.378   1.909  -4.840  1.00  0.00    -0.267 NA
ATOM     16  C   UNL     1      -8.885   2.005  -4.786  1.00  0.00     0.205 CG0
ATOM     17  G   UNL     1      -8.300   0.937  -3.847  1.00  0.00     0.000 G0
ENDBRANCH  11  12
BRANCH  11  18
ATOM     18  C   UNL     1     -12.488   0.084  -7.450  1.00  0.00     0.015 C 
ATOM     19  C   UNL     1     -12.810  -1.347  -7.000  1.00  0.00     0.010 C 
BRANCH  18  20
ATOM     20  C   UNL     1     -13.557   0.623  -8.422  1.00  0.00     0.002 C 
ATOM     21  C   UNL     1     -13.452   2.127  -8.648  1.00  0.00     0.004 C 
ENDBRANCH  18  20
ENDBRANCH  11  18
ENDBRANCH   8  11
ENDBRANCH   3   7
ENDBRANCH   1   2
BRANCH   1  22
ATOM     22  N   UNL     1     -12.232   0.267   0.484  1.00  0.00    -0.348 N 
ATOM     23  C   UNL     1     -11.061   0.967   0.598  1.00  0.00     0.249 C 
ATOM     24  O   UNL     1     -11.012   2.191   0.641  1.00  0.00    -0.272 OA
ATOM     25  H   UNL     1     -12.154  -0.749   0.442  1.00  0.00     0.163 HD
BRANCH  23  26
ATOM     26  C   UNL     1      -9.832   0.055   0.728  1.00  0.00     0.238 C 
ATOM     27  N   UNL     1      -9.227  -0.149  -0.617  1.00  0.00    -0.236 NA
ATOM     28  C   UNL     1      -8.740   0.689   1.573  1.00  0.00     0.206 C 
ATOM     29  C   UNL     1      -8.103   0.497  -0.539  1.00  0.00     0.208 C 
ATOM     30  O   UNL     1      -7.769   1.118   0.619  1.00  0.00    -0.474 OA
ATOM     31  C   UNL     1      -8.084  -0.305   2.522  1.00  0.00     0.056 C 
BRANCH  29  32
ATOM     32  C   UNL     1      -7.091   0.691  -1.665  1.00  0.00     0.171 C 
BRANCH  32  33
ATOM     33  N   UNL     1      -7.651   1.504  -2.733  1.00  0.00    -0.342 N 
ATOM     34  C   UNL     1      -8.293   0.960  -3.820  1.00  0.00     0.246 CG0
ATOM     35  O   UNL     1      -8.420  -0.251  -3.986  1.00  0.00    -0.273 OA
ATOM     36  H   UNL     1      -7.554   2.514  -2.730  1.00  0.00     0.164 HD
ATOM     37  G   UNL     1      -8.865   1.992  -4.805  1.00  0.00     0.000 G0
ENDBRANCH  32  33
BRANCH  32  38
ATOM     38  C   UNL     1      -5.765   1.273  -1.109  1.00  0.00     0.017 C 
ATOM     39  C   UNL     1      -4.626   0.263  -1.298  1.00  0.00     0.010 C 
BRANCH  38  40
ATOM     40  C   UNL     1      -5.410   2.651  -1.714  1.00  0.00     0.002 C 
ATOM     41  C   UNL     1      -4.057   3.185  -1.263  1.00  0.00     0.004 C 
ENDBRANCH  38  40
ENDBRANCH  32  38
ENDBRANCH  29  32
ENDBRANCH  23  26
ENDBRANCH   1  22
TORSDOF 4
ENDMDL
MODEL 4
REMARK VINA RESULT:    -6.743      2.977      7.157
REMARK INTER + INTRA:         -12.684
REMARK INTER:                 -11.117
REMARK INTRA:                  -1.567
REMARK UNBOUND:                -1.210
REMARK SMILES CC[C@H](C)[C@@H]1NC(=O)[C@H]2CSC(=N2)[C@@H]([C@@H](C)CC)NC(=O)c2csc(n2)CNC(=O)[C@H]2N=C1O[C@@H]2C
REMARK SMILES IDX 27 1 25 2 22 3 26 4 23 5 24 6 20 7 19 8 21 9 14 11 12 12
REMARK SMILES IDX 11 13 10 14 13 15 9 16 15 18 16 19 17 20 18 21 28 22 29 23
REMARK SMILES IDX 30 24 31 26 32 27 35 28 33 29 34 30 36 31 5 32 6 33 7 34
REMARK SMILES IDX 8 35 3 38 4 39 2 40 1 41
REMARK H PARENT 19 10 28 25 6 36
REMARK Flexibility Score:   91.900
ROOT
ATOM      1  C   UNL     1     -10.548   1.054  -8.776  1.00  0.00     0.183 C 
ENDROOT
BRANCH   1   2
ATOM      2  C   UNL     1     -11.650   1.092  -7.757  1.00  0.00     0.113 A 
ATOM      3  C   UNL     1     -12.860   0.529  -5.972  1.00  0.00     0.139 A 
ATOM      4  N   UNL     1     -11.656   0.360  -6.658  1.00  0.00    -0.234 NA
ATOM      5  C   UNL     1     -13.723   1.441  -6.548  1.00  0.00     0.101 A 
ATOM      6  S   UNL     1     -13.034   2.083  -7.982  1.00  0.00    -0.125 S 
BRANCH   3   7
ATOM      7  C   UNL     1     -13.137  -0.262  -4.771  1.00  0.00     0.271 C 
ATOM      8  N   UNL     1     -12.944   0.472  -3.627  1.00  0.00    -0.341 N 
ATOM      9  O   UNL     1     -13.465  -1.442  -4.793  1.00  0.00    -0.267 OA
ATOM     10  H   UNL     1     -12.693   1.450  -3.768  1.00  0.00     0.164 HD
BRANCH   8  11
ATOM     11  C   UNL     1     -12.958  -0.087  -2.285  1.00  0.00     0.140 C 
BRANCH  11  12
ATOM     12  C   UNL     1     -11.546   0.040  -1.708  1.00  0.00     0.091 C 
ATOM     13  S   UNL     1     -11.290   0.770  -0.140  1.00  0.00    -0.106 SA
ATOM     14  C   UNL     1      -9.581   0.188  -0.134  1.00  0.00     0.113 C 
ATOM     15  N   UNL     1     -10.495  -0.315  -2.379  1.00  0.00    -0.267 NA
ATOM     16  C   UNL     1      -9.256   0.023  -1.610  1.00  0.00     0.205 CG0
ATOM     17  G   UNL     1      -8.596   1.295  -2.167  1.00  0.00     0.000 G0
ENDBRANCH  11  12
BRANCH  11  18
ATOM     18  C   UNL     1     -14.116   0.437  -1.396  1.00  0.00     0.015 C 
ATOM     19  C   UNL     1     -14.925   1.504  -2.145  1.00  0.00     0.010 C 
BRANCH  18  20
ATOM     20  C   UNL     1     -15.031  -0.661  -0.816  1.00  0.00     0.002 C 
ATOM     21  C   UNL     1     -15.220  -1.840  -1.764  1.00  0.00     0.004 C 
ENDBRANCH  18  20
ENDBRANCH  11  18
ENDBRANCH   8  11
ENDBRANCH   3   7
ENDBRANCH   1   2
BRANCH   1  22
ATOM     22  N   UNL     1      -9.429   1.791  -8.231  1.00  0.00    -0.348 N 
ATOM     23  C   UNL     1      -8.397   1.232  -7.526  1.00  0.00     0.249 C 
ATOM     24  O   UNL     1      -8.275   0.024  -7.357  1.00  0.00    -0.272 OA
ATOM     25  H   UNL     1      -9.441   2.808  -8.295  1.00  0.00     0.163 HD
BRANCH  23  26
ATOM     26  C   UNL     1      -7.385   2.274  -7.026  1.00  0.00     0.238 C 
ATOM     27  N   UNL     1      -7.724   2.658  -5.628  1.00  0.00    -0.236 NA
ATOM     28  C   UNL     1      -5.975   1.713  -6.963  1.00  0.00     0.206 C 
ATOM     29  C   UNL     1      -6.749   2.150  -4.935  1.00  0.00     0.208 C 
ATOM     30  O   UNL     1      -5.755   1.484  -5.572  1.00  0.00    -0.474 OA
ATOM     31  C   UNL     1      -4.930   2.700  -7.465  1.00  0.00     0.056 C 
BRANCH  29  32
ATOM     32  C   UNL     1      -6.612   2.171  -3.415  1.00  0.00     0.171 C 
BRANCH  32  33
ATOM     33  N   UNL     1      -7.377   1.093  -2.809  1.00  0.00    -0.342 N 
ATOM     34  C   UNL     1      -8.560   1.307  -2.142  1.00  0.00     0.246 CG0
ATOM     35  O   UNL     1      -9.048   2.423  -1.984  1.00  0.00    -0.273 OA
ATOM     36  H   UNL     1      -7.039   0.137  -2.827  1.00  0.00     0.164 HD
ATOM     37  G   UNL     1      -9.241   0.028  -1.627  1.00  0.00     0.000 G0
ENDBRANCH  32  33
BRANCH  32  38
ATOM     38  C   UNL     1      -5.117   2.143  -3.005  1.00  0.00     0.017 C 
ATOM     39  C   UNL     1      -4.442   3.468  -3.381  1.00  0.00     0.010 C 
BRANCH  38  40
ATOM     40  C   UNL     1      -4.908   1.803  -1.511  1.00  0.00     0.002 C 
ATOM     41  C   UNL     1      -4.251   2.924  -0.716  1.00  0.00     0.004 C 
ENDBRANCH  38  40
ENDBRANCH  32  38
ENDBRANCH  29  32
ENDBRANCH  23  26
ENDBRANCH   1  22
TORSDOF 4
ENDMDL
MODEL 5
REMARK VINA RESULT:    -6.741      8.076     10.783
REMARK INTER + INTRA:         -12.680
REMARK INTER:                 -10.925
REMARK INTRA:                  -1.755
REMARK UNBOUND:                -1.210
REMARK SMILES CC[C@H](C)[C@@H]1NC(=O)[C@H]2CSC(=N2)[C@@H]([C@@H](C)CC)NC(=O)c2csc(n2)CNC(=O)[C@H]2N=C1O[C@@H]2C
REMARK SMILES IDX 27 1 25 2 22 3 26 4 23 5 24 6 20 7 19 8 21 9 14 11 12 12
REMARK SMILES IDX 11 13 10 14 13 15 9 16 15 18 16 19 17 20 18 21 28 22 29 23
REMARK SMILES IDX 30 24 31 26 32 27 35 28 33 29 34 30 36 31 5 32 6 33 7 34
REMARK SMILES IDX 8 35 3 38 4 39 2 40 1 41
REMARK H PARENT 19 10 28 25 6 36
REMARK Flexibility Score:   91.900
ROOT
ATOM      1  C   UNL     1     -20.480  -1.670  -6.839  1.00  0.00     0.183 C 
ENDROOT
BRANCH   1   2
ATOM      2  C   UNL     1     -19.026  -1.668  -7.216  1.00  0.00     0.113 A 
ATOM      3  C   UNL     1     -16.938  -0.930  -7.466  1.00  0.00     0.139 A 
ATOM      4  N   UNL     1     -18.184  -0.710  -6.875  1.00  0.00    -0.234 NA
ATOM      5  C   UNL     1     -16.852  -2.096  -8.202  1.00  0.00     0.101 A 
ATOM      6  S   UNL     1     -18.357  -2.922  -8.179  1.00  0.00    -0.125 S 
BRANCH   3   7
ATOM      7  C   UNL     1     -15.868   0.058  -7.311  1.00  0.00     0.271 C 
ATOM      8  N   UNL     1     -15.070  -0.226  -6.231  1.00  0.00    -0.341 N 
ATOM      9  O   UNL     1     -15.732   1.033  -8.040  1.00  0.00    -0.267 OA
ATOM     10  H   UNL     1     -15.293  -1.087  -5.732  1.00  0.00     0.164 HD
BRANCH   8  11
ATOM     11  C   UNL     1     -14.046   0.667  -5.714  1.00  0.00     0.140 C 
BRANCH  11  12
ATOM     12  C   UNL     1     -14.263   0.808  -4.205  1.00  0.00     0.091 C 
ATOM     13  S   UNL     1     -13.472  -0.279  -3.088  1.00  0.00    -0.106 SA
ATOM     14  C   UNL     1     -13.949   0.775  -1.703  1.00  0.00     0.113 C 
ATOM     15  N   UNL     1     -15.087   1.676  -3.708  1.00  0.00    -0.267 NA
ATOM     16  C   UNL     1     -15.174   1.512  -2.223  1.00  0.00     0.205 CG0
ATOM     17  G   UNL     1     -16.462   0.772  -1.827  1.00  0.00     0.000 G0
ENDBRANCH  11  12
BRANCH  11  18
ATOM     18  C   UNL     1     -12.608   0.310  -6.173  1.00  0.00     0.015 C 
ATOM     19  C   UNL     1     -12.592  -1.058  -6.867  1.00  0.00     0.010 C 
BRANCH  18  20
ATOM     20  C   UNL     1     -11.921   1.388  -7.036  1.00  0.00     0.002 C 
ATOM     21  C   UNL     1     -12.264   1.272  -8.517  1.00  0.00     0.004 C 
ENDBRANCH  18  20
ENDBRANCH  11  18
ENDBRANCH   8  11
ENDBRANCH   3   7
ENDBRANCH   1   2
BRANCH   1  22
ATOM     22  N   UNL     1     -20.679  -0.611  -5.876  1.00  0.00    -0.348 N 
ATOM     23  C   UNL     1     -21.042  -0.802  -4.570  1.00  0.00     0.249 C 
ATOM     24  O   UNL     1     -21.153  -1.910  -4.059  1.00  0.00    -0.272 OA
ATOM     25  H   UNL     1     -20.632   0.354  -6.201  1.00  0.00     0.163 HD
BRANCH  23  26
ATOM     26  C   UNL     1     -21.232   0.517  -3.806  1.00  0.00     0.238 C 
ATOM     27  N   UNL     1     -20.803   0.331  -2.392  1.00  0.00    -0.236 NA
ATOM     28  C   UNL     1     -20.350   1.625  -4.356  1.00  0.00     0.206 C 
ATOM     29  C   UNL     1     -19.723   1.049  -2.311  1.00  0.00     0.208 C 
ATOM     30  O   UNL     1     -19.297   1.737  -3.399  1.00  0.00    -0.474 OA
ATOM     31  C   UNL     1     -21.074   2.962  -4.440  1.00  0.00     0.056 C 
BRANCH  29  32
ATOM     32  C   UNL     1     -18.809   1.175  -1.095  1.00  0.00     0.171 C 
BRANCH  32  33
ATOM     33  N   UNL     1     -17.488   1.644  -1.484  1.00  0.00    -0.342 N 
ATOM     34  C   UNL     1     -16.464   0.787  -1.808  1.00  0.00     0.246 CG0
ATOM     35  O   UNL     1     -16.575  -0.435  -1.770  1.00  0.00    -0.273 OA
ATOM     36  H   UNL     1     -17.266   2.633  -1.494  1.00  0.00     0.164 HD
ATOM     37  G   UNL     1     -15.166   1.484  -2.249  1.00  0.00     0.000 G0
ENDBRANCH  32  33
BRANCH  32  38
ATOM     38  C   UNL     1     -19.464   2.073  -0.014  1.00  0.00     0.017 C 
ATOM     39  C   UNL     1     -18.773   1.860   1.339  1.00  0.00     0.010 C 
BRANCH  38  40
ATOM     40  C   UNL     1     -19.493   3.568  -0.408  1.00  0.00     0.002 C 
ATOM     41  C   UNL     1     -20.760   4.290   0.032  1.00  0.00     0.004 C 
ENDBRANCH  38  40
ENDBRANCH  32  38
ENDBRANCH  29  32
ENDBRANCH  23  26
ENDBRANCH   1  22
TORSDOF 4
ENDMDL
MODEL 6
REMARK VINA RESULT:    -6.730      2.701      3.724
REMARK INTER + INTRA:         -12.662
REMARK INTER:                 -10.992
REMARK INTRA:                  -1.669
REMARK UNBOUND:                -1.210
REMARK SMILES CC[C@H](C)[C@@H]1NC(=O)[C@H]2CSC(=N2)[C@@H]([C@@H](C)CC)NC(=O)c2csc(n2)CNC(=O)[C@H]2N=C1O[C@@H]2C
REMARK SMILES IDX 27 1 25 2 22 3 26 4 23 5 24 6 20 7 19 8 21 9 14 11 12 12
REMARK SMILES IDX 11 13 10 14 13 15 9 16 15 18 16 19 17 20 18 21 28 22 29 23
REMARK SMILES IDX 30 24 31 26 32 27 35 28 33 29 34 30 36 31 5 32 6 33 7 34
REMARK SMILES IDX 8 35 3 38 4 39 2 40 1 41
REMARK H PARENT 19 10 28 25 6 36
REMARK Flexibility Score:   91.900
ROOT
ATOM      1  C   UNL     1     -11.578  -0.557  -6.183  1.00  0.00     0.183 C 
ENDROOT
BRANCH   1   2
ATOM      2  C   UNL     1     -11.552   0.343  -7.386  1.00  0.00     0.113 A 
ATOM      3  C   UNL     1     -10.792   1.339  -9.229  1.00  0.00     0.139 A 
ATOM      4  N   UNL     1     -10.602   0.312  -8.301  1.00  0.00    -0.234 NA
ATOM      5  C   UNL     1     -11.930   2.093  -9.021  1.00  0.00     0.101 A 
ATOM      6  S   UNL     1     -12.766   1.531  -7.631  1.00  0.00    -0.125 S 
BRANCH   3   7
ATOM      7  C   UNL     1      -9.803   1.566 -10.284  1.00  0.00     0.271 C 
ATOM      8  N   UNL     1      -8.522   1.385  -9.825  1.00  0.00    -0.341 N 
ATOM      9  O   UNL     1     -10.091   1.908 -11.425  1.00  0.00    -0.267 OA
ATOM     10  H   UNL     1      -8.440   1.077  -8.856  1.00  0.00     0.164 HD
BRANCH   8  11
ATOM     11  C   UNL     1      -7.327   1.718 -10.583  1.00  0.00     0.140 C 
BRANCH  11  12
ATOM     12  C   UNL     1      -6.226   2.090  -9.586  1.00  0.00     0.091 C 
ATOM     13  S   UNL     1      -4.562   1.652  -9.896  1.00  0.00    -0.106 SA
ATOM     14  C   UNL     1      -4.016   2.721  -8.548  1.00  0.00     0.113 C 
ATOM     15  N   UNL     1      -6.489   2.668  -8.456  1.00  0.00    -0.267 NA
ATOM     16  C   UNL     1      -5.238   2.809  -7.647  1.00  0.00     0.205 CG0
ATOM     17  G   UNL     1      -5.176   1.743  -6.542  1.00  0.00     0.000 G0
ENDBRANCH  11  12
BRANCH  11  18
ATOM     18  C   UNL     1      -6.954   0.670 -11.663  1.00  0.00     0.015 C 
ATOM     19  C   UNL     1      -7.619  -0.678 -11.353  1.00  0.00     0.010 C 
BRANCH  18  20
ATOM     20  C   UNL     1      -7.228   1.114 -13.114  1.00  0.00     0.002 C 
ATOM     21  C   UNL     1      -6.155   2.046 -13.665  1.00  0.00     0.004 C 
ENDBRANCH  18  20
ENDBRANCH  11  18
ENDBRANCH   8  11
ENDBRANCH   3   7
ENDBRANCH   1   2
BRANCH   1  22
ATOM     22  N   UNL     1     -10.743   0.050  -5.171  1.00  0.00    -0.348 N 
ATOM     23  C   UNL     1     -10.313  -0.580  -4.035  1.00  0.00     0.249 C 
ATOM     24  O   UNL     1     -10.527  -1.764  -3.801  1.00  0.00    -0.272 OA
ATOM     25  H   UNL     1     -10.523   1.042  -5.256  1.00  0.00     0.163 HD
BRANCH  23  26
ATOM     26  C   UNL     1      -9.487   0.338  -3.122  1.00  0.00     0.238 C 
ATOM     27  N   UNL     1      -8.047  -0.030  -3.228  1.00  0.00    -0.236 NA
ATOM     28  C   UNL     1      -9.567   1.792  -3.555  1.00  0.00     0.206 C 
ATOM     29  C   UNL     1      -7.524   0.987  -3.844  1.00  0.00     0.208 C 
ATOM     30  O   UNL     1      -8.312   2.034  -4.190  1.00  0.00    -0.474 OA
ATOM     31  C   UNL     1      -9.707   2.746  -2.376  1.00  0.00     0.056 C 
BRANCH  29  32
ATOM     32  C   UNL     1      -6.071   1.125  -4.289  1.00  0.00     0.171 C 
BRANCH  32  33
ATOM     33  N   UNL     1      -5.959   2.026  -5.426  1.00  0.00    -0.342 N 
ATOM     34  C   UNL     1      -5.168   1.750  -6.515  1.00  0.00     0.246 CG0
ATOM     35  O   UNL     1      -4.476   0.738  -6.602  1.00  0.00    -0.273 OA
ATOM     36  H   UNL     1      -6.441   2.918  -5.437  1.00  0.00     0.164 HD
ATOM     37  G   UNL     1      -5.235   2.801  -7.635  1.00  0.00     0.000 G0
ENDBRANCH  32  33
BRANCH  32  38
ATOM     38  C   UNL     1      -5.177   1.558  -3.098  1.00  0.00     0.017 C 
ATOM     39  C   UNL     1      -3.979   0.608  -2.966  1.00  0.00     0.010 C 
BRANCH  38  40
ATOM     40  C   UNL     1      -4.725   3.034  -3.188  1.00  0.00     0.002 C 
ATOM     41  C   UNL     1      -3.286   3.259  -2.743  1.00  0.00     0.004 C 
ENDBRANCH  38  40
ENDBRANCH  32  38
ENDBRANCH  29  32
ENDBRANCH  23  26
ENDBRANCH   1  22
TORSDOF 4
ENDMDL
MODEL 7
REMARK VINA RESULT:    -6.684      2.077      6.793
REMARK INTER + INTRA:         -12.583
REMARK INTER:                 -11.384
REMARK INTRA:                  -1.198
REMARK UNBOUND:                -1.210
REMARK SMILES CC[C@H](C)[C@@H]1NC(=O)[C@H]2CSC(=N2)[C@@H]([C@@H](C)CC)NC(=O)c2csc(n2)CNC(=O)[C@H]2N=C1O[C@@H]2C
REMARK SMILES IDX 27 1 25 2 22 3 26 4 23 5 24 6 20 7 19 8 21 9 14 11 12 12
REMARK SMILES IDX 11 13 10 14 13 15 9 16 15 18 16 19 17 20 18 21 28 22 29 23
REMARK SMILES IDX 30 24 31 26 32 27 35 28 33 29 34 30 36 31 5 32 6 33 7 34
REMARK SMILES IDX 8 35 3 38 4 39 2 40 1 41
REMARK H PARENT 19 10 28 25 6 36
REMARK Flexibility Score:   91.900
ROOT
ATOM      1  C   UNL     1      -8.107   0.086  -9.026  1.00  0.00     0.183 C 
ENDROOT
BRANCH   1   2
ATOM      2  C   UNL     1      -8.740   0.512  -7.733  1.00  0.00     0.113 A 
ATOM      3  C   UNL     1      -9.260   0.510  -5.565  1.00  0.00     0.139 A 
ATOM      4  N   UNL     1      -8.424  -0.004  -6.559  1.00  0.00    -0.234 NA
ATOM      5  C   UNL     1     -10.160   1.459  -6.010  1.00  0.00     0.101 A 
ATOM      6  S   UNL     1      -9.981   1.697  -7.700  1.00  0.00    -0.125 S 
BRANCH   3   7
ATOM      7  C   UNL     1      -9.162   0.008  -4.193  1.00  0.00     0.271 C 
ATOM      8  N   UNL     1      -8.730   0.982  -3.327  1.00  0.00    -0.341 N 
ATOM      9  O   UNL     1      -9.405  -1.149  -3.873  1.00  0.00    -0.267 OA
ATOM     10  H   UNL     1      -8.590   1.905  -3.737  1.00  0.00     0.164 HD
BRANCH   8  11
ATOM     11  C   UNL     1      -8.359   0.739  -1.943  1.00  0.00     0.140 C 
BRANCH  11  12
ATOM     12  C   UNL     1      -6.831   0.653  -1.874  1.00  0.00     0.091 C 
ATOM     13  S   UNL     1      -5.962   1.360  -0.532  1.00  0.00    -0.106 SA
ATOM     14  C   UNL     1      -4.452   0.518  -1.050  1.00  0.00     0.113 C 
ATOM     15  N   UNL     1      -6.129   0.128  -2.828  1.00  0.00    -0.267 NA
ATOM     16  C   UNL     1      -4.669   0.280  -2.536  1.00  0.00     0.205 CG0
ATOM     17  G   UNL     1      -4.061   1.424  -3.364  1.00  0.00     0.000 G0
ENDBRANCH  11  12
BRANCH  11  18
ATOM     18  C   UNL     1      -9.042   1.694  -0.931  1.00  0.00     0.015 C 
ATOM     19  C   UNL     1      -9.848   2.770  -1.670  1.00  0.00     0.010 C 
BRANCH  18  20
ATOM     20  C   UNL     1      -9.895   0.990   0.145  1.00  0.00     0.002 C 
ATOM     21  C   UNL     1      -9.213  -0.240   0.734  1.00  0.00     0.004 C 
ENDBRANCH  18  20
ENDBRANCH  11  18
ENDBRANCH   8  11
ENDBRANCH   3   7
ENDBRANCH   1   2
BRANCH   1  22
ATOM     22  N   UNL     1      -6.712   0.462  -8.969  1.00  0.00    -0.348 N 
ATOM     23  C   UNL     1      -6.250   1.750  -8.985  1.00  0.00     0.249 C 
ATOM     24  O   UNL     1      -6.988   2.729  -8.963  1.00  0.00    -0.272 OA
ATOM     25  H   UNL     1      -6.009  -0.276  -9.006  1.00  0.00     0.163 HD
BRANCH  23  26
ATOM     26  C   UNL     1      -4.717   1.834  -8.971  1.00  0.00     0.238 C 
ATOM     27  N   UNL     1      -4.280   2.639  -7.796  1.00  0.00    -0.236 NA
ATOM     28  C   UNL     1      -4.075   0.469  -8.789  1.00  0.00     0.206 C 
ATOM     29  C   UNL     1      -3.715   1.758  -7.025  1.00  0.00     0.208 C 
ATOM     30  O   UNL     1      -3.645   0.466  -7.429  1.00  0.00    -0.474 OA
ATOM     31  C   UNL     1      -2.858   0.272  -9.684  1.00  0.00     0.056 C 
BRANCH  29  32
ATOM     32  C   UNL     1      -3.142   2.010  -5.633  1.00  0.00     0.171 C 
BRANCH  32  33
ATOM     33  N   UNL     1      -3.678   1.060  -4.671  1.00  0.00    -0.342 N 
ATOM     34  C   UNL     1      -4.062   1.427  -3.403  1.00  0.00     0.246 CG0
ATOM     35  O   UNL     1      -3.959   2.574  -2.977  1.00  0.00    -0.273 OA
ATOM     36  H   UNL     1      -3.753   0.074  -4.894  1.00  0.00     0.164 HD
ATOM     37  G   UNL     1      -4.657   0.285  -2.563  1.00  0.00     0.000 G0
ENDBRANCH  32  33
BRANCH  32  38
ATOM     38  C   UNL     1      -1.591   2.002  -5.676  1.00  0.00     0.017 C 
ATOM     39  C   UNL     1      -1.096   2.684  -6.958  1.00  0.00     0.010 C 
BRANCH  38  40
ATOM     40  C   UNL     1      -0.950   2.627  -4.415  1.00  0.00     0.002 C 
ATOM     41  C   UNL     1      -0.050   3.818  -4.715  1.00  0.00     0.004 C 
ENDBRANCH  38  40
ENDBRANCH  32  38
ENDBRANCH  29  32
ENDBRANCH  23  26
ENDBRANCH   1  22
TORSDOF 4
ENDMDL
MODEL 8
REMARK VINA RESULT:    -6.643      6.467     10.483
REMARK INTER + INTRA:         -12.513
REMARK INTER:                 -10.728
REMARK INTRA:                  -1.785
REMARK UNBOUND:                -1.210
REMARK SMILES CC[C@H](C)[C@@H]1NC(=O)[C@H]2CSC(=N2)[C@@H]([C@@H](C)CC)NC(=O)c2csc(n2)CNC(=O)[C@H]2N=C1O[C@@H]2C
REMARK SMILES IDX 27 1 25 2 22 3 26 4 23 5 24 6 20 7 19 8 21 9 14 11 12 12
REMARK SMILES IDX 11 13 10 14 13 15 9 16 15 18 16 19 17 20 18 21 28 22 29 23
REMARK SMILES IDX 30 24 31 26 32 27 35 28 33 29 34 30 36 31 5 32 6 33 7 34
REMARK SMILES IDX 8 35 3 38 4 39 2 40 1 41
REMARK H PARENT 19 10 28 25 6 36
REMARK Flexibility Score:   91.900
ROOT
ATOM      1  C   UNL     1     -16.151   0.769   0.422  1.00  0.00     0.183 C 
ENDROOT
BRANCH   1   2
ATOM      2  C   UNL     1     -17.079   1.436  -0.553  1.00  0.00     0.113 A 
ATOM      3  C   UNL     1     -18.285   1.755  -2.399  1.00  0.00     0.139 A 
ATOM      4  N   UNL     1     -17.544   0.848  -1.639  1.00  0.00    -0.234 NA
ATOM      5  C   UNL     1     -18.412   3.008  -1.831  1.00  0.00     0.101 A 
ATOM      6  S   UNL     1     -17.572   3.065  -0.335  1.00  0.00    -0.125 S 
BRANCH   3   7
ATOM      7  C   UNL     1     -18.819   1.356  -3.703  1.00  0.00     0.271 C 
ATOM      8  N   UNL     1     -18.027   0.410  -4.306  1.00  0.00    -0.341 N 
ATOM      9  O   UNL     1     -19.830   1.836  -4.200  1.00  0.00    -0.267 OA
ATOM     10  H   UNL     1     -17.229   0.089  -3.758  1.00  0.00     0.164 HD
BRANCH   8  11
ATOM     11  C   UNL     1     -18.194  -0.042  -5.677  1.00  0.00     0.140 C 
BRANCH  11  12
ATOM     12  C   UNL     1     -16.843   0.097  -6.386  1.00  0.00     0.091 C 
ATOM     13  S   UNL     1     -16.447  -0.923  -7.749  1.00  0.00    -0.106 SA
ATOM     14  C   UNL     1     -15.012   0.108  -8.119  1.00  0.00     0.113 C 
ATOM     15  N   UNL     1     -15.927   0.910  -5.964  1.00  0.00    -0.267 NA
ATOM     16  C   UNL     1     -14.684   0.753  -6.782  1.00  0.00     0.205 CG0
ATOM     17  G   UNL     1     -13.629  -0.070  -6.025  1.00  0.00     0.000 G0
ENDBRANCH  11  12
BRANCH  11  18
ATOM     18  C   UNL     1     -18.902  -1.415  -5.806  1.00  0.00     0.015 C 
ATOM     19  C   UNL     1     -18.861  -2.166  -4.469  1.00  0.00     0.010 C 
BRANCH  18  20
ATOM     20  C   UNL     1     -20.335  -1.351  -6.373  1.00  0.00     0.002 C 
ATOM     21  C   UNL     1     -21.406  -1.416  -5.291  1.00  0.00     0.004 C 
ENDBRANCH  18  20
ENDBRANCH  11  18
ENDBRANCH   8  11
ENDBRANCH   3   7
ENDBRANCH   1   2
BRANCH   1  22
ATOM     22  N   UNL     1     -14.803   0.951  -0.070  1.00  0.00    -0.348 N 
ATOM     23  C   UNL     1     -13.827  -0.008  -0.042  1.00  0.00     0.249 C 
ATOM     24  O   UNL     1     -14.026  -1.159   0.331  1.00  0.00    -0.272 OA
ATOM     25  H   UNL     1     -14.523   1.879  -0.384  1.00  0.00     0.163 HD
BRANCH  23  26
ATOM     26  C   UNL     1     -12.481   0.497  -0.584  1.00  0.00     0.238 C 
ATOM     27  N   UNL     1     -12.051  -0.371  -1.716  1.00  0.00    -0.236 NA
ATOM     28  C   UNL     1     -12.590   1.897  -1.163  1.00  0.00     0.206 C 
ATOM     29  C   UNL     1     -12.163   0.410  -2.748  1.00  0.00     0.208 C 
ATOM     30  O   UNL     1     -12.577   1.690  -2.575  1.00  0.00    -0.474 OA
ATOM     31  C   UNL     1     -11.406   2.778  -0.789  1.00  0.00     0.056 C 
BRANCH  29  32
ATOM     32  C   UNL     1     -11.920   0.024  -4.205  1.00  0.00     0.171 C 
BRANCH  32  33
ATOM     33  N   UNL     1     -12.913   0.634  -5.076  1.00  0.00    -0.342 N 
ATOM     34  C   UNL     1     -13.612  -0.082  -6.018  1.00  0.00     0.246 CG0
ATOM     35  O   UNL     1     -13.435  -1.282  -6.215  1.00  0.00    -0.273 OA
ATOM     36  H   UNL     1     -13.099   1.630  -5.042  1.00  0.00     0.164 HD
ATOM     37  G   UNL     1     -14.656   0.736  -6.795  1.00  0.00     0.000 G0
ENDBRANCH  32  33
BRANCH  32  38
ATOM     38  C   UNL     1     -10.468   0.372  -4.624  1.00  0.00     0.017 C 
ATOM     39  C   UNL     1      -9.629  -0.908  -4.730  1.00  0.00     0.010 C 
BRANCH  38  40
ATOM     40  C   UNL     1     -10.399   1.207  -5.923  1.00  0.00     0.002 C 
ATOM     41  C   UNL     1      -9.192   2.133  -5.989  1.00  0.00     0.004 C 
ENDBRANCH  38  40
ENDBRANCH  32  38
ENDBRANCH  29  32
ENDBRANCH  23  26
ENDBRANCH   1  22
TORSDOF 4
ENDMDL
MODEL 9
REMARK VINA RESULT:    -6.625      2.125      2.920
REMARK INTER + INTRA:         -12.484
REMARK INTER:                 -11.002
REMARK INTRA:                  -1.481
REMARK UNBOUND:                -1.210
REMARK SMILES CC[C@H](C)[C@@H]1NC(=O)[C@H]2CSC(=N2)[C@@H]([C@@H](C)CC)NC(=O)c2csc(n2)CNC(=O)[C@H]2N=C1O[C@@H]2C
REMARK SMILES IDX 27 1 25 2 22 3 26 4 23 5 24 6 20 7 19 8 21 9 14 11 12 12
REMARK SMILES IDX 11 13 10 14 13 15 9 16 15 18 16 19 17 20 18 21 28 22 29 23
REMARK SMILES IDX 30 24 31 26 32 27 35 28 33 29 34 30 36 31 5 32 6 33 7 34
REMARK SMILES IDX 8 35 3 38 4 39 2 40 1 41
REMARK H PARENT 19 10 28 25 6 36
REMARK Flexibility Score:   91.900
ROOT
ATOM      1  C   UNL     1     -10.137   1.287  -5.809  1.00  0.00     0.183 C 
ENDROOT
BRANCH   1   2
ATOM      2  C   UNL     1      -8.658   1.402  -6.047  1.00  0.00     0.113 A 
ATOM      3  C   UNL     1      -6.564   2.134  -5.839  1.00  0.00     0.139 A 
ATOM      4  N   UNL     1      -7.853   2.137  -5.302  1.00  0.00    -0.234 NA
ATOM      5  C   UNL     1      -6.412   1.339  -6.957  1.00  0.00     0.101 A 
ATOM      6  S   UNL     1      -7.906   0.600  -7.366  1.00  0.00    -0.125 S 
BRANCH   3   7
ATOM      7  C   UNL     1      -5.518   2.963  -5.236  1.00  0.00     0.271 C 
ATOM      8  N   UNL     1      -4.437   2.211  -4.847  1.00  0.00    -0.341 N 
ATOM      9  O   UNL     1      -5.618   4.173  -5.073  1.00  0.00    -0.267 OA
ATOM     10  H   UNL     1      -4.488   1.218  -5.070  1.00  0.00     0.164 HD
BRANCH   8  11
ATOM     11  C   UNL     1      -3.329   2.720  -4.055  1.00  0.00     0.140 C 
BRANCH  11  12
ATOM     12  C   UNL     1      -3.655   2.475  -2.579  1.00  0.00     0.091 C 
ATOM     13  S   UNL     1      -2.547   1.582  -1.563  1.00  0.00    -0.106 SA
ATOM     14  C   UNL     1      -3.469   2.086  -0.094  1.00  0.00     0.113 C 
ATOM     15  N   UNL     1      -4.778   2.847  -2.052  1.00  0.00    -0.267 NA
ATOM     16  C   UNL     1      -4.860   2.381  -0.632  1.00  0.00     0.205 CG0
ATOM     17  G   UNL     1      -5.763   1.142  -0.513  1.00  0.00     0.000 G0
ENDBRANCH  11  12
BRANCH  11  18
ATOM     18  C   UNL     1      -1.936   2.246  -4.542  1.00  0.00     0.015 C 
ATOM     19  C   UNL     1      -1.968   1.947  -6.047  1.00  0.00     0.010 C 
BRANCH  18  20
ATOM     20  C   UNL     1      -0.771   3.189  -4.180  1.00  0.00     0.002 C 
ATOM     21  C   UNL     1       0.161   3.462  -5.355  1.00  0.00     0.004 C 
ENDBRANCH  18  20
ENDBRANCH  11  18
ENDBRANCH   8  11
ENDBRANCH   3   7
ENDBRANCH   1   2
BRANCH   1  22
ATOM     22  N   UNL     1     -10.357   1.413  -4.386  1.00  0.00    -0.348 N 
ATOM     23  C   UNL     1     -11.058   0.518  -3.623  1.00  0.00     0.249 C 
ATOM     24  O   UNL     1     -11.502  -0.537  -4.062  1.00  0.00    -0.272 OA
ATOM     25  H   UNL     1     -10.047   2.266  -3.921  1.00  0.00     0.163 HD
BRANCH  23  26
ATOM     26  C   UNL     1     -11.171   0.950  -2.153  1.00  0.00     0.238 C 
ATOM     27  N   UNL     1     -10.319   0.062  -1.314  1.00  0.00    -0.236 NA
ATOM     28  C   UNL     1     -10.638   2.354  -1.930  1.00  0.00     0.206 C 
ATOM     29  C   UNL     1      -9.362   0.849  -0.924  1.00  0.00     0.208 C 
ATOM     30  O   UNL     1      -9.369   2.149  -1.310  1.00  0.00    -0.474 OA
ATOM     31  C   UNL     1     -11.514   3.169  -0.987  1.00  0.00     0.056 C 
BRANCH  29  32
ATOM     32  C   UNL     1      -8.148   0.453  -0.088  1.00  0.00     0.171 C 
BRANCH  32  33
ATOM     33  N   UNL     1      -7.099   1.455  -0.187  1.00  0.00    -0.342 N 
ATOM     34  C   UNL     1      -5.799   1.138  -0.500  1.00  0.00     0.246 CG0
ATOM     35  O   UNL     1      -5.418  -0.013  -0.693  1.00  0.00    -0.273 OA
ATOM     36  H   UNL     1      -7.287   2.432   0.010  1.00  0.00     0.164 HD
ATOM     37  G   UNL     1      -4.858   2.349  -0.613  1.00  0.00     0.000 G0
ENDBRANCH  32  33
BRANCH  32  38
ATOM     38  C   UNL     1      -8.568   0.175   1.379  1.00  0.00     0.017 C 
ATOM     39  C   UNL     1      -8.213  -1.267   1.765  1.00  0.00     0.010 C 
BRANCH  38  40
ATOM     40  C   UNL     1      -7.975   1.194   2.379  1.00  0.00     0.002 C 
ATOM     41  C   UNL     1      -7.926   0.683   3.813  1.00  0.00     0.004 C 
ENDBRANCH  38  40
ENDBRANCH  32  38
ENDBRANCH  29  32
ENDBRANCH  23  26
ENDBRANCH   1  22
TORSDOF 4
ENDMDL
MODEL 10
REMARK VINA RESULT:    -6.584      3.475      7.166
REMARK INTER + INTRA:         -12.414
REMARK INTER:                 -10.930
REMARK INTRA:                  -1.483
REMARK UNBOUND:                -1.210
REMARK SMILES CC[C@H](C)[C@@H]1NC(=O)[C@H]2CSC(=N2)[C@@H]([C@@H](C)CC)NC(=O)c2csc(n2)CNC(=O)[C@H]2N=C1O[C@@H]2C
REMARK SMILES IDX 27 1 25 2 22 3 26 4 23 5 24 6 20 7 19 8 21 9 14 11 12 12
REMARK SMILES IDX 11 13 10 14 13 15 9 16 15 18 16 19 17 20 18 21 28 22 29 23
REMARK SMILES IDX 30 24 31 26 32 27 35 28 33 29 34 30 36 31 5 32 6 33 7 34
REMARK SMILES IDX 8 35 3 38 4 39 2 40 1 41
REMARK H PARENT 19 10 28 25 6 36
REMARK Flexibility Score:   91.900
ROOT
ATOM      1  C   UNL     1     -11.064   1.852   1.755  1.00  0.00     0.183 C 
ENDROOT
BRANCH   1   2
ATOM      2  C   UNL     1      -9.806   1.053   1.573  1.00  0.00     0.113 A 
ATOM      3  C   UNL     1      -7.908   0.333   0.653  1.00  0.00     0.139 A 
ATOM      4  N   UNL     1      -8.903   1.313   0.646  1.00  0.00    -0.234 NA
ATOM      5  C   UNL     1      -8.057  -0.625   1.637  1.00  0.00     0.101 A 
ATOM      6  S   UNL     1      -9.473  -0.314   2.556  1.00  0.00    -0.125 S 
BRANCH   3   7
ATOM      7  C   UNL     1      -6.849   0.356  -0.358  1.00  0.00     0.271 C 
ATOM      8  N   UNL     1      -7.162   1.193  -1.401  1.00  0.00    -0.341 N 
ATOM      9  O   UNL     1      -5.828  -0.317  -0.289  1.00  0.00    -0.267 OA
ATOM     10  H   UNL     1      -8.038   1.706  -1.306  1.00  0.00     0.164 HD
BRANCH   8  11
ATOM     11  C   UNL     1      -6.399   1.283  -2.634  1.00  0.00     0.140 C 
BRANCH  11  12
ATOM     12  C   UNL     1      -7.358   1.026  -3.800  1.00  0.00     0.091 C 
ATOM     13  S   UNL     1      -7.326   2.050  -5.217  1.00  0.00    -0.106 SA
ATOM     14  C   UNL     1      -8.388   0.885  -6.098  1.00  0.00     0.113 C 
ATOM     15  N   UNL     1      -8.266   0.103  -3.752  1.00  0.00    -0.267 NA
ATOM     16  C   UNL     1      -9.119   0.156  -4.981  1.00  0.00     0.205 CG0
ATOM     17  G   UNL     1     -10.468   0.831  -4.683  1.00  0.00     0.000 G0
ENDBRANCH  11  12
BRANCH  11  18
ATOM     18  C   UNL     1      -5.513   2.551  -2.736  1.00  0.00     0.015 C 
ATOM     19  C   UNL     1      -5.649   3.402  -1.467  1.00  0.00     0.010 C 
BRANCH  18  20
ATOM     20  C   UNL     1      -4.034   2.279  -3.077  1.00  0.00     0.002 C 
ATOM     21  C   UNL     1      -3.086   2.630  -1.935  1.00  0.00     0.004 C 
ENDBRANCH  18  20
ENDBRANCH  11  18
ENDBRANCH   8  11
ENDBRANCH   3   7
ENDBRANCH   1   2
BRANCH   1  22
ATOM     22  N   UNL     1     -12.051   1.319   0.843  1.00  0.00    -0.348 N 
ATOM     23  C   UNL     1     -12.449   1.927  -0.317  1.00  0.00     0.249 C 
ATOM     24  O   UNL     1     -11.939   2.956  -0.746  1.00  0.00    -0.272 OA
ATOM     25  H   UNL     1     -12.555   0.476   1.114  1.00  0.00     0.163 HD
BRANCH  23  26
ATOM     26  C   UNL     1     -13.553   1.149  -1.048  1.00  0.00     0.238 C 
ATOM     27  N   UNL     1     -13.589   1.571  -2.476  1.00  0.00    -0.236 NA
ATOM     28  C   UNL     1     -13.276  -0.345  -1.073  1.00  0.00     0.206 C 
ATOM     29  C   UNL     1     -13.158   0.521  -3.108  1.00  0.00     0.208 C 
ATOM     30  O   UNL     1     -12.833  -0.593  -2.407  1.00  0.00    -0.474 OA
ATOM     31  C   UNL     1     -14.525  -1.176  -0.813  1.00  0.00     0.056 C 
BRANCH  29  32
ATOM     32  C   UNL     1     -12.916   0.405  -4.611  1.00  0.00     0.171 C 
BRANCH  32  33
ATOM     33  N   UNL     1     -11.551  -0.013  -4.886  1.00  0.00    -0.342 N 
ATOM     34  C   UNL     1     -10.467   0.803  -4.666  1.00  0.00     0.246 CG0
ATOM     35  O   UNL     1     -10.568   1.953  -4.247  1.00  0.00    -0.273 OA
ATOM     36  H   UNL     1     -11.353  -0.922  -5.290  1.00  0.00     0.164 HD
ATOM     37  G   UNL     1      -9.107   0.150  -4.966  1.00  0.00     0.000 G0
ENDBRANCH  32  33
BRANCH  32  38
ATOM     38  C   UNL     1     -13.968  -0.533  -5.259  1.00  0.00     0.017 C 
ATOM     39  C   UNL     1     -15.384  -0.020  -4.966  1.00  0.00     0.010 C 
BRANCH  38  40
ATOM     40  C   UNL     1     -13.740  -0.737  -6.775  1.00  0.00     0.002 C 
ATOM     41  C   UNL     1     -14.701   0.057  -7.649  1.00  0.00     0.004 C 
ENDBRANCH  38  40
ENDBRANCH  32  38
ENDBRANCH  29  32
ENDBRANCH  23  26
ENDBRANCH   1  22
TORSDOF 4
ENDMDL
MODEL 11
REMARK VINA RESULT:    -6.579      2.308      7.667
REMARK INTER + INTRA:         -12.405
REMARK INTER:                 -11.989
REMARK INTRA:                  -0.416
REMARK UNBOUND:                -1.210
REMARK SMILES CC[C@H](C)[C@@H]1NC(=O)[C@H]2CSC(=N2)[C@@H]([C@@H](C)CC)NC(=O)c2csc(n2)CNC(=O)[C@H]2N=C1O[C@@H]2C
REMARK SMILES IDX 27 1 25 2 22 3 26 4 23 5 24 6 20 7 19 8 21 9 14 11 12 12
REMARK SMILES IDX 11 13 10 14 13 15 9 16 15 18 16 19 17 20 18 21 28 22 29 23
REMARK SMILES IDX 30 24 31 26 32 27 35 28 33 29 34 30 36 31 5 32 6 33 7 34
REMARK SMILES IDX 8 35 3 38 4 39 2 40 1 41
REMARK H PARENT 19 10 28 25 6 36
REMARK Flexibility Score:   91.900
ROOT
ATOM      1  C   UNL     1      -5.578   3.363  -0.620  1.00  0.00     0.183 C 
ENDROOT
BRANCH   1   2
ATOM      2  C   UNL     1      -6.739   2.414  -0.534  1.00  0.00     0.113 A 
ATOM      3  C   UNL     1      -8.721   1.499  -0.982  1.00  0.00     0.139 A 
ATOM      4  N   UNL     1      -7.746   2.413  -1.388  1.00  0.00    -0.234 NA
ATOM      5  C   UNL     1      -8.395   0.781   0.152  1.00  0.00     0.101 A 
ATOM      6  S   UNL     1      -6.858   1.270   0.740  1.00  0.00    -0.125 S 
BRANCH   3   7
ATOM      7  C   UNL     1      -9.980   1.393  -1.722  1.00  0.00     0.271 C 
ATOM      8  N   UNL     1      -9.819   0.704  -2.899  1.00  0.00    -0.341 N 
ATOM      9  O   UNL     1     -11.034   1.891  -1.346  1.00  0.00    -0.267 OA
ATOM     10  H   UNL     1      -8.886   0.328  -3.065  1.00  0.00     0.164 HD
BRANCH   8  11
ATOM     11  C   UNL     1     -10.839   0.597  -3.929  1.00  0.00     0.140 C 
BRANCH  11  12
ATOM     12  C   UNL     1     -10.233   1.100  -5.243  1.00  0.00     0.091 C 
ATOM     13  S   UNL     1     -10.725   0.406  -6.770  1.00  0.00    -0.106 SA
ATOM     14  C   UNL     1      -9.886   1.735  -7.659  1.00  0.00     0.113 C 
ATOM     15  N   UNL     1      -9.294   1.993  -5.269  1.00  0.00    -0.267 NA
ATOM     16  C   UNL     1      -8.827   2.207  -6.675  1.00  0.00     0.205 CG0
ATOM     17  G   UNL     1      -7.492   1.486  -6.924  1.00  0.00     0.000 G0
ENDBRANCH  11  12
BRANCH  11  18
ATOM     18  C   UNL     1     -11.543  -0.783  -3.979  1.00  0.00     0.015 C 
ATOM     19  C   UNL     1     -10.521  -1.912  -3.793  1.00  0.00     0.010 C 
BRANCH  18  20
ATOM     20  C   UNL     1     -12.733  -0.935  -3.010  1.00  0.00     0.002 C 
ATOM     21  C   UNL     1     -14.084  -0.747  -3.692  1.00  0.00     0.004 C 
ENDBRANCH  18  20
ENDBRANCH  11  18
ENDBRANCH   8  11
ENDBRANCH   3   7
ENDBRANCH   1   2
BRANCH   1  22
ATOM     22  N   UNL     1      -4.740   2.925  -1.713  1.00  0.00    -0.348 N 
ATOM     23  C   UNL     1      -4.328   1.635  -1.911  1.00  0.00     0.249 C 
ATOM     24  O   UNL     1      -4.703   0.696  -1.218  1.00  0.00    -0.272 OA
ATOM     25  H   UNL     1      -4.353   3.629  -2.340  1.00  0.00     0.163 HD
BRANCH  23  26
ATOM     26  C   UNL     1      -3.400   1.486  -3.126  1.00  0.00     0.238 C 
ATOM     27  N   UNL     1      -4.121   0.760  -4.208  1.00  0.00    -0.236 NA
ATOM     28  C   UNL     1      -3.022   2.831  -3.721  1.00  0.00     0.206 C 
ATOM     29  C   UNL     1      -4.295   1.674  -5.115  1.00  0.00     0.208 C 
ATOM     30  O   UNL     1      -3.819   2.925  -4.900  1.00  0.00    -0.474 OA
ATOM     31  C   UNL     1      -1.554   2.902  -4.120  1.00  0.00     0.056 C 
BRANCH  29  32
ATOM     32  C   UNL     1      -5.052   1.510  -6.430  1.00  0.00     0.171 C 
BRANCH  32  33
ATOM     33  N   UNL     1      -6.388   2.076  -6.335  1.00  0.00    -0.342 N 
ATOM     34  C   UNL     1      -7.485   1.489  -6.920  1.00  0.00     0.246 CG0
ATOM     35  O   UNL     1      -7.418   0.460  -7.588  1.00  0.00    -0.273 OA
ATOM     36  H   UNL     1      -6.552   2.955  -5.857  1.00  0.00     0.164 HD
ATOM     37  G   UNL     1      -8.814   2.213  -6.651  1.00  0.00     0.000 G0
ENDBRANCH  32  33
BRANCH  32  38
ATOM     38  C   UNL     1      -4.235   2.111  -7.605  1.00  0.00     0.017 C 
ATOM     39  C   UNL     1      -2.758   1.714  -7.476  1.00  0.00     0.010 C 
BRANCH  38  40
ATOM     40  C   UNL     1      -4.806   1.735  -8.991  1.00  0.00     0.002 C 
ATOM     41  C   UNL     1      -4.396   0.347  -9.464  1.00  0.00     0.004 C 
ENDBRANCH  38  40
ENDBRANCH  32  38
ENDBRANCH  29  32
ENDBRANCH  23  26
ENDBRANCH   1  22
TORSDOF 4
ENDMDL
MODEL 12
REMARK VINA RESULT:    -6.534      2.607      6.291
REMARK INTER + INTRA:         -12.328
REMARK INTER:                 -11.906
REMARK INTRA:                  -0.422
REMARK UNBOUND:                -1.210
REMARK SMILES CC[C@H](C)[C@@H]1NC(=O)[C@H]2CSC(=N2)[C@@H]([C@@H](C)CC)NC(=O)c2csc(n2)CNC(=O)[C@H]2N=C1O[C@@H]2C
REMARK SMILES IDX 27 1 25 2 22 3 26 4 23 5 24 6 20 7 19 8 21 9 14 11 12 12
REMARK SMILES IDX 11 13 10 14 13 15 9 16 15 18 16 19 17 20 18 21 28 22 29 23
REMARK SMILES IDX 30 24 31 26 32 27 35 28 33 29 34 30 36 31 5 32 6 33 7 34
REMARK SMILES IDX 8 35 3 38 4 39 2 40 1 41
REMARK H PARENT 19 10 28 25 6 36
REMARK Flexibility Score:   91.900
ROOT
ATOM      1  C   UNL     1     -10.030   0.921  -0.454  1.00  0.00     0.183 C 
ENDROOT
BRANCH   1   2
ATOM      2  C   UNL     1      -8.625   1.233  -0.025  1.00  0.00     0.113 A 
ATOM      3  C   UNL     1      -6.468   1.774  -0.182  1.00  0.00     0.139 A 
ATOM      4  N   UNL     1      -7.695   1.692  -0.843  1.00  0.00    -0.234 NA
ATOM      5  C   UNL     1      -6.514   1.425   1.153  1.00  0.00     0.101 A 
ATOM      6  S   UNL     1      -8.108   0.962   1.589  1.00  0.00    -0.125 S 
BRANCH   3   7
ATOM      7  C   UNL     1      -5.264   2.165  -0.918  1.00  0.00     0.271 C 
ATOM      8  N   UNL     1      -4.287   1.203  -0.836  1.00  0.00    -0.341 N 
ATOM      9  O   UNL     1      -5.140   3.234  -1.502  1.00  0.00    -0.267 OA
ATOM     10  H   UNL     1      -4.545   0.354  -0.334  1.00  0.00     0.164 HD
BRANCH   8  11
ATOM     11  C   UNL     1      -2.922   1.383  -1.304  1.00  0.00     0.140 C 
BRANCH  11  12
ATOM     12  C   UNL     1      -2.961   1.507  -2.830  1.00  0.00     0.091 C 
ATOM     13  S   UNL     1      -1.969   2.690  -3.650  1.00  0.00    -0.106 SA
ATOM     14  C   UNL     1      -2.339   1.917  -5.239  1.00  0.00     0.113 C 
ATOM     15  N   UNL     1      -3.772   0.803  -3.555  1.00  0.00    -0.267 NA
ATOM     16  C   UNL     1      -3.664   1.211  -4.991  1.00  0.00     0.205 CG0
ATOM     17  G   UNL     1      -4.843   2.111  -5.395  1.00  0.00     0.000 G0
ENDBRANCH  11  12
BRANCH  11  18
ATOM     18  C   UNL     1      -2.135   2.481  -0.543  1.00  0.00     0.015 C 
ATOM     19  C   UNL     1      -2.711   2.674   0.866  1.00  0.00     0.010 C 
BRANCH  18  20
ATOM     20  C   UNL     1      -0.608   2.269  -0.504  1.00  0.00     0.002 C 
ATOM     21  C   UNL     1       0.172   3.457  -1.056  1.00  0.00     0.004 C 
ENDBRANCH  18  20
ENDBRANCH  11  18
ENDBRANCH   8  11
ENDBRANCH   3   7
ENDBRANCH   1   2
BRANCH   1  22
ATOM     22  N   UNL     1     -10.011   0.720  -1.886  1.00  0.00    -0.348 N 
ATOM     23  C   UNL     1     -10.207   1.706  -2.814  1.00  0.00     0.249 C 
ATOM     24  O   UNL     1     -10.335   2.889  -2.521  1.00  0.00    -0.272 OA
ATOM     25  H   UNL     1      -9.932  -0.233  -2.240  1.00  0.00     0.163 HD
BRANCH  23  26
ATOM     26  C   UNL     1     -10.186   1.178  -4.256  1.00  0.00     0.238 C 
ATOM     27  N   UNL     1      -9.454   2.144  -5.123  1.00  0.00    -0.236 NA
ATOM     28  C   UNL     1      -9.422  -0.131  -4.372  1.00  0.00     0.206 C 
ATOM     29  C   UNL     1      -8.366   1.504  -5.430  1.00  0.00     0.208 C 
ATOM     30  O   UNL     1      -8.179   0.245  -4.962  1.00  0.00    -0.474 OA
ATOM     31  C   UNL     1     -10.113  -1.131  -5.289  1.00  0.00     0.056 C 
BRANCH  29  32
ATOM     32  C   UNL     1      -7.198   2.046  -6.249  1.00  0.00     0.171 C 
BRANCH  32  33
ATOM     33  N   UNL     1      -5.952   1.399  -5.870  1.00  0.00    -0.342 N 
ATOM     34  C   UNL     1      -4.869   2.098  -5.393  1.00  0.00     0.246 CG0
ATOM     35  O   UNL     1      -4.861   3.321  -5.275  1.00  0.00    -0.273 OA
ATOM     36  H   UNL     1      -5.826   0.399  -5.980  1.00  0.00     0.164 HD
ATOM     37  G   UNL     1      -3.671   1.222  -4.993  1.00  0.00     0.000 G0
ENDBRANCH  32  33
BRANCH  32  38
ATOM     38  C   UNL     1      -7.496   1.920  -7.767  1.00  0.00     0.017 C 
ATOM     39  C   UNL     1      -6.410   2.638  -8.578  1.00  0.00     0.010 C 
BRANCH  38  40
ATOM     40  C   UNL     1      -7.674   0.454  -8.226  1.00  0.00     0.002 C 
ATOM     41  C   UNL     1      -6.529  -0.056  -9.092  1.00  0.00     0.004 C 
ENDBRANCH  38  40
ENDBRANCH  32  38
ENDBRANCH  29  32
ENDBRANCH  23  26
ENDBRANCH   1  22
TORSDOF 4
ENDMDL
MODEL 13
REMARK VINA RESULT:    -6.514      4.648      6.498
REMARK INTER + INTRA:         -12.294
REMARK INTER:                 -10.695
REMARK INTRA:                  -1.599
REMARK UNBOUND:                -1.210
REMARK SMILES CC[C@H](C)[C@@H]1NC(=O)[C@H]2CSC(=N2)[C@@H]([C@@H](C)CC)NC(=O)c2csc(n2)CNC(=O)[C@H]2N=C1O[C@@H]2C
REMARK SMILES IDX 27 1 25 2 22 3 26 4 23 5 24 6 20 7 19 8 21 9 14 11 12 12
REMARK SMILES IDX 11 13 10 14 13 15 9 16 15 18 16 19 17 20 18 21 28 22 29 23
REMARK SMILES IDX 30 24 31 26 32 27 35 28 33 29 34 30 36 31 5 32 6 33 7 34
REMARK SMILES IDX 8 35 3 38 4 39 2 40 1 41
REMARK H PARENT 19 10 28 25 6 36
REMARK Flexibility Score:   91.900
ROOT
ATOM      1  C   UNL     1     -12.542   3.770 -10.578  1.00  0.00     0.183 C 
ENDROOT
BRANCH   1   2
ATOM      2  C   UNL     1     -11.766   3.755 -11.864  1.00  0.00     0.113 A 
ATOM      3  C   UNL     1     -10.096   3.366 -13.287  1.00  0.00     0.139 A 
ATOM      4  N   UNL     1     -10.635   3.095 -12.027  1.00  0.00    -0.234 NA
ATOM      5  C   UNL     1     -10.873   4.191 -14.076  1.00  0.00     0.101 A 
ATOM      6  S   UNL     1     -12.290   4.658 -13.226  1.00  0.00    -0.125 S 
BRANCH   3   7
ATOM      7  C   UNL     1      -8.788   2.821 -13.657  1.00  0.00     0.271 C 
ATOM      8  N   UNL     1      -8.470   1.716 -12.907  1.00  0.00    -0.341 N 
ATOM      9  O   UNL     1      -8.060   3.318 -14.508  1.00  0.00    -0.267 OA
ATOM     10  H   UNL     1      -9.187   1.406 -12.253  1.00  0.00     0.164 HD
BRANCH   8  11
ATOM     11  C   UNL     1      -7.167   1.071 -12.915  1.00  0.00     0.140 C 
BRANCH  11  12
ATOM     12  C   UNL     1      -6.506   1.333 -11.558  1.00  0.00     0.091 C 
ATOM     13  S   UNL     1      -4.991   0.564 -11.146  1.00  0.00    -0.106 SA
ATOM     14  C   UNL     1      -4.817   1.646  -9.712  1.00  0.00     0.113 C 
ATOM     15  N   UNL     1      -7.070   2.063 -10.649  1.00  0.00    -0.267 NA
ATOM     16  C   UNL     1      -6.248   2.052  -9.398  1.00  0.00     0.205 CG0
ATOM     17  G   UNL     1      -6.862   1.112  -8.347  1.00  0.00     0.000 G0
ENDBRANCH  11  12
BRANCH  11  18
ATOM     18  C   UNL     1      -7.196  -0.403 -13.394  1.00  0.00     0.015 C 
ATOM     19  C   UNL     1      -8.634  -0.938 -13.394  1.00  0.00     0.010 C 
BRANCH  18  20
ATOM     20  C   UNL     1      -6.502  -0.654 -14.749  1.00  0.00     0.002 C 
ATOM     21  C   UNL     1      -6.057   0.632 -15.437  1.00  0.00     0.004 C 
ENDBRANCH  18  20
ENDBRANCH  11  18
ENDBRANCH   8  11
ENDBRANCH   3   7
ENDBRANCH   1   2
BRANCH   1  22
ATOM     22  N   UNL     1     -12.256   2.533  -9.886  1.00  0.00    -0.348 N 
ATOM     23  C   UNL     1     -12.738   2.203  -8.648  1.00  0.00     0.249 C 
ATOM     24  O   UNL     1     -13.539   2.896  -8.032  1.00  0.00    -0.272 OA
ATOM     25  H   UNL     1     -11.581   1.891 -10.300  1.00  0.00     0.163 HD
BRANCH  23  26
ATOM     26  C   UNL     1     -12.215   0.847  -8.148  1.00  0.00     0.238 C 
ATOM     27  N   UNL     1     -10.744   0.776  -8.371  1.00  0.00    -0.236 NA
ATOM     28  C   UNL     1     -12.409   0.681  -6.651  1.00  0.00     0.206 C 
ATOM     29  C   UNL     1     -10.259   0.814  -7.166  1.00  0.00     0.208 C 
ATOM     30  O   UNL     1     -11.104   0.883  -6.109  1.00  0.00    -0.474 OA
ATOM     31  C   UNL     1     -12.880  -0.717  -6.275  1.00  0.00     0.056 C 
BRANCH  29  32
ATOM     32  C   UNL     1      -8.781   0.845  -6.787  1.00  0.00     0.171 C 
BRANCH  32  33
ATOM     33  N   UNL     1      -8.012   1.610  -7.756  1.00  0.00    -0.342 N 
ATOM     34  C   UNL     1      -6.875   1.121  -8.353  1.00  0.00     0.246 CG0
ATOM     35  O   UNL     1      -6.407   0.014  -8.097  1.00  0.00    -0.273 OA
ATOM     36  H   UNL     1      -8.272   2.560  -7.999  1.00  0.00     0.164 HD
ATOM     37  G   UNL     1      -6.244   2.063  -9.390  1.00  0.00     0.000 G0
ENDBRANCH  32  33
BRANCH  32  38
ATOM     38  C   UNL     1      -8.603   1.370  -5.338  1.00  0.00     0.017 C 
ATOM     39  C   UNL     1      -8.440   0.193  -4.368  1.00  0.00     0.010 C 
BRANCH  38  40
ATOM     40  C   UNL     1      -7.444   2.384  -5.202  1.00  0.00     0.002 C 
ATOM     41  C   UNL     1      -6.134   1.755  -4.744  1.00  0.00     0.004 C 
ENDBRANCH  38  40
ENDBRANCH  32  38
ENDBRANCH  29  32
ENDBRANCH  23  26
ENDBRANCH   1  22
TORSDOF 4
ENDMDL
MODEL 14
REMARK VINA RESULT:    -6.456      5.261     10.020
REMARK INTER + INTRA:         -12.195
REMARK INTER:                 -10.977
REMARK INTRA:                  -1.218
REMARK UNBOUND:                -1.210
REMARK SMILES CC[C@H](C)[C@@H]1NC(=O)[C@H]2CSC(=N2)[C@@H]([C@@H](C)CC)NC(=O)c2csc(n2)CNC(=O)[C@H]2N=C1O[C@@H]2C
REMARK SMILES IDX 27 1 25 2 22 3 26 4 23 5 24 6 20 7 19 8 21 9 14 11 12 12
REMARK SMILES IDX 11 13 10 14 13 15 9 16 15 18 16 19 17 20 18 21 28 22 29 23
REMARK SMILES IDX 30 24 31 26 32 27 35 28 33 29 34 30 36 31 5 32 6 33 7 34
REMARK SMILES IDX 8 35 3 38 4 39 2 40 1 41
REMARK H PARENT 19 10 28 25 6 36
REMARK Flexibility Score:   91.900
ROOT
ATOM      1  C   UNL     1     -10.958   2.561  -0.932  1.00  0.00     0.183 C 
ENDROOT
BRANCH   1   2
ATOM      2  C   UNL     1     -12.317   1.922  -0.934  1.00  0.00     0.113 A 
ATOM      3  C   UNL     1     -14.439   1.537  -1.495  1.00  0.00     0.139 A 
ATOM      4  N   UNL     1     -13.254   2.199  -1.822  1.00  0.00    -0.234 NA
ATOM      5  C   UNL     1     -14.350   0.720  -0.385  1.00  0.00     0.101 A 
ATOM      6  S   UNL     1     -12.769   0.795   0.279  1.00  0.00    -0.125 S 
BRANCH   3   7
ATOM      7  C   UNL     1     -15.650   1.770  -2.285  1.00  0.00     0.271 C 
ATOM      8  N   UNL     1     -15.992   0.665  -3.025  1.00  0.00    -0.341 N 
ATOM      9  O   UNL     1     -16.257   2.834  -2.302  1.00  0.00    -0.267 OA
ATOM     10  H   UNL     1     -15.405  -0.156  -2.888  1.00  0.00     0.164 HD
BRANCH   8  11
ATOM     11  C   UNL     1     -17.031   0.652  -4.042  1.00  0.00     0.140 C 
BRANCH  11  12
ATOM     12  C   UNL     1     -16.358   0.845  -5.404  1.00  0.00     0.091 C 
ATOM     13  S   UNL     1     -17.004   0.068  -6.830  1.00  0.00    -0.106 SA
ATOM     14  C   UNL     1     -15.929   1.070  -7.878  1.00  0.00     0.113 C 
ATOM     15  N   UNL     1     -15.259   1.518  -5.538  1.00  0.00    -0.267 NA
ATOM     16  C   UNL     1     -14.781   1.445  -6.954  1.00  0.00     0.205 CG0
ATOM     17  G   UNL     1     -13.623   0.443  -7.091  1.00  0.00     0.000 G0
ENDBRANCH  11  12
BRANCH  11  18
ATOM     18  C   UNL     1     -18.016  -0.539  -3.921  1.00  0.00     0.015 C 
ATOM     19  C   UNL     1     -17.551  -1.509  -2.827  1.00  0.00     0.010 C 
BRANCH  18  20
ATOM     20  C   UNL     1     -19.493  -0.137  -3.728  1.00  0.00     0.002 C 
ATOM     21  C   UNL     1     -19.763   0.505  -2.372  1.00  0.00     0.004 C 
ENDBRANCH  18  20
ENDBRANCH  11  18
ENDBRANCH   8  11
ENDBRANCH   3   7
ENDBRANCH   1   2
BRANCH   1  22
ATOM     22  N   UNL     1     -10.257   2.089  -2.106  1.00  0.00    -0.348 N 
ATOM     23  C   UNL     1      -9.899   0.787  -2.330  1.00  0.00     0.249 C 
ATOM     24  O   UNL     1     -10.216  -0.134  -1.586  1.00  0.00    -0.272 OA
ATOM     25  H   UNL     1      -9.926   2.777  -2.782  1.00  0.00     0.163 HD
BRANCH  23  26
ATOM     26  C   UNL     1      -9.116   0.602  -3.638  1.00  0.00     0.238 C 
ATOM     27  N   UNL     1      -9.888  -0.286  -4.552  1.00  0.00    -0.236 NA
ATOM     28  C   UNL     1      -8.946   1.911  -4.390  1.00  0.00     0.206 C 
ATOM     29  C   UNL     1     -10.260   0.518  -5.503  1.00  0.00     0.208 C 
ATOM     30  O   UNL     1      -9.887   1.820  -5.459  1.00  0.00    -0.474 OA
ATOM     31  C   UNL     1      -7.552   2.069  -4.981  1.00  0.00     0.056 C 
BRANCH  29  32
ATOM     32  C   UNL     1     -11.152   0.163  -6.690  1.00  0.00     0.171 C 
BRANCH  32  33
ATOM     33  N   UNL     1     -12.370   0.957  -6.681  1.00  0.00    -0.342 N 
ATOM     34  C   UNL     1     -13.585   0.455  -7.081  1.00  0.00     0.246 CG0
ATOM     35  O   UNL     1     -13.731  -0.690  -7.501  1.00  0.00    -0.273 OA
ATOM     36  H   UNL     1     -12.357   1.934  -6.409  1.00  0.00     0.164 HD
ATOM     37  G   UNL     1     -14.759   1.438  -6.939  1.00  0.00     0.000 G0
ENDBRANCH  32  33
BRANCH  32  38
ATOM     38  C   UNL     1     -10.364   0.298  -8.020  1.00  0.00     0.017 C 
ATOM     39  C   UNL     1     -10.721   1.620  -8.711  1.00  0.00     0.010 C 
BRANCH  38  40
ATOM     40  C   UNL     1      -8.836   0.148  -7.833  1.00  0.00     0.002 C 
ATOM     41  C   UNL     1      -8.026   1.216  -8.556  1.00  0.00     0.004 C 
ENDBRANCH  38  40
ENDBRANCH  32  38
ENDBRANCH  29  32
ENDBRANCH  23  26
ENDBRANCH   1  22
TORSDOF 4
ENDMDL
MODEL 15
REMARK VINA RESULT:    -6.453      4.761      8.551
REMARK INTER + INTRA:         -12.190
REMARK INTER:                 -10.720
REMARK INTRA:                  -1.470
REMARK UNBOUND:                -1.210
REMARK SMILES CC[C@H](C)[C@@H]1NC(=O)[C@H]2CSC(=N2)[C@@H]([C@@H](C)CC)NC(=O)c2csc(n2)CNC(=O)[C@H]2N=C1O[C@@H]2C
REMARK SMILES IDX 27 1 25 2 22 3 26 4 23 5 24 6 20 7 19 8 21 9 14 11 12 12
REMARK SMILES IDX 11 13 10 14 13 15 9 16 15 18 16 19 17 20 18 21 28 22 29 23
REMARK SMILES IDX 30 24 31 26 32 27 35 28 33 29 34 30 36 31 5 32 6 33 7 34
REMARK SMILES IDX 8 35 3 38 4 39 2 40 1 41
REMARK H PARENT 19 10 28 25 6 36
REMARK Flexibility Score:   91.900
ROOT
ATOM      1  C   UNL     1     -15.163   0.911   1.098  1.00  0.00     0.183 C 
ENDROOT
BRANCH   1   2
ATOM      2  C   UNL     1     -13.719   1.302   0.971  1.00  0.00     0.113 A 
ATOM      3  C   UNL     1     -11.533   1.110   0.580  1.00  0.00     0.139 A 
ATOM      4  N   UNL     1     -12.791   0.516   0.457  1.00  0.00    -0.234 NA
ATOM      5  C   UNL     1     -11.549   2.372   1.140  1.00  0.00     0.101 A 
ATOM      6  S   UNL     1     -13.157   2.820   1.543  1.00  0.00    -0.125 S 
BRANCH   3   7
ATOM      7  C   UNL     1     -10.333   0.378   0.168  1.00  0.00     0.271 C 
ATOM      8  N   UNL     1      -9.872   0.808  -1.051  1.00  0.00    -0.341 N 
ATOM      9  O   UNL     1      -9.831  -0.528   0.822  1.00  0.00    -0.267 OA
ATOM     10  H   UNL     1     -10.382   1.588  -1.465  1.00  0.00     0.164 HD
BRANCH   8  11
ATOM     11  C   UNL     1      -8.816   0.152  -1.804  1.00  0.00     0.140 C 
BRANCH  11  12
ATOM     12  C   UNL     1      -9.346  -0.127  -3.213  1.00  0.00     0.091 C 
ATOM     13  S   UNL     1      -8.502   0.484  -4.616  1.00  0.00    -0.106 SA
ATOM     14  C   UNL     1      -9.515  -0.553  -5.693  1.00  0.00     0.113 C 
ATOM     15  N   UNL     1     -10.463  -0.753  -3.415  1.00  0.00    -0.267 NA
ATOM     16  C   UNL     1     -10.778  -0.783  -4.878  1.00  0.00     0.205 CG0
ATOM     17  G   UNL     1     -11.851   0.260  -5.230  1.00  0.00     0.000 G0
ENDBRANCH  11  12
BRANCH  11  18
ATOM     18  C   UNL     1      -7.441   0.863  -1.713  1.00  0.00     0.015 C 
ATOM     19  C   UNL     1      -7.631   2.358  -1.423  1.00  0.00     0.010 C 
BRANCH  18  20
ATOM     20  C   UNL     1      -6.446   0.220  -0.727  1.00  0.00     0.002 C 
ATOM     21  C   UNL     1      -4.993   0.374  -1.161  1.00  0.00     0.004 C 
ENDBRANCH  18  20
ENDBRANCH  11  18
ENDBRANCH   8  11
ENDBRANCH   3   7
ENDBRANCH   1   2
BRANCH   1  22
ATOM     22  N   UNL     1     -15.654   0.630  -0.233  1.00  0.00    -0.348 N 
ATOM     23  C   UNL     1     -16.425   1.482  -0.975  1.00  0.00     0.249 C 
ATOM     24  O   UNL     1     -16.709   2.619  -0.614  1.00  0.00    -0.272 OA
ATOM     25  H   UNL     1     -15.493  -0.298  -0.622  1.00  0.00     0.163 HD
BRANCH  23  26
ATOM     26  C   UNL     1     -16.839   0.884  -2.328  1.00  0.00     0.238 C 
ATOM     27  N   UNL     1     -16.114   1.590  -3.420  1.00  0.00    -0.236 NA
ATOM     28  C   UNL     1     -16.438  -0.576  -2.451  1.00  0.00     0.206 C 
ATOM     29  C   UNL     1     -15.293   0.686  -3.866  1.00  0.00     0.208 C 
ATOM     30  O   UNL     1     -15.301  -0.551  -3.313  1.00  0.00    -0.474 OA
ATOM     31  C   UNL     1     -17.522  -1.426  -3.101  1.00  0.00     0.056 C 
BRANCH  29  32
ATOM     32  C   UNL     1     -14.240   0.878  -4.954  1.00  0.00     0.171 C 
BRANCH  32  33
ATOM     33  N   UNL     1     -13.109  -0.012  -4.744  1.00  0.00    -0.342 N 
ATOM     34  C   UNL     1     -11.859   0.246  -5.253  1.00  0.00     0.246 CG0
ATOM     35  O   UNL     1     -11.607   1.230  -5.944  1.00  0.00    -0.273 OA
ATOM     36  H   UNL     1     -13.216  -0.885  -4.239  1.00  0.00     0.164 HD
ATOM     37  G   UNL     1     -10.788  -0.788  -4.868  1.00  0.00     0.000 G0
ENDBRANCH  32  33
BRANCH  32  38
ATOM     38  C   UNL     1     -14.876   0.711  -6.360  1.00  0.00     0.017 C 
ATOM     39  C   UNL     1     -14.691  -0.729  -6.854  1.00  0.00     0.010 C 
BRANCH  38  40
ATOM     40  C   UNL     1     -16.360   1.142  -6.405  1.00  0.00     0.002 C 
ATOM     41  C   UNL     1     -17.306   0.025  -6.824  1.00  0.00     0.004 C 
ENDBRANCH  38  40
ENDBRANCH  32  38
ENDBRANCH  29  32
ENDBRANCH  23  26
ENDBRANCH   1  22
TORSDOF 4
ENDMDL
MODEL 16
REMARK VINA RESULT:    -6.392      8.018     12.999
REMARK INTER + INTRA:         -12.087
REMARK INTER:                 -10.400
REMARK INTRA:                  -1.687
REMARK UNBOUND:                -1.210
REMARK SMILES CC[C@H](C)[C@@H]1NC(=O)[C@H]2CSC(=N2)[C@@H]([C@@H](C)CC)NC(=O)c2csc(n2)CNC(=O)[C@H]2N=C1O[C@@H]2C
REMARK SMILES IDX 27 1 25 2 22 3 26 4 23 5 24 6 20 7 19 8 21 9 14 11 12 12
REMARK SMILES IDX 11 13 10 14 13 15 9 16 15 18 16 19 17 20 18 21 28 22 29 23
REMARK SMILES IDX 30 24 31 26 32 27 35 28 33 29 34 30 36 31 5 32 6 33 7 34
REMARK SMILES IDX 8 35 3 38 4 39 2 40 1 41
REMARK H PARENT 19 10 28 25 6 36
REMARK Flexibility Score:   91.900
ROOT
ATOM      1  C   UNL     1     -12.408   0.349  -3.969  1.00  0.00     0.183 C 
ENDROOT
BRANCH   1   2
ATOM      2  C   UNL     1     -13.463   0.581  -2.926  1.00  0.00     0.113 A 
ATOM      3  C   UNL     1     -15.301   1.397  -1.965  1.00  0.00     0.139 A 
ATOM      4  N   UNL     1     -14.578   1.252  -3.151  1.00  0.00    -0.234 NA
ATOM      5  C   UNL     1     -14.734   0.775  -0.870  1.00  0.00     0.101 A 
ATOM      6  S   UNL     1     -13.262   0.015  -1.318  1.00  0.00    -0.125 S 
BRANCH   3   7
ATOM      7  C   UNL     1     -16.529   2.194  -1.948  1.00  0.00     0.271 C 
ATOM      8  N   UNL     1     -17.640   1.417  -2.164  1.00  0.00    -0.341 N 
ATOM      9  O   UNL     1     -16.550   3.409  -1.795  1.00  0.00    -0.267 OA
ATOM     10  H   UNL     1     -17.467   0.416  -2.251  1.00  0.00     0.164 HD
BRANCH   8  11
ATOM     11  C   UNL     1     -18.976   1.944  -2.387  1.00  0.00     0.140 C 
BRANCH  11  12
ATOM     12  C   UNL     1     -19.581   1.200  -3.581  1.00  0.00     0.091 C 
ATOM     13  S   UNL     1     -20.691  -0.127  -3.330  1.00  0.00    -0.106 SA
ATOM     14  C   UNL     1     -21.126  -0.112  -5.082  1.00  0.00     0.113 C 
ATOM     15  N   UNL     1     -19.243   1.471  -4.802  1.00  0.00    -0.267 NA
ATOM     16  C   UNL     1     -19.910   0.518  -5.744  1.00  0.00     0.205 CG0
ATOM     17  G   UNL     1     -18.926  -0.565  -6.216  1.00  0.00     0.000 G0
ENDBRANCH  11  12
BRANCH  11  18
ATOM     18  C   UNL     1     -19.847   2.016  -1.107  1.00  0.00     0.015 C 
ATOM     19  C   UNL     1     -19.116   1.367   0.076  1.00  0.00     0.010 C 
BRANCH  18  20
ATOM     20  C   UNL     1     -20.352   3.429  -0.750  1.00  0.00     0.002 C 
ATOM     21  C   UNL     1     -20.014   4.469  -1.812  1.00  0.00     0.004 C 
ENDBRANCH  18  20
ENDBRANCH  11  18
ENDBRANCH   8  11
ENDBRANCH   3   7
ENDBRANCH   1   2
BRANCH   1  22
ATOM     22  N   UNL     1     -13.045   0.462  -5.262  1.00  0.00    -0.348 N 
ATOM     23  C   UNL     1     -12.463   0.114  -6.451  1.00  0.00     0.249 C 
ATOM     24  O   UNL     1     -11.360  -0.414  -6.531  1.00  0.00    -0.272 OA
ATOM     25  H   UNL     1     -13.959   0.910  -5.314  1.00  0.00     0.163 HD
BRANCH  23  26
ATOM     26  C   UNL     1     -13.365   0.400  -7.661  1.00  0.00     0.238 C 
ATOM     27  N   UNL     1     -14.309  -0.736  -7.849  1.00  0.00    -0.236 NA
ATOM     28  C   UNL     1     -14.239   1.623  -7.443  1.00  0.00     0.206 C 
ATOM     29  C   UNL     1     -15.461  -0.222  -7.534  1.00  0.00     0.208 C 
ATOM     30  O   UNL     1     -15.531   1.082  -7.169  1.00  0.00    -0.474 OA
ATOM     31  C   UNL     1     -14.333   2.503  -8.682  1.00  0.00     0.056 C 
BRANCH  29  32
ATOM     32  C   UNL     1     -16.795  -0.960  -7.475  1.00  0.00     0.171 C 
BRANCH  32  33
ATOM     33  N   UNL     1     -17.847  -0.091  -6.971  1.00  0.00    -0.342 N 
ATOM     34  C   UNL     1     -18.919  -0.564  -6.252  1.00  0.00     0.246 CG0
ATOM     35  O   UNL     1     -19.085  -1.756  -6.003  1.00  0.00    -0.273 OA
ATOM     36  H   UNL     1     -17.844   0.904  -7.167  1.00  0.00     0.164 HD
ATOM     37  G   UNL     1     -19.887   0.524  -5.761  1.00  0.00     0.000 G0
ENDBRANCH  32  33
BRANCH  32  38
ATOM     38  C   UNL     1     -17.140  -1.570  -8.859  1.00  0.00     0.017 C 
ATOM     39  C   UNL     1     -17.714  -2.981  -8.684  1.00  0.00     0.010 C 
BRANCH  38  40
ATOM     40  C   UNL     1     -18.081  -0.673  -9.696  1.00  0.00     0.002 C 
ATOM     41  C   UNL     1     -17.618  -0.479 -11.134  1.00  0.00     0.004 C 
ENDBRANCH  38  40
ENDBRANCH  32  38
ENDBRANCH  29  32
ENDBRANCH  23  26
ENDBRANCH   1  22
TORSDOF 4
ENDMDL
MODEL 17
REMARK VINA RESULT:    -6.388      3.107      9.096
REMARK INTER + INTRA:         -12.080
REMARK INTER:                 -10.417
REMARK INTRA:                  -1.663
REMARK UNBOUND:                -1.210
REMARK SMILES CC[C@H](C)[C@@H]1NC(=O)[C@H]2CSC(=N2)[C@@H]([C@@H](C)CC)NC(=O)c2csc(n2)CNC(=O)[C@H]2N=C1O[C@@H]2C
REMARK SMILES IDX 27 1 25 2 22 3 26 4 23 5 24 6 20 7 19 8 21 9 14 11 12 12
REMARK SMILES IDX 11 13 10 14 13 15 9 16 15 18 16 19 17 20 18 21 28 22 29 23
REMARK SMILES IDX 30 24 31 26 32 27 35 28 33 29 34 30 36 31 5 32 6 33 7 34
REMARK SMILES IDX 8 35 3 38 4 39 2 40 1 41
REMARK H PARENT 19 10 28 25 6 36
REMARK Flexibility Score:   91.900
ROOT
ATOM      1  C   UNL     1      -4.179   1.988  -5.259  1.00  0.00     0.183 C 
ENDROOT
BRANCH   1   2
ATOM      2  C   UNL     1      -5.272   1.516  -4.344  1.00  0.00     0.113 A 
ATOM      3  C   UNL     1      -7.323   1.228  -3.520  1.00  0.00     0.139 A 
ATOM      4  N   UNL     1      -6.559   1.660  -4.606  1.00  0.00    -0.234 NA
ATOM      5  C   UNL     1      -6.587   0.708  -2.473  1.00  0.00     0.101 A 
ATOM      6  S   UNL     1      -4.911   0.780  -2.835  1.00  0.00    -0.125 S 
BRANCH   3   7
ATOM      7  C   UNL     1      -8.779   1.384  -3.541  1.00  0.00     0.271 C 
ATOM      8  N   UNL     1      -9.376   0.448  -4.349  1.00  0.00    -0.341 N 
ATOM      9  O   UNL     1      -9.378   2.264  -2.936  1.00  0.00    -0.267 OA
ATOM     10  H   UNL     1      -8.749  -0.237  -4.769  1.00  0.00     0.164 HD
BRANCH   8  11
ATOM     11  C   UNL     1     -10.783   0.464  -4.716  1.00  0.00     0.140 C 
BRANCH  11  12
ATOM     12  C   UNL     1     -10.880   0.881  -6.186  1.00  0.00     0.091 C 
ATOM     13  S   UNL     1     -12.242   0.382  -7.162  1.00  0.00    -0.106 SA
ATOM     14  C   UNL     1     -11.748   1.533  -8.463  1.00  0.00     0.113 C 
ATOM     15  N   UNL     1      -9.936   1.545  -6.775  1.00  0.00    -0.267 NA
ATOM     16  C   UNL     1     -10.256   1.715  -8.228  1.00  0.00     0.205 CG0
ATOM     17  G   UNL     1      -9.446   0.731  -9.087  1.00  0.00     0.000 G0
ENDBRANCH  11  12
BRANCH  11  18
ATOM     18  C   UNL     1     -11.554  -0.818  -4.311  1.00  0.00     0.015 C 
ATOM     19  C   UNL     1     -10.575  -1.924  -3.896  1.00  0.00     0.010 C 
BRANCH  18  20
ATOM     20  C   UNL     1     -12.647  -0.604  -3.244  1.00  0.00     0.002 C 
ATOM     21  C   UNL     1     -12.410   0.638  -2.391  1.00  0.00     0.004 C 
ENDBRANCH  18  20
ENDBRANCH  11  18
ENDBRANCH   8  11
ENDBRANCH   3   7
ENDBRANCH   1   2
BRANCH   1  22
ATOM     22  N   UNL     1      -4.247   1.189  -6.462  1.00  0.00    -0.348 N 
ATOM     23  C   UNL     1      -4.152   1.684  -7.734  1.00  0.00     0.249 C 
ATOM     24  O   UNL     1      -3.913   2.861  -7.980  1.00  0.00    -0.272 OA
ATOM     25  H   UNL     1      -4.465   0.197  -6.372  1.00  0.00     0.163 HD
BRANCH  23  26
ATOM     26  C   UNL     1      -4.315   0.599  -8.809  1.00  0.00     0.238 C 
ATOM     27  N   UNL     1      -5.753   0.222  -8.911  1.00  0.00    -0.236 NA
ATOM     28  C   UNL     1      -3.928   1.103 -10.189  1.00  0.00     0.206 C 
ATOM     29  C   UNL     1      -6.100   0.687 -10.074  1.00  0.00     0.208 C 
ATOM     30  O   UNL     1      -5.178   1.315 -10.844  1.00  0.00    -0.474 OA
ATOM     31  C   UNL     1      -3.131   0.077 -10.983  1.00  0.00     0.056 C 
BRANCH  29  32
ATOM     32  C   UNL     1      -7.500   0.651 -10.681  1.00  0.00     0.171 C 
BRANCH  32  33
ATOM     33  N   UNL     1      -8.445   1.380  -9.851  1.00  0.00    -0.342 N 
ATOM     34  C   UNL     1      -9.411   0.753  -9.101  1.00  0.00     0.246 CG0
ATOM     35  O   UNL     1      -9.568  -0.465  -9.095  1.00  0.00    -0.273 OA
ATOM     36  H   UNL     1      -8.446   2.395  -9.825  1.00  0.00     0.164 HD
ATOM     37  G   UNL     1     -10.270   1.700  -8.248  1.00  0.00     0.000 G0
ENDBRANCH  32  33
BRANCH  32  38
ATOM     38  C   UNL     1      -7.471   1.168 -12.144  1.00  0.00     0.017 C 
ATOM     39  C   UNL     1      -7.559  -0.011 -13.121  1.00  0.00     0.010 C 
BRANCH  38  40
ATOM     40  C   UNL     1      -8.559   2.227 -12.430  1.00  0.00     0.002 C 
ATOM     41  C   UNL     1      -8.954   2.314 -13.899  1.00  0.00     0.004 C 
ENDBRANCH  38  40
ENDBRANCH  32  38
ENDBRANCH  29  32
ENDBRANCH  23  26
ENDBRANCH   1  22
TORSDOF 4
ENDMDL
MODEL 18
REMARK VINA RESULT:    -6.382      4.940      8.478
REMARK INTER + INTRA:         -12.069
REMARK INTER:                 -10.495
REMARK INTRA:                  -1.575
REMARK UNBOUND:                -1.210
REMARK SMILES CC[C@H](C)[C@@H]1NC(=O)[C@H]2CSC(=N2)[C@@H]([C@@H](C)CC)NC(=O)c2csc(n2)CNC(=O)[C@H]2N=C1O[C@@H]2C
REMARK SMILES IDX 27 1 25 2 22 3 26 4 23 5 24 6 20 7 19 8 21 9 14 11 12 12
REMARK SMILES IDX 11 13 10 14 13 15 9 16 15 18 16 19 17 20 18 21 28 22 29 23
REMARK SMILES IDX 30 24 31 26 32 27 35 28 33 29 34 30 36 31 5 32 6 33 7 34
REMARK SMILES IDX 8 35 3 38 4 39 2 40 1 41
REMARK H PARENT 19 10 28 25 6 36
REMARK Flexibility Score:   91.900
ROOT
ATOM      1  C   UNL     1      -8.318   0.444  -4.078  1.00  0.00     0.183 C 
ENDROOT
BRANCH   1   2
ATOM      2  C   UNL     1      -9.392   0.736  -5.085  1.00  0.00     0.113 A 
ATOM      3  C   UNL     1     -11.248   0.471  -6.290  1.00  0.00     0.139 A 
ATOM      4  N   UNL     1     -10.504   0.031  -5.194  1.00  0.00    -0.234 NA
ATOM      5  C   UNL     1     -10.702   1.550  -6.957  1.00  0.00     0.101 A 
ATOM      6  S   UNL     1      -9.220   2.011  -6.222  1.00  0.00    -0.125 S 
BRANCH   3   7
ATOM      7  C   UNL     1     -12.478  -0.229  -6.670  1.00  0.00     0.271 C 
ATOM      8  N   UNL     1     -13.584   0.343  -6.092  1.00  0.00    -0.341 N 
ATOM      9  O   UNL     1     -12.502  -1.221  -7.387  1.00  0.00    -0.267 OA
ATOM     10  H   UNL     1     -13.409   1.181  -5.538  1.00  0.00     0.164 HD
BRANCH   8  11
ATOM     11  C   UNL     1     -14.917  -0.236  -6.130  1.00  0.00     0.140 C 
BRANCH  11  12
ATOM     12  C   UNL     1     -15.504  -0.156  -4.718  1.00  0.00     0.091 C 
ATOM     13  S   UNL     1     -17.029   0.650  -4.434  1.00  0.00    -0.106 SA
ATOM     14  C   UNL     1     -17.092  -0.029  -2.763  1.00  0.00     0.113 C 
ATOM     15  N   UNL     1     -14.869  -0.610  -3.683  1.00  0.00    -0.267 NA
ATOM     16  C   UNL     1     -15.632  -0.300  -2.434  1.00  0.00     0.205 CG0
ATOM     17  G   UNL     1     -15.011   0.897  -1.695  1.00  0.00     0.000 G0
ENDBRANCH  11  12
BRANCH  11  18
ATOM     18  C   UNL     1     -15.807   0.306  -7.277  1.00  0.00     0.015 C 
ATOM     19  C   UNL     1     -15.210   1.597  -7.853  1.00  0.00     0.010 C 
BRANCH  18  20
ATOM     20  C   UNL     1     -16.118  -0.716  -8.390  1.00  0.00     0.002 C 
ATOM     21  C   UNL     1     -17.118  -0.194  -9.415  1.00  0.00     0.004 C 
ENDBRANCH  18  20
ENDBRANCH  11  18
ENDBRANCH   8  11
ENDBRANCH   3   7
ENDBRANCH   1   2
BRANCH   1  22
ATOM     22  N   UNL     1      -8.738   1.017  -2.819  1.00  0.00    -0.348 N 
ATOM     23  C   UNL     1      -9.387   0.332  -1.828  1.00  0.00     0.249 C 
ATOM     24  O   UNL     1      -9.606  -0.874  -1.877  1.00  0.00    -0.272 OA
ATOM     25  H   UNL     1      -8.624   2.021  -2.681  1.00  0.00     0.163 HD
BRANCH  23  26
ATOM     26  C   UNL     1      -9.755   1.221  -0.631  1.00  0.00     0.238 C 
ATOM     27  N   UNL     1     -11.062   1.885  -0.896  1.00  0.00    -0.236 NA
ATOM     28  C   UNL     1      -9.960   0.412   0.638  1.00  0.00     0.206 C 
ATOM     29  C   UNL     1     -11.863   1.314  -0.046  1.00  0.00     0.208 C 
ATOM     30  O   UNL     1     -11.377   0.372   0.799  1.00  0.00    -0.474 OA
ATOM     31  C   UNL     1      -9.349   1.081   1.862  1.00  0.00     0.056 C 
BRANCH  29  32
ATOM     32  C   UNL     1     -13.365   1.554   0.083  1.00  0.00     0.171 C 
BRANCH  32  33
ATOM     33  N   UNL     1     -14.116   0.569  -0.678  1.00  0.00    -0.342 N 
ATOM     34  C   UNL     1     -14.982   0.915  -1.688  1.00  0.00     0.246 CG0
ATOM     35  O   UNL     1     -15.208   2.080  -2.006  1.00  0.00    -0.273 OA
ATOM     36  H   UNL     1     -14.052  -0.420  -0.462  1.00  0.00     0.164 HD
ATOM     37  G   UNL     1     -15.631  -0.278  -2.407  1.00  0.00     0.000 G0
ENDBRANCH  32  33
BRANCH  32  38
ATOM     38  C   UNL     1     -13.781   1.594   1.577  1.00  0.00     0.017 C 
ATOM     39  C   UNL     1     -13.310   2.905   2.220  1.00  0.00     0.010 C 
BRANCH  38  40
ATOM     40  C   UNL     1     -15.296   1.369   1.787  1.00  0.00     0.002 C 
ATOM     41  C   UNL     1     -16.087   2.661   1.950  1.00  0.00     0.004 C 
ENDBRANCH  38  40
ENDBRANCH  32  38
ENDBRANCH  29  32
ENDBRANCH  23  26
ENDBRANCH   1  22
TORSDOF 4
ENDMDL
MODEL 19
REMARK VINA RESULT:    -6.377      2.216      5.857
REMARK INTER + INTRA:         -12.061
REMARK INTER:                 -11.613
REMARK INTRA:                  -0.448
REMARK UNBOUND:                -1.210
REMARK SMILES CC[C@H](C)[C@@H]1NC(=O)[C@H]2CSC(=N2)[C@@H]([C@@H](C)CC)NC(=O)c2csc(n2)CNC(=O)[C@H]2N=C1O[C@@H]2C
REMARK SMILES IDX 27 1 25 2 22 3 26 4 23 5 24 6 20 7 19 8 21 9 14 11 12 12
REMARK SMILES IDX 11 13 10 14 13 15 9 16 15 18 16 19 17 20 18 21 28 22 29 23
REMARK SMILES IDX 30 24 31 26 32 27 35 28 33 29 34 30 36 31 5 32 6 33 7 34
REMARK SMILES IDX 8 35 3 38 4 39 2 40 1 41
REMARK H PARENT 19 10 28 25 6 36
REMARK Flexibility Score:   91.900
ROOT
ATOM      1  C   UNL     1      -3.294   1.938  -6.483  1.00  0.00     0.183 C 
ENDROOT
BRANCH   1   2
ATOM      2  C   UNL     1      -4.737   2.005  -6.894  1.00  0.00     0.113 A 
ATOM      3  C   UNL     1      -6.955   1.848  -6.749  1.00  0.00     0.139 A 
ATOM      4  N   UNL     1      -5.744   1.846  -6.054  1.00  0.00    -0.234 NA
ATOM      5  C   UNL     1      -6.836   2.068  -8.107  1.00  0.00     0.101 A 
ATOM      6  S   UNL     1      -5.183   2.253  -8.533  1.00  0.00    -0.125 S 
BRANCH   3   7
ATOM      7  C   UNL     1      -8.209   1.588  -6.038  1.00  0.00     0.271 C 
ATOM      8  N   UNL     1      -8.521   0.251  -6.036  1.00  0.00    -0.341 N 
ATOM      9  O   UNL     1      -8.903   2.465  -5.539  1.00  0.00    -0.267 OA
ATOM     10  H   UNL     1      -7.834  -0.363  -6.471  1.00  0.00     0.164 HD
BRANCH   8  11
ATOM     11  C   UNL     1      -9.789  -0.292  -5.574  1.00  0.00     0.140 C 
BRANCH  11  12
ATOM     12  C   UNL     1      -9.908   0.004  -4.076  1.00  0.00     0.091 C 
ATOM     13  S   UNL     1     -11.341   0.772  -3.434  1.00  0.00    -0.106 SA
ATOM     14  C   UNL     1     -10.806   0.393  -1.752  1.00  0.00     0.113 C 
ATOM     15  N   UNL     1      -8.937  -0.231  -3.250  1.00  0.00    -0.267 NA
ATOM     16  C   UNL     1      -9.297   0.256  -1.881  1.00  0.00     0.205 CG0
ATOM     17  G   UNL     1      -8.602   1.592  -1.573  1.00  0.00     0.000 G0
ENDBRANCH  11  12
BRANCH  11  18
ATOM     18  C   UNL     1     -11.002   0.105  -6.453  1.00  0.00     0.015 C 
ATOM     19  C   UNL     1     -10.585   0.205  -7.926  1.00  0.00     0.010 C 
BRANCH  18  20
ATOM     20  C   UNL     1     -12.245  -0.792  -6.279  1.00  0.00     0.002 C 
ATOM     21  C   UNL     1     -13.229  -0.677  -7.437  1.00  0.00     0.004 C 
ENDBRANCH  18  20
ENDBRANCH  11  18
ENDBRANCH   8  11
ENDBRANCH   3   7
ENDBRANCH   1   2
BRANCH   1  22
ATOM     22  N   UNL     1      -3.214   2.382  -5.109  1.00  0.00    -0.348 N 
ATOM     23  C   UNL     1      -3.262   1.556  -4.019  1.00  0.00     0.249 C 
ATOM     24  O   UNL     1      -3.293   0.334  -4.103  1.00  0.00    -0.272 OA
ATOM     25  H   UNL     1      -3.207   3.384  -4.924  1.00  0.00     0.163 HD
BRANCH  23  26
ATOM     26  C   UNL     1      -3.210   2.323  -2.689  1.00  0.00     0.238 C 
ATOM     27  N   UNL     1      -4.517   3.000  -2.461  1.00  0.00    -0.236 NA
ATOM     28  C   UNL     1      -3.022   1.393  -1.503  1.00  0.00     0.206 C 
ATOM     29  C   UNL     1      -5.021   2.344  -1.459  1.00  0.00     0.208 C 
ATOM     30  O   UNL     1      -4.316   1.328  -0.905  1.00  0.00    -0.474 OA
ATOM     31  C   UNL     1      -2.040   1.943  -0.478  1.00  0.00     0.056 C 
BRANCH  29  32
ATOM     32  C   UNL     1      -6.398   2.560  -0.838  1.00  0.00     0.171 C 
BRANCH  32  33
ATOM     33  N   UNL     1      -7.276   1.434  -1.115  1.00  0.00    -0.342 N 
ATOM     34  C   UNL     1      -8.562   1.591  -1.573  1.00  0.00     0.246 CG0
ATOM     35  O   UNL     1      -9.077   2.690  -1.758  1.00  0.00    -0.273 OA
ATOM     36  H   UNL     1      -6.975   0.480  -0.941  1.00  0.00     0.164 HD
ATOM     37  G   UNL     1      -9.301   0.274  -1.859  1.00  0.00     0.000 G0
ENDBRANCH  32  33
BRANCH  32  38
ATOM     38  C   UNL     1      -6.269   2.855   0.680  1.00  0.00     0.017 C 
ATOM     39  C   UNL     1      -6.633   1.605   1.491  1.00  0.00     0.010 C 
BRANCH  38  40
ATOM     40  C   UNL     1      -4.877   3.402   1.071  1.00  0.00     0.002 C 
ATOM     41  C   UNL     1      -4.278   2.723   2.296  1.00  0.00     0.004 C 
ENDBRANCH  38  40
ENDBRANCH  32  38
ENDBRANCH  29  32
ENDBRANCH  23  26
ENDBRANCH   1  22
TORSDOF 4
ENDMDL
MODEL 20
REMARK VINA RESULT:    -6.306      4.553      7.858
REMARK INTER + INTRA:         -11.941
REMARK INTER:                 -10.526
REMARK INTRA:                  -1.415
REMARK UNBOUND:                -1.210
REMARK SMILES CC[C@H](C)[C@@H]1NC(=O)[C@H]2CSC(=N2)[C@@H]([C@@H](C)CC)NC(=O)c2csc(n2)CNC(=O)[C@H]2N=C1O[C@@H]2C
REMARK SMILES IDX 27 1 25 2 22 3 26 4 23 5 24 6 20 7 19 8 21 9 14 11 12 12
REMARK SMILES IDX 11 13 10 14 13 15 9 16 15 18 16 19 17 20 18 21 28 22 29 23
REMARK SMILES IDX 30 24 31 26 32 27 35 28 33 29 34 30 36 31 5 32 6 33 7 34
REMARK SMILES IDX 8 35 3 38 4 39 2 40 1 41
REMARK H PARENT 19 10 28 25 6 36
REMARK Flexibility Score:   91.900
ROOT
ATOM      1  C   UNL     1     -11.728   2.401  -0.300  1.00  0.00     0.183 C 
ENDROOT
BRANCH   1   2
ATOM      2  C   UNL     1     -10.482   1.694  -0.751  1.00  0.00     0.113 A 
ATOM      3  C   UNL     1      -9.010   0.733  -2.121  1.00  0.00     0.139 A 
ATOM      4  N   UNL     1     -10.157   1.523  -2.019  1.00  0.00    -0.234 NA
ATOM      5  C   UNL     1      -8.456   0.371  -0.908  1.00  0.00     0.101 A 
ATOM      6  S   UNL     1      -9.394   1.003   0.383  1.00  0.00    -0.125 S 
BRANCH   3   7
ATOM      7  C   UNL     1      -8.515   0.326  -3.437  1.00  0.00     0.271 C 
ATOM      8  N   UNL     1      -9.275   0.856  -4.450  1.00  0.00    -0.341 N 
ATOM      9  O   UNL     1      -7.561  -0.425  -3.603  1.00  0.00    -0.267 OA
ATOM     10  H   UNL     1     -10.023   1.483  -4.157  1.00  0.00     0.164 HD
BRANCH   8  11
ATOM     11  C   UNL     1      -9.145   0.485  -5.850  1.00  0.00     0.140 C 
BRANCH  11  12
ATOM     12  C   UNL     1     -10.522   0.032  -6.345  1.00  0.00     0.091 C 
ATOM     13  S   UNL     1     -11.136   0.583  -7.886  1.00  0.00    -0.106 SA
ATOM     14  C   UNL     1     -12.468  -0.633  -7.804  1.00  0.00     0.113 C 
ATOM     15  N   UNL     1     -11.304  -0.705  -5.620  1.00  0.00    -0.267 NA
ATOM     16  C   UNL     1     -12.617  -0.897  -6.313  1.00  0.00     0.205 CG0
ATOM     17  G   UNL     1     -13.697   0.012  -5.705  1.00  0.00     0.000 G0
ENDBRANCH  11  12
BRANCH  11  18
ATOM     18  C   UNL     1      -8.414   1.541  -6.717  1.00  0.00     0.015 C 
ATOM     19  C   UNL     1      -8.422   2.907  -6.017  1.00  0.00     0.010 C 
BRANCH  18  20
ATOM     20  C   UNL     1      -6.991   1.141  -7.157  1.00  0.00     0.002 C 
ATOM     21  C   UNL     1      -6.373   2.127  -8.142  1.00  0.00     0.004 C 
ENDBRANCH  18  20
ENDBRANCH  11  18
ENDBRANCH   8  11
ENDBRANCH   3   7
ENDBRANCH   1   2
BRANCH   1  22
ATOM     22  N   UNL     1     -12.843   1.515  -0.550  1.00  0.00    -0.348 N 
ATOM     23  C   UNL     1     -13.972   1.446   0.221  1.00  0.00     0.249 C 
ATOM     24  O   UNL     1     -14.189   2.199   1.164  1.00  0.00    -0.272 OA
ATOM     25  H   UNL     1     -12.759   0.829  -1.299  1.00  0.00     0.163 HD
BRANCH  23  26
ATOM     26  C   UNL     1     -14.957   0.371  -0.261  1.00  0.00     0.238 C 
ATOM     27  N   UNL     1     -15.624   0.839  -1.508  1.00  0.00    -0.236 NA
ATOM     28  C   UNL     1     -14.250  -0.920  -0.638  1.00  0.00     0.206 C 
ATOM     29  C   UNL     1     -15.135   0.052  -2.420  1.00  0.00     0.208 C 
ATOM     30  O   UNL     1     -14.251  -0.912  -2.064  1.00  0.00    -0.474 OA
ATOM     31  C   UNL     1     -14.998  -2.157  -0.159  1.00  0.00     0.056 C 
BRANCH  29  32
ATOM     32  C   UNL     1     -15.414   0.123  -3.919  1.00  0.00     0.171 C 
BRANCH  32  33
ATOM     33  N   UNL     1     -14.389  -0.583  -4.671  1.00  0.00    -0.342 N 
ATOM     34  C   UNL     1     -13.704  -0.005  -5.713  1.00  0.00     0.246 CG0
ATOM     35  O   UNL     1     -13.921   1.139  -6.105  1.00  0.00    -0.273 OA
ATOM     36  H   UNL     1     -14.168  -1.553  -4.473  1.00  0.00     0.164 HD
ATOM     37  G   UNL     1     -12.621  -0.899  -6.338  1.00  0.00     0.000 G0
ENDBRANCH  32  33
BRANCH  32  38
ATOM     38  C   UNL     1     -16.843  -0.394  -4.230  1.00  0.00     0.017 C 
ATOM     39  C   UNL     1     -17.224  -1.512  -3.250  1.00  0.00     0.010 C 
BRANCH  38  40
ATOM     40  C   UNL     1     -17.901   0.732  -4.247  1.00  0.00     0.002 C 
ATOM     41  C   UNL     1     -18.683   0.855  -2.946  1.00  0.00     0.004 C 
ENDBRANCH  38  40
ENDBRANCH  32  38
ENDBRANCH  29  32
ENDBRANCH  23  26
ENDBRANCH   1  22
TORSDOF 4
ENDMDL
MODEL 21
REMARK VINA RESULT:    -6.299      3.215      7.226
REMARK INTER + INTRA:         -11.928
REMARK INTER:                 -10.539
REMARK INTRA:                  -1.389
REMARK UNBOUND:                -1.210
REMARK SMILES CC[C@H](C)[C@@H]1NC(=O)[C@H]2CSC(=N2)[C@@H]([C@@H](C)CC)NC(=O)c2csc(n2)CNC(=O)[C@H]2N=C1O[C@@H]2C
REMARK SMILES IDX 27 1 25 2 22 3 26 4 23 5 24 6 20 7 19 8 21 9 14 11 12 12
REMARK SMILES IDX 11 13 10 14 13 15 9 16 15 18 16 19 17 20 18 21 28 22 29 23
REMARK SMILES IDX 30 24 31 26 32 27 35 28 33 29 34 30 36 31 5 32 6 33 7 34
REMARK SMILES IDX 8 35 3 38 4 39 2 40 1 41
REMARK H PARENT 19 10 28 25 6 36
REMARK Flexibility Score:   91.900
ROOT
ATOM      1  C   UNL     1      -9.447   0.135   1.705  1.00  0.00     0.183 C 
ENDROOT
BRANCH   1   2
ATOM      2  C   UNL     1     -10.679   0.831   1.202  1.00  0.00     0.113 A 
ATOM      3  C   UNL     1     -12.295   1.458  -0.199  1.00  0.00     0.139 A 
ATOM      4  N   UNL     1     -11.239   0.575   0.034  1.00  0.00    -0.234 NA
ATOM      5  C   UNL     1     -12.548   2.334   0.839  1.00  0.00     0.101 A 
ATOM      6  S   UNL     1     -11.435   2.071   2.119  1.00  0.00    -0.125 S 
BRANCH   3   7
ATOM      7  C   UNL     1     -13.005   1.430  -1.479  1.00  0.00     0.271 C 
ATOM      8  N   UNL     1     -12.374   0.619  -2.390  1.00  0.00    -0.341 N 
ATOM      9  O   UNL     1     -14.017   2.079  -1.711  1.00  0.00    -0.267 OA
ATOM     10  H   UNL     1     -11.553   0.123  -2.044  1.00  0.00     0.164 HD
BRANCH   8  11
ATOM     11  C   UNL     1     -12.734   0.534  -3.796  1.00  0.00     0.140 C 
BRANCH  11  12
ATOM     12  C   UNL     1     -11.440   0.567  -4.615  1.00  0.00     0.091 C 
ATOM     13  S   UNL     1     -11.133  -0.642  -5.838  1.00  0.00    -0.106 SA
ATOM     14  C   UNL     1      -9.740   0.323  -6.461  1.00  0.00     0.113 C 
ATOM     15  N   UNL     1     -10.505   1.435  -4.386  1.00  0.00    -0.267 NA
ATOM     16  C   UNL     1      -9.323   1.159  -5.262  1.00  0.00     0.205 CG0
ATOM     17  G   UNL     1      -8.207   0.457  -4.471  1.00  0.00     0.000 G0
ENDBRANCH  11  12
BRANCH  11  18
ATOM     18  C   UNL     1     -13.728  -0.609  -4.125  1.00  0.00     0.015 C 
ATOM     19  C   UNL     1     -14.032  -1.432  -2.866  1.00  0.00     0.010 C 
BRANCH  18  20
ATOM     20  C   UNL     1     -15.024  -0.155  -4.828  1.00  0.00     0.002 C 
ATOM     21  C   UNL     1     -15.138   1.361  -4.943  1.00  0.00     0.004 C 
ENDBRANCH  18  20
ENDBRANCH  11  18
ENDBRANCH   8  11
ENDBRANCH   3   7
ENDBRANCH   1   2
BRANCH   1  22
ATOM     22  N   UNL     1      -8.312   0.727   1.034  1.00  0.00    -0.348 N 
ATOM     23  C   UNL     1      -7.176   0.051   0.679  1.00  0.00     0.249 C 
ATOM     24  O   UNL     1      -7.042  -1.159   0.821  1.00  0.00    -0.272 OA
ATOM     25  H   UNL     1      -8.308   1.736   0.885  1.00  0.00     0.163 HD
BRANCH  23  26
ATOM     26  C   UNL     1      -6.120   0.959   0.031  1.00  0.00     0.238 C 
ATOM     27  N   UNL     1      -5.582   0.294  -1.188  1.00  0.00    -0.236 NA
ATOM     28  C   UNL     1      -6.717   2.270  -0.452  1.00  0.00     0.206 C 
ATOM     29  C   UNL     1      -6.045   1.026  -2.156  1.00  0.00     0.208 C 
ATOM     30  O   UNL     1      -6.805   2.110  -1.867  1.00  0.00    -0.474 OA
ATOM     31  C   UNL     1      -5.822   3.465  -0.153  1.00  0.00     0.056 C 
BRANCH  29  32
ATOM     32  C   UNL     1      -5.868   0.768  -3.650  1.00  0.00     0.171 C 
BRANCH  32  33
ATOM     33  N   UNL     1      -7.036   1.209  -4.396  1.00  0.00    -0.342 N 
ATOM     34  C   UNL     1      -8.200   0.481  -4.449  1.00  0.00     0.246 CG0
ATOM     35  O   UNL     1      -8.336  -0.607  -3.895  1.00  0.00    -0.273 OA
ATOM     36  H   UNL     1      -7.018   2.065  -4.940  1.00  0.00     0.164 HD
ATOM     37  G   UNL     1      -9.335   1.151  -5.241  1.00  0.00     0.000 G0
ENDBRANCH  32  33
BRANCH  32  38
ATOM     38  C   UNL     1      -4.555   1.418  -4.161  1.00  0.00     0.017 C 
ATOM     39  C   UNL     1      -4.818   2.866  -4.593  1.00  0.00     0.010 C 
BRANCH  38  40
ATOM     40  C   UNL     1      -3.400   1.330  -3.137  1.00  0.00     0.002 C 
ATOM     41  C   UNL     1      -2.803   2.683  -2.775  1.00  0.00     0.004 C 
ENDBRANCH  38  40
ENDBRANCH  32  38
ENDBRANCH  29  32
ENDBRANCH  23  26
ENDBRANCH   1  22
TORSDOF 4
ENDMDL
MODEL 22
REMARK VINA RESULT:    -6.290      2.756      8.265
REMARK INTER + INTRA:         -11.914
REMARK INTER:                 -10.462
REMARK INTRA:                  -1.452
REMARK UNBOUND:                -1.210
REMARK SMILES CC[C@H](C)[C@@H]1NC(=O)[C@H]2CSC(=N2)[C@@H]([C@@H](C)CC)NC(=O)c2csc(n2)CNC(=O)[C@H]2N=C1O[C@@H]2C
REMARK SMILES IDX 27 1 25 2 22 3 26 4 23 5 24 6 20 7 19 8 21 9 14 11 12 12
REMARK SMILES IDX 11 13 10 14 13 15 9 16 15 18 16 19 17 20 18 21 28 22 29 23
REMARK SMILES IDX 30 24 31 26 32 27 35 28 33 29 34 30 36 31 5 32 6 33 7 34
REMARK SMILES IDX 8 35 3 38 4 39 2 40 1 41
REMARK H PARENT 19 10 28 25 6 36
REMARK Flexibility Score:   91.900
ROOT
ATOM      1  C   UNL     1      -4.444   2.275  -5.640  1.00  0.00     0.183 C 
ENDROOT
BRANCH   1   2
ATOM      2  C   UNL     1      -4.633   1.915  -4.194  1.00  0.00     0.113 A 
ATOM      3  C   UNL     1      -5.525   1.886  -2.152  1.00  0.00     0.139 A 
ATOM      4  N   UNL     1      -5.691   2.265  -3.486  1.00  0.00    -0.234 NA
ATOM      5  C   UNL     1      -4.355   1.198  -1.894  1.00  0.00     0.101 A 
ATOM      6  S   UNL     1      -3.432   1.042  -3.333  1.00  0.00    -0.125 S 
BRANCH   3   7
ATOM      7  C   UNL     1      -6.530   2.258  -1.154  1.00  0.00     0.271 C 
ATOM      8  N   UNL     1      -7.529   1.320  -1.068  1.00  0.00    -0.341 N 
ATOM      9  O   UNL     1      -6.493   3.296  -0.505  1.00  0.00    -0.267 OA
ATOM     10  H   UNL     1      -7.411   0.495  -1.656  1.00  0.00     0.164 HD
BRANCH   8  11
ATOM     11  C   UNL     1      -8.755   1.499  -0.307  1.00  0.00     0.140 C 
BRANCH  11  12
ATOM     12  C   UNL     1      -9.931   1.413  -1.284  1.00  0.00     0.091 C 
ATOM     13  S   UNL     1     -11.315   0.408  -0.921  1.00  0.00    -0.106 SA
ATOM     14  C   UNL     1     -12.235   1.164  -2.278  1.00  0.00     0.113 C 
ATOM     15  N   UNL     1      -9.916   2.014  -2.432  1.00  0.00    -0.267 NA
ATOM     16  C   UNL     1     -11.145   1.665  -3.212  1.00  0.00     0.205 CG0
ATOM     17  G   UNL     1     -10.830   0.617  -4.292  1.00  0.00     0.000 G0
ENDBRANCH  11  12
BRANCH  11  18
ATOM     18  C   UNL     1      -8.845   0.610   0.960  1.00  0.00     0.015 C 
ATOM     19  C   UNL     1      -7.900  -0.592   0.838  1.00  0.00     0.010 C 
BRANCH  18  20
ATOM     20  C   UNL     1      -8.634   1.361   2.290  1.00  0.00     0.002 C 
ATOM     21  C   UNL     1      -7.580   0.711   3.180  1.00  0.00     0.004 C 
ENDBRANCH  18  20
ENDBRANCH  11  18
ENDBRANCH   8  11
ENDBRANCH   3   7
ENDBRANCH   1   2
BRANCH   1  22
ATOM     22  N   UNL     1      -5.328   1.432  -6.414  1.00  0.00    -0.348 N 
ATOM     23  C   UNL     1      -6.541   1.824  -6.912  1.00  0.00     0.249 C 
ATOM     24  O   UNL     1      -6.967   2.969  -6.821  1.00  0.00    -0.272 OA
ATOM     25  H   UNL     1      -5.080   0.450  -6.533  1.00  0.00     0.163 HD
BRANCH  23  26
ATOM     26  C   UNL     1      -7.276   0.692  -7.646  1.00  0.00     0.238 C 
ATOM     27  N   UNL     1      -8.320   0.122  -6.749  1.00  0.00    -0.236 NA
ATOM     28  C   UNL     1      -8.023   1.198  -8.868  1.00  0.00     0.206 C 
ATOM     29  C   UNL     1      -9.431   0.497  -7.309  1.00  0.00     0.208 C 
ATOM     30  O   UNL     1      -9.389   1.219  -8.456  1.00  0.00    -0.474 OA
ATOM     31  C   UNL     1      -7.890   0.263 -10.063  1.00  0.00     0.056 C 
BRANCH  29  32
ATOM     32  C   UNL     1     -10.840   0.254  -6.775  1.00  0.00     0.171 C 
BRANCH  32  33
ATOM     33  N   UNL     1     -11.099   1.071  -5.600  1.00  0.00    -0.342 N 
ATOM     34  C   UNL     1     -10.853   0.629  -4.322  1.00  0.00     0.246 CG0
ATOM     35  O   UNL     1     -10.422  -0.494  -4.072  1.00  0.00    -0.273 OA
ATOM     36  H   UNL     1     -11.510   1.994  -5.683  1.00  0.00     0.164 HD
ATOM     37  G   UNL     1     -11.138   1.666  -3.223  1.00  0.00     0.000 G0
ENDBRANCH  32  33
BRANCH  32  38
ATOM     38  C   UNL     1     -11.890   0.475  -7.896  1.00  0.00     0.017 C 
ATOM     39  C   UNL     1     -12.981  -0.601  -7.815  1.00  0.00     0.010 C 
BRANCH  38  40
ATOM     40  C   UNL     1     -12.493   1.898  -7.885  1.00  0.00     0.002 C 
ATOM     41  C   UNL     1     -13.592   2.102  -8.919  1.00  0.00     0.004 C 
ENDBRANCH  38  40
ENDBRANCH  32  38
ENDBRANCH  29  32
ENDBRANCH  23  26
ENDBRANCH   1  22
TORSDOF 4
ENDMDL
MODEL 23
REMARK VINA RESULT:    -6.259      2.575      6.478
REMARK INTER + INTRA:         -11.860
REMARK INTER:                 -11.254
REMARK INTRA:                  -0.606
REMARK UNBOUND:                -1.210
REMARK SMILES CC[C@H](C)[C@@H]1NC(=O)[C@H]2CSC(=N2)[C@@H]([C@@H](C)CC)NC(=O)c2csc(n2)CNC(=O)[C@H]2N=C1O[C@@H]2C
REMARK SMILES IDX 27 1 25 2 22 3 26 4 23 5 24 6 20 7 19 8 21 9 14 11 12 12
REMARK SMILES IDX 11 13 10 14 13 15 9 16 15 18 16 19 17 20 18 21 28 22 29 23
REMARK SMILES IDX 30 24 31 26 32 27 35 28 33 29 34 30 36 31 5 32 6 33 7 34
REMARK SMILES IDX 8 35 3 38 4 39 2 40 1 41
REMARK H PARENT 19 10 28 25 6 36
REMARK Flexibility Score:   91.900
ROOT
ATOM      1  C   UNL     1      -6.834   1.535   1.101  1.00  0.00     0.183 C 
ENDROOT
BRANCH   1   2
ATOM      2  C   UNL     1      -7.852   1.141   0.069  1.00  0.00     0.113 A 
ATOM      3  C   UNL     1      -9.146   1.275  -1.740  1.00  0.00     0.139 A 
ATOM      4  N   UNL     1      -8.065   1.820  -1.043  1.00  0.00    -0.234 NA
ATOM      5  C   UNL     1      -9.692   0.148  -1.158  1.00  0.00     0.101 A 
ATOM      6  S   UNL     1      -8.863  -0.227   0.297  1.00  0.00    -0.125 S 
BRANCH   3   7
ATOM      7  C   UNL     1      -9.633   1.923  -2.960  1.00  0.00     0.271 C 
ATOM      8  N   UNL     1      -9.437   1.133  -4.066  1.00  0.00    -0.341 N 
ATOM      9  O   UNL     1     -10.122   3.046  -2.985  1.00  0.00    -0.267 OA
ATOM     10  H   UNL     1      -9.039   0.212  -3.884  1.00  0.00     0.164 HD
BRANCH   8  11
ATOM     11  C   UNL     1      -9.644   1.576  -5.434  1.00  0.00     0.140 C 
BRANCH  11  12
ATOM     12  C   UNL     1      -8.296   2.048  -5.985  1.00  0.00     0.091 C 
ATOM     13  S   UNL     1      -7.789   1.599  -7.597  1.00  0.00    -0.106 SA
ATOM     14  C   UNL     1      -6.437   2.792  -7.518  1.00  0.00     0.113 C 
ATOM     15  N   UNL     1      -7.458   2.725  -5.264  1.00  0.00    -0.267 NA
ATOM     16  C   UNL     1      -6.190   2.951  -6.026  1.00  0.00     0.205 CG0
ATOM     17  G   UNL     1      -5.087   1.991  -5.552  1.00  0.00     0.000 G0
ENDBRANCH  11  12
BRANCH  11  18
ATOM     18  C   UNL     1     -10.433   0.569  -6.311  1.00  0.00     0.015 C 
ATOM     19  C   UNL     1     -10.528  -0.791  -5.607  1.00  0.00     0.010 C 
BRANCH  18  20
ATOM     20  C   UNL     1     -11.818   1.063  -6.773  1.00  0.00     0.002 C 
ATOM     21  C   UNL     1     -12.657  -0.034  -7.418  1.00  0.00     0.004 C 
ENDBRANCH  18  20
ENDBRANCH  11  18
ENDBRANCH   8  11
ENDBRANCH   3   7
ENDBRANCH   1   2
BRANCH   1  22
ATOM     22  N   UNL     1      -5.527   1.275   0.541  1.00  0.00    -0.348 N 
ATOM     23  C   UNL     1      -4.734   2.216  -0.056  1.00  0.00     0.249 C 
ATOM     24  O   UNL     1      -5.020   3.407  -0.100  1.00  0.00    -0.272 OA
ATOM     25  H   UNL     1      -5.198   0.311   0.505  1.00  0.00     0.163 HD
BRANCH  23  26
ATOM     26  C   UNL     1      -3.425   1.630  -0.606  1.00  0.00     0.238 C 
ATOM     27  N   UNL     1      -3.666   1.087  -1.972  1.00  0.00    -0.236 NA
ATOM     28  C   UNL     1      -2.352   2.692  -0.774  1.00  0.00     0.206 C 
ATOM     29  C   UNL     1      -3.007   1.905  -2.738  1.00  0.00     0.208 C 
ATOM     30  O   UNL     1      -2.317   2.930  -2.180  1.00  0.00    -0.474 OA
ATOM     31  C   UNL     1      -0.977   2.210  -0.329  1.00  0.00     0.056 C 
BRANCH  29  32
ATOM     32  C   UNL     1      -2.957   1.875  -4.263  1.00  0.00     0.171 C 
BRANCH  32  33
ATOM     33  N   UNL     1      -4.067   2.622  -4.833  1.00  0.00    -0.342 N 
ATOM     34  C   UNL     1      -5.074   2.021  -5.550  1.00  0.00     0.246 CG0
ATOM     35  O   UNL     1      -5.102   0.816  -5.786  1.00  0.00    -0.273 OA
ATOM     36  H   UNL     1      -4.117   3.632  -4.751  1.00  0.00     0.164 HD
ATOM     37  G   UNL     1      -6.184   2.979  -6.015  1.00  0.00     0.000 G0
ENDBRANCH  32  33
BRANCH  32  38
ATOM     38  C   UNL     1      -1.580   2.376  -4.771  1.00  0.00     0.017 C 
ATOM     39  C   UNL     1      -1.451   2.124  -6.279  1.00  0.00     0.010 C 
BRANCH  38  40
ATOM     40  C   UNL     1      -1.308   3.856  -4.417  1.00  0.00     0.002 C 
ATOM     41  C   UNL     1       0.126   4.125  -3.981  1.00  0.00     0.004 C 
ENDBRANCH  38  40
ENDBRANCH  32  38
ENDBRANCH  29  32
ENDBRANCH  23  26
ENDBRANCH   1  22
TORSDOF 4
ENDMDL
MODEL 24
REMARK VINA RESULT:    -6.154      5.682      9.830
REMARK INTER + INTRA:         -11.682
REMARK INTER:                 -10.076
REMARK INTRA:                  -1.607
REMARK UNBOUND:                -1.210
REMARK SMILES CC[C@H](C)[C@@H]1NC(=O)[C@H]2CSC(=N2)[C@@H]([C@@H](C)CC)NC(=O)c2csc(n2)CNC(=O)[C@H]2N=C1O[C@@H]2C
REMARK SMILES IDX 27 1 25 2 22 3 26 4 23 5 24 6 20 7 19 8 21 9 14 11 12 12
REMARK SMILES IDX 11 13 10 14 13 15 9 16 15 18 16 19 17 20 18 21 28 22 29 23
REMARK SMILES IDX 30 24 31 26 32 27 35 28 33 29 34 30 36 31 5 32 6 33 7 34
REMARK SMILES IDX 8 35 3 38 4 39 2 40 1 41
REMARK H PARENT 19 10 28 25 6 36
REMARK Flexibility Score:   91.900
ROOT
ATOM      1  C   UNL     1     -13.922  -0.637   0.051  1.00  0.00     0.183 C 
ENDROOT
BRANCH   1   2
ATOM      2  C   UNL     1     -15.126   0.189  -0.301  1.00  0.00     0.113 A 
ATOM      3  C   UNL     1     -16.711   1.138  -1.548  1.00  0.00     0.139 A 
ATOM      4  N   UNL     1     -15.689   0.188  -1.496  1.00  0.00    -0.234 NA
ATOM      5  C   UNL     1     -16.936   1.802  -0.358  1.00  0.00     0.101 A 
ATOM      6  S   UNL     1     -15.839   1.252   0.843  1.00  0.00    -0.125 S 
BRANCH   3   7
ATOM      7  C   UNL     1     -17.417   1.387  -2.806  1.00  0.00     0.271 C 
ATOM      8  N   UNL     1     -16.993   0.540  -3.800  1.00  0.00    -0.341 N 
ATOM      9  O   UNL     1     -18.254   2.268  -2.954  1.00  0.00    -0.267 OA
ATOM     10  H   UNL     1     -16.305  -0.159  -3.520  1.00  0.00     0.164 HD
BRANCH   8  11
ATOM     11  C   UNL     1     -17.371   0.666  -5.198  1.00  0.00     0.140 C 
BRANCH  11  12
ATOM     12  C   UNL     1     -16.103   0.510  -6.043  1.00  0.00     0.091 C 
ATOM     13  S   UNL     1     -16.032  -0.675  -7.326  1.00  0.00    -0.106 SA
ATOM     14  C   UNL     1     -14.499   0.059  -7.936  1.00  0.00     0.113 C 
ATOM     15  N   UNL     1     -15.026   1.188  -5.797  1.00  0.00    -0.267 NA
ATOM     16  C   UNL     1     -13.924   0.750  -6.710  1.00  0.00     0.205 CG0
ATOM     17  G   UNL     1     -12.938  -0.175  -5.977  1.00  0.00     0.000 G0
ENDBRANCH  11  12
BRANCH  11  18
ATOM     18  C   UNL     1     -18.583  -0.210  -5.606  1.00  0.00     0.015 C 
ATOM     19  C   UNL     1     -18.677  -1.447  -4.702  1.00  0.00     0.010 C 
BRANCH  18  20
ATOM     20  C   UNL     1     -19.928   0.541  -5.674  1.00  0.00     0.002 C 
ATOM     21  C   UNL     1     -20.804   0.307  -4.449  1.00  0.00     0.004 C 
ENDBRANCH  18  20
ENDBRANCH  11  18
ENDBRANCH   8  11
ENDBRANCH   3   7
ENDBRANCH   1   2
BRANCH   1  22
ATOM     22  N   UNL     1     -12.785  -0.058  -0.629  1.00  0.00    -0.348 N 
ATOM     23  C   UNL     1     -11.608   0.287  -0.024  1.00  0.00     0.249 C 
ATOM     24  O   UNL     1     -11.366   0.058   1.156  1.00  0.00    -0.272 OA
ATOM     25  H   UNL     1     -12.886   0.194  -1.611  1.00  0.00     0.163 HD
BRANCH  23  26
ATOM     26  C   UNL     1     -10.606   0.932  -0.994  1.00  0.00     0.238 C 
ATOM     27  N   UNL     1     -10.275  -0.038  -2.074  1.00  0.00    -0.236 NA
ATOM     28  C   UNL     1     -11.196   2.141  -1.699  1.00  0.00     0.206 C 
ATOM     29  C   UNL     1     -10.829   0.487  -3.126  1.00  0.00     0.208 C 
ATOM     30  O   UNL     1     -11.486   1.667  -3.014  1.00  0.00    -0.474 OA
ATOM     31  C   UNL     1     -10.208   3.295  -1.806  1.00  0.00     0.056 C 
BRANCH  29  32
ATOM     32  C   UNL     1     -10.873  -0.122  -4.525  1.00  0.00     0.171 C 
BRANCH  32  33
ATOM     33  N   UNL     1     -11.887   0.526  -5.342  1.00  0.00    -0.342 N 
ATOM     34  C   UNL     1     -12.914  -0.168  -5.937  1.00  0.00     0.246 CG0
ATOM     35  O   UNL     1     -13.039  -1.386  -5.847  1.00  0.00    -0.273 OA
ATOM     36  H   UNL     1     -11.849   1.521  -5.533  1.00  0.00     0.164 HD
ATOM     37  G   UNL     1     -13.912   0.710  -6.709  1.00  0.00     0.000 G0
ENDBRANCH  32  33
BRANCH  32  38
ATOM     38  C   UNL     1      -9.467  -0.081  -5.179  1.00  0.00     0.017 C 
ATOM     39  C   UNL     1      -9.583  -0.305  -6.692  1.00  0.00     0.010 C 
BRANCH  38  40
ATOM     40  C   UNL     1      -8.689   1.215  -4.853  1.00  0.00     0.002 C 
ATOM     41  C   UNL     1      -7.488   1.449  -5.761  1.00  0.00     0.004 C 
ENDBRANCH  38  40
ENDBRANCH  32  38
ENDBRANCH  29  32
ENDBRANCH  23  26
ENDBRANCH   1  22
TORSDOF 4
ENDMDL
MODEL 25
REMARK VINA RESULT:    -6.134      5.781     10.015
REMARK INTER + INTRA:         -11.648
REMARK INTER:                 -10.473
REMARK INTRA:                  -1.175
REMARK UNBOUND:                -1.210
REMARK SMILES CC[C@H](C)[C@@H]1NC(=O)[C@H]2CSC(=N2)[C@@H]([C@@H](C)CC)NC(=O)c2csc(n2)CNC(=O)[C@H]2N=C1O[C@@H]2C
REMARK SMILES IDX 27 1 25 2 22 3 26 4 23 5 24 6 20 7 19 8 21 9 14 11 12 12
REMARK SMILES IDX 11 13 10 14 13 15 9 16 15 18 16 19 17 20 18 21 28 22 29 23
REMARK SMILES IDX 30 24 31 26 32 27 35 28 33 29 34 30 36 31 5 32 6 33 7 34
REMARK SMILES IDX 8 35 3 38 4 39 2 40 1 41
REMARK H PARENT 19 10 28 25 6 36
REMARK Flexibility Score:   91.900
ROOT
ATOM      1  C   UNL     1     -13.324   0.008  -0.664  1.00  0.00     0.183 C 
ENDROOT
BRANCH   1   2
ATOM      2  C   UNL     1     -14.505  -0.398  -1.499  1.00  0.00     0.113 A 
ATOM      3  C   UNL     1     -16.171  -0.239  -2.971  1.00  0.00     0.139 A 
ATOM      4  N   UNL     1     -15.017   0.355  -2.455  1.00  0.00    -0.234 NA
ATOM      5  C   UNL     1     -16.473  -1.471  -2.424  1.00  0.00     0.101 A 
ATOM      6  S   UNL     1     -15.314  -1.887  -1.228  1.00  0.00    -0.125 S 
BRANCH   3   7
ATOM      7  C   UNL     1     -16.970   0.463  -3.977  1.00  0.00     0.271 C 
ATOM      8  N   UNL     1     -16.964  -0.199  -5.180  1.00  0.00    -0.341 N 
ATOM      9  O   UNL     1     -17.541   1.527  -3.772  1.00  0.00    -0.267 OA
ATOM     10  H   UNL     1     -16.463  -1.086  -5.192  1.00  0.00     0.164 HD
BRANCH   8  11
ATOM     11  C   UNL     1     -17.508   0.343  -6.414  1.00  0.00     0.140 C 
BRANCH  11  12
ATOM     12  C   UNL     1     -16.338   0.854  -7.260  1.00  0.00     0.091 C 
ATOM     13  S   UNL     1     -16.232   0.459  -8.959  1.00  0.00    -0.106 SA
ATOM     14  C   UNL     1     -14.914   1.674  -9.173  1.00  0.00     0.113 C 
ATOM     15  N   UNL     1     -15.358   1.526  -6.742  1.00  0.00    -0.267 NA
ATOM     16  C   UNL     1     -14.315   1.796  -7.780  1.00  0.00     0.205 CG0
ATOM     17  G   UNL     1     -13.119   0.842  -7.617  1.00  0.00     0.000 G0
ENDBRANCH  11  12
BRANCH  11  18
ATOM     18  C   UNL     1     -18.514  -0.597  -7.126  1.00  0.00     0.015 C 
ATOM     19  C   UNL     1     -18.560  -1.961  -6.425  1.00  0.00     0.010 C 
BRANCH  18  20
ATOM     20  C   UNL     1     -19.928  -0.010  -7.308  1.00  0.00     0.002 C 
ATOM     21  C   UNL     1     -21.030  -0.952  -6.836  1.00  0.00     0.004 C 
ENDBRANCH  18  20
ENDBRANCH  11  18
ENDBRANCH   8  11
ENDBRANCH   3   7
ENDBRANCH   1   2
BRANCH   1  22
ATOM     22  N   UNL     1     -12.146  -0.111  -1.493  1.00  0.00    -0.348 N 
ATOM     23  C   UNL     1     -11.513   0.939  -2.103  1.00  0.00     0.249 C 
ATOM     24  O   UNL     1     -11.838   2.109  -1.935  1.00  0.00    -0.272 OA
ATOM     25  H   UNL     1     -11.803  -1.044  -1.717  1.00  0.00     0.163 HD
BRANCH  23  26
ATOM     26  C   UNL     1     -10.322   0.496  -2.965  1.00  0.00     0.238 C 
ATOM     27  N   UNL     1     -10.828  -0.135  -4.215  1.00  0.00    -0.236 NA
ATOM     28  C   UNL     1      -9.477   1.675  -3.417  1.00  0.00     0.206 C 
ATOM     29  C   UNL     1     -10.500   0.722  -5.135  1.00  0.00     0.208 C 
ATOM     30  O   UNL     1      -9.834   1.851  -4.788  1.00  0.00    -0.474 OA
ATOM     31  C   UNL     1      -7.984   1.390  -3.336  1.00  0.00     0.056 C 
BRANCH  29  32
ATOM     32  C   UNL     1     -10.837   0.629  -6.621  1.00  0.00     0.171 C 
BRANCH  32  33
ATOM     33  N   UNL     1     -12.041   1.385  -6.929  1.00  0.00    -0.342 N 
ATOM     34  C   UNL     1     -13.110   0.837  -7.596  1.00  0.00     0.246 CG0
ATOM     35  O   UNL     1     -13.123  -0.322  -8.005  1.00  0.00    -0.273 OA
ATOM     36  H   UNL     1     -12.118   2.368  -6.691  1.00  0.00     0.164 HD
ATOM     37  G   UNL     1     -14.307   1.786  -7.770  1.00  0.00     0.000 G0
ENDBRANCH  32  33
BRANCH  32  38
ATOM     38  C   UNL     1      -9.623   1.067  -7.482  1.00  0.00     0.017 C 
ATOM     39  C   UNL     1      -8.331   0.468  -6.913  1.00  0.00     0.010 C 
BRANCH  38  40
ATOM     40  C   UNL     1      -9.795   0.730  -8.981  1.00  0.00     0.002 C 
ATOM     41  C   UNL     1      -8.603   1.139  -9.837  1.00  0.00     0.004 C 
ENDBRANCH  38  40
ENDBRANCH  32  38
ENDBRANCH  29  32
ENDBRANCH  23  26
ENDBRANCH   1  22
TORSDOF 4
ENDMDL
MODEL 26
REMARK VINA RESULT:    -6.107      2.511      5.693
REMARK INTER + INTRA:         -11.602
REMARK INTER:                 -10.265
REMARK INTRA:                  -1.337
REMARK UNBOUND:                -1.210
REMARK SMILES CC[C@H](C)[C@@H]1NC(=O)[C@H]2CSC(=N2)[C@@H]([C@@H](C)CC)NC(=O)c2csc(n2)CNC(=O)[C@H]2N=C1O[C@@H]2C
REMARK SMILES IDX 27 1 25 2 22 3 26 4 23 5 24 6 20 7 19 8 21 9 14 11 12 12
REMARK SMILES IDX 11 13 10 14 13 15 9 16 15 18 16 19 17 20 18 21 28 22 29 23
REMARK SMILES IDX 30 24 31 26 32 27 35 28 33 29 34 30 36 31 5 32 6 33 7 34
REMARK SMILES IDX 8 35 3 38 4 39 2 40 1 41
REMARK H PARENT 19 10 28 25 6 36
REMARK Flexibility Score:   91.900
ROOT
ATOM      1  C   UNL     1      -5.049   1.161  -0.670  1.00  0.00     0.183 C 
ENDROOT
BRANCH   1   2
ATOM      2  C   UNL     1      -4.652   1.721  -2.006  1.00  0.00     0.113 A 
ATOM      3  C   UNL     1      -4.487   1.916  -4.220  1.00  0.00     0.139 A 
ATOM      4  N   UNL     1      -5.129   1.280  -3.155  1.00  0.00    -0.234 NA
ATOM      5  C   UNL     1      -3.570   2.877  -3.842  1.00  0.00     0.101 A 
ATOM      6  S   UNL     1      -3.485   2.974  -2.131  1.00  0.00    -0.125 S 
BRANCH   3   7
ATOM      7  C   UNL     1      -4.782   1.517  -5.598  1.00  0.00     0.271 C 
ATOM      8  N   UNL     1      -6.116   1.660  -5.891  1.00  0.00    -0.341 N 
ATOM      9  O   UNL     1      -3.942   1.079  -6.373  1.00  0.00    -0.267 OA
ATOM     10  H   UNL     1      -6.690   2.060  -5.150  1.00  0.00     0.164 HD
BRANCH   8  11
ATOM     11  C   UNL     1      -6.741   1.173  -7.110  1.00  0.00     0.140 C 
BRANCH  11  12
ATOM     12  C   UNL     1      -8.156   0.704  -6.758  1.00  0.00     0.091 C 
ATOM     13  S   UNL     1      -9.518   1.169  -7.750  1.00  0.00    -0.106 SA
ATOM     14  C   UNL     1     -10.565  -0.028  -6.895  1.00  0.00     0.113 C 
ATOM     15  N   UNL     1      -8.405   0.018  -5.687  1.00  0.00    -0.267 NA
ATOM     16  C   UNL     1      -9.879  -0.203  -5.550  1.00  0.00     0.205 CG0
ATOM     17  G   UNL     1     -10.481   0.749  -4.504  1.00  0.00     0.000 G0
ENDBRANCH  11  12
BRANCH  11  18
ATOM     18  C   UNL     1      -6.616   2.143  -8.313  1.00  0.00     0.015 C 
ATOM     19  C   UNL     1      -5.964   3.460  -7.873  1.00  0.00     0.010 C 
BRANCH  18  20
ATOM     20  C   UNL     1      -5.909   1.549  -9.549  1.00  0.00     0.002 C 
ATOM     21  C   UNL     1      -6.124   0.047  -9.694  1.00  0.00     0.004 C 
ENDBRANCH  18  20
ENDBRANCH  11  18
ENDBRANCH   8  11
ENDBRANCH   3   7
ENDBRANCH   1   2
BRANCH   1  22
ATOM     22  N   UNL     1      -6.387   1.629  -0.386  1.00  0.00    -0.348 N 
ATOM     23  C   UNL     1      -7.464   0.818  -0.152  1.00  0.00     0.249 C 
ATOM     24  O   UNL     1      -7.382  -0.403  -0.076  1.00  0.00    -0.272 OA
ATOM     25  H   UNL     1      -6.573   2.630  -0.445  1.00  0.00     0.163 HD
BRANCH  23  26
ATOM     26  C   UNL     1      -8.766   1.604   0.065  1.00  0.00     0.238 C 
ATOM     27  N   UNL     1      -9.450   1.792  -1.245  1.00  0.00    -0.236 NA
ATOM     28  C   UNL     1      -9.752   0.842   0.933  1.00  0.00     0.206 C 
ATOM     29  C   UNL     1     -10.505   1.039  -1.140  1.00  0.00     0.208 C 
ATOM     30  O   UNL     1     -10.723   0.354   0.009  1.00  0.00    -0.474 OA
ATOM     31  C   UNL     1     -10.453   1.738   1.946  1.00  0.00     0.056 C 
BRANCH  29  32
ATOM     32  C   UNL     1     -11.546   0.785  -2.227  1.00  0.00     0.171 C 
BRANCH  32  33
ATOM     33  N   UNL     1     -10.959   0.078  -3.354  1.00  0.00    -0.342 N 
ATOM     34  C   UNL     1     -10.486   0.725  -4.470  1.00  0.00     0.246 CG0
ATOM     35  O   UNL     1     -10.546   1.943  -4.614  1.00  0.00    -0.273 OA
ATOM     36  H   UNL     1     -10.912  -0.936  -3.369  1.00  0.00     0.164 HD
ATOM     37  G   UNL     1      -9.851  -0.200  -5.521  1.00  0.00     0.000 G0
ENDBRANCH  32  33
BRANCH  32  38
ATOM     38  C   UNL     1     -12.777   0.048  -1.637  1.00  0.00     0.017 C 
ATOM     39  C   UNL     1     -13.824   1.064  -1.165  1.00  0.00     0.010 C 
BRANCH  38  40
ATOM     40  C   UNL     1     -13.386  -0.984  -2.614  1.00  0.00     0.002 C 
ATOM     41  C   UNL     1     -14.886  -1.179  -2.437  1.00  0.00     0.004 C 
ENDBRANCH  38  40
ENDBRANCH  32  38
ENDBRANCH  29  32
ENDBRANCH  23  26
ENDBRANCH   1  22
TORSDOF 4
ENDMDL
MODEL 27
REMARK VINA RESULT:    -6.103      7.405     10.020
REMARK INTER + INTRA:         -11.595
REMARK INTER:                 -10.392
REMARK INTRA:                  -1.203
REMARK UNBOUND:                -1.210
REMARK SMILES CC[C@H](C)[C@@H]1NC(=O)[C@H]2CSC(=N2)[C@@H]([C@@H](C)CC)NC(=O)c2csc(n2)CNC(=O)[C@H]2N=C1O[C@@H]2C
REMARK SMILES IDX 27 1 25 2 22 3 26 4 23 5 24 6 20 7 19 8 21 9 14 11 12 12
REMARK SMILES IDX 11 13 10 14 13 15 9 16 15 18 16 19 17 20 18 21 28 22 29 23
REMARK SMILES IDX 30 24 31 26 32 27 35 28 33 29 34 30 36 31 5 32 6 33 7 34
REMARK SMILES IDX 8 35 3 38 4 39 2 40 1 41
REMARK H PARENT 19 10 28 25 6 36
REMARK Flexibility Score:   91.900
ROOT
ATOM      1  C   UNL     1     -20.999   1.262  -4.661  1.00  0.00     0.183 C 
ENDROOT
BRANCH   1   2
ATOM      2  C   UNL     1     -19.807   0.709  -5.389  1.00  0.00     0.113 A 
ATOM      3  C   UNL     1     -17.721   0.556  -6.160  1.00  0.00     0.139 A 
ATOM      4  N   UNL     1     -18.588   1.206  -5.279  1.00  0.00    -0.234 NA
ATOM      5  C   UNL     1     -18.302  -0.469  -6.881  1.00  0.00     0.101 A 
ATOM      6  S   UNL     1     -19.963  -0.611  -6.475  1.00  0.00    -0.125 S 
BRANCH   3   7
ATOM      7  C   UNL     1     -16.333   1.006  -6.287  1.00  0.00     0.271 C 
ATOM      8  N   UNL     1     -15.466   0.158  -5.644  1.00  0.00    -0.341 N 
ATOM      9  O   UNL     1     -16.001   2.031  -6.868  1.00  0.00    -0.267 OA
ATOM     10  H   UNL     1     -15.889  -0.669  -5.224  1.00  0.00     0.164 HD
BRANCH   8  11
ATOM     11  C   UNL     1     -14.054   0.436  -5.436  1.00  0.00     0.140 C 
BRANCH  11  12
ATOM     12  C   UNL     1     -13.792   0.435  -3.928  1.00  0.00     0.091 C 
ATOM     13  S   UNL     1     -13.067  -0.955  -3.154  1.00  0.00    -0.106 SA
ATOM     14  C   UNL     1     -12.815   0.001  -1.643  1.00  0.00     0.113 C 
ATOM     15  N   UNL     1     -14.159   1.417  -3.166  1.00  0.00    -0.267 NA
ATOM     16  C   UNL     1     -13.871   1.093  -1.733  1.00  0.00     0.205 CG0
ATOM     17  G   UNL     1     -15.153   0.670  -0.998  1.00  0.00     0.000 G0
ENDBRANCH  11  12
BRANCH  11  18
ATOM     18  C   UNL     1     -13.107  -0.434  -6.301  1.00  0.00     0.015 C 
ATOM     19  C   UNL     1     -13.472  -0.310  -7.786  1.00  0.00     0.010 C 
BRANCH  18  20
ATOM     20  C   UNL     1     -11.604  -0.179  -6.067  1.00  0.00     0.002 C 
ATOM     21  C   UNL     1     -11.123   1.137  -6.668  1.00  0.00     0.004 C 
ENDBRANCH  18  20
ENDBRANCH  11  18
ENDBRANCH   8  11
ENDBRANCH   3   7
ENDBRANCH   1   2
BRANCH   1  22
ATOM     22  N   UNL     1     -20.507   1.978  -3.506  1.00  0.00    -0.348 N 
ATOM     23  C   UNL     1     -20.617   1.542  -2.213  1.00  0.00     0.249 C 
ATOM     24  O   UNL     1     -21.076   0.446  -1.910  1.00  0.00    -0.272 OA
ATOM     25  H   UNL     1     -20.125   2.913  -3.642  1.00  0.00     0.163 HD
BRANCH  23  26
ATOM     26  C   UNL     1     -20.051   2.544  -1.196  1.00  0.00     0.238 C 
ATOM     27  N   UNL     1     -19.379   1.800  -0.095  1.00  0.00    -0.236 NA
ATOM     28  C   UNL     1     -18.975   3.427  -1.806  1.00  0.00     0.206 C 
ATOM     29  C   UNL     1     -18.121   2.073  -0.275  1.00  0.00     0.208 C 
ATOM     30  O   UNL     1     -17.756   2.893  -1.292  1.00  0.00    -0.474 OA
ATOM     31  C   UNL     1     -19.093   4.880  -1.367  1.00  0.00     0.056 C 
BRANCH  29  32
ATOM     32  C   UNL     1     -16.950   1.515   0.528  1.00  0.00     0.171 C 
BRANCH  32  33
ATOM     33  N   UNL     1     -15.699   1.674  -0.198  1.00  0.00    -0.342 N 
ATOM     34  C   UNL     1     -15.173   0.683  -0.992  1.00  0.00     0.246 CG0
ATOM     35  O   UNL     1     -15.701  -0.417  -1.129  1.00  0.00    -0.273 OA
ATOM     36  H   UNL     1     -15.147   2.520  -0.112  1.00  0.00     0.164 HD
ATOM     37  G   UNL     1     -13.875   1.072  -1.718  1.00  0.00     0.000 G0
ENDBRANCH  32  33
BRANCH  32  38
ATOM     38  C   UNL     1     -16.904   2.158   1.939  1.00  0.00     0.017 C 
ATOM     39  C   UNL     1     -15.451   2.282   2.415  1.00  0.00     0.010 C 
BRANCH  38  40
ATOM     40  C   UNL     1     -17.643   3.514   2.008  1.00  0.00     0.002 C 
ATOM     41  C   UNL     1     -17.055   4.478   3.030  1.00  0.00     0.004 C 
ENDBRANCH  38  40
ENDBRANCH  32  38
ENDBRANCH  29  32
ENDBRANCH  23  26
ENDBRANCH   1  22
TORSDOF 4
ENDMDL
MODEL 28
REMARK VINA RESULT:    -5.992      6.617     10.962
REMARK INTER + INTRA:         -11.406
REMARK INTER:                  -9.879
REMARK INTRA:                  -1.528
REMARK UNBOUND:                -1.210
REMARK SMILES CC[C@H](C)[C@@H]1NC(=O)[C@H]2CSC(=N2)[C@@H]([C@@H](C)CC)NC(=O)c2csc(n2)CNC(=O)[C@H]2N=C1O[C@@H]2C
REMARK SMILES IDX 27 1 25 2 22 3 26 4 23 5 24 6 20 7 19 8 21 9 14 11 12 12
REMARK SMILES IDX 11 13 10 14 13 15 9 16 15 18 16 19 17 20 18 21 28 22 29 23
REMARK SMILES IDX 30 24 31 26 32 27 35 28 33 29 34 30 36 31 5 32 6 33 7 34
REMARK SMILES IDX 8 35 3 38 4 39 2 40 1 41
REMARK H PARENT 19 10 28 25 6 36
REMARK Flexibility Score:   91.900
ROOT
ATOM      1  C   UNL     1     -14.701   0.775   2.187  1.00  0.00     0.183 C 
ENDROOT
BRANCH   1   2
ATOM      2  C   UNL     1     -15.865   1.588   1.697  1.00  0.00     0.113 A 
ATOM      3  C   UNL     1     -17.270   2.570   0.272  1.00  0.00     0.139 A 
ATOM      4  N   UNL     1     -16.233   1.648   0.430  1.00  0.00    -0.234 NA
ATOM      5  C   UNL     1     -17.704   3.148   1.449  1.00  0.00     0.101 A 
ATOM      6  S   UNL     1     -16.790   2.553   2.773  1.00  0.00    -0.125 S 
BRANCH   3   7
ATOM      7  C   UNL     1     -17.777   2.881  -1.066  1.00  0.00     0.271 C 
ATOM      8  N   UNL     1     -18.254   1.759  -1.699  1.00  0.00    -0.341 N 
ATOM      9  O   UNL     1     -17.744   3.999  -1.563  1.00  0.00    -0.267 OA
ATOM     10  H   UNL     1     -18.238   0.902  -1.148  1.00  0.00     0.164 HD
BRANCH   8  11
ATOM     11  C   UNL     1     -18.648   1.716  -3.098  1.00  0.00     0.140 C 
BRANCH  11  12
ATOM     12  C   UNL     1     -17.497   1.090  -3.890  1.00  0.00     0.091 C 
ATOM     13  S   UNL     1     -17.717  -0.432  -4.723  1.00  0.00    -0.106 SA
ATOM     14  C   UNL     1     -16.152  -0.198  -5.591  1.00  0.00     0.113 C 
ATOM     15  N   UNL     1     -16.313   1.616  -3.914  1.00  0.00    -0.267 NA
ATOM     16  C   UNL     1     -15.373   0.733  -4.675  1.00  0.00     0.205 CG0
ATOM     17  G   UNL     1     -14.478  -0.069  -3.717  1.00  0.00     0.000 G0
ENDBRANCH  11  12
BRANCH  11  18
ATOM     18  C   UNL     1     -20.057   1.115  -3.337  1.00  0.00     0.015 C 
ATOM     19  C   UNL     1     -20.929   1.282  -2.086  1.00  0.00     0.010 C 
BRANCH  18  20
ATOM     20  C   UNL     1     -20.775   1.638  -4.598  1.00  0.00     0.002 C 
ATOM     21  C   UNL     1     -21.624   2.875  -4.330  1.00  0.00     0.004 C 
ENDBRANCH  18  20
ENDBRANCH  11  18
ENDBRANCH   8  11
ENDBRANCH   3   7
ENDBRANCH   1   2
BRANCH   1  22
ATOM     22  N   UNL     1     -13.588   1.035   1.301  1.00  0.00    -0.348 N 
ATOM     23  C   UNL     1     -12.448   1.703   1.656  1.00  0.00     0.249 C 
ATOM     24  O   UNL     1     -12.219   2.080   2.800  1.00  0.00    -0.272 OA
ATOM     25  H   UNL     1     -13.683   0.782   0.318  1.00  0.00     0.163 HD
BRANCH  23  26
ATOM     26  C   UNL     1     -11.469   1.873   0.485  1.00  0.00     0.238 C 
ATOM     27  N   UNL     1     -11.401   0.602  -0.288  1.00  0.00    -0.236 NA
ATOM     28  C   UNL     1     -11.941   2.926  -0.504  1.00  0.00     0.206 C 
ATOM     29  C   UNL     1     -11.978   0.906  -1.412  1.00  0.00     0.208 C 
ATOM     30  O   UNL     1     -12.435   2.167  -1.607  1.00  0.00    -0.474 OA
ATOM     31  C   UNL     1     -10.808   3.817  -0.995  1.00  0.00     0.056 C 
BRANCH  29  32
ATOM     32  C   UNL     1     -12.258  -0.046  -2.571  1.00  0.00     0.171 C 
BRANCH  32  33
ATOM     33  N   UNL     1     -13.239   0.521  -3.483  1.00  0.00    -0.342 N 
ATOM     34  C   UNL     1     -14.462  -0.063  -3.712  1.00  0.00     0.246 CG0
ATOM     35  O   UNL     1     -14.810  -1.117  -3.186  1.00  0.00    -0.273 OA
ATOM     36  H   UNL     1     -13.036   1.359  -4.017  1.00  0.00     0.164 HD
ATOM     37  G   UNL     1     -15.376   0.725  -4.665  1.00  0.00     0.000 G0
ENDBRANCH  32  33
BRANCH  32  38
ATOM     38  C   UNL     1     -10.937  -0.435  -3.286  1.00  0.00     0.017 C 
ATOM     39  C   UNL     1     -11.039  -1.861  -3.841  1.00  0.00     0.010 C 
BRANCH  38  40
ATOM     40  C   UNL     1     -10.525   0.574  -4.382  1.00  0.00     0.002 C 
ATOM     41  C   UNL     1      -9.658   1.715  -3.864  1.00  0.00     0.004 C 
ENDBRANCH  38  40
ENDBRANCH  32  38
ENDBRANCH  29  32
ENDBRANCH  23  26
ENDBRANCH   1  22
TORSDOF 4
ENDMDL
MODEL 29
REMARK VINA RESULT:    -5.905      8.221     12.011
REMARK INTER + INTRA:         -11.258
REMARK INTER:                 -10.243
REMARK INTRA:                  -1.015
REMARK UNBOUND:                -1.210
REMARK SMILES CC[C@H](C)[C@@H]1NC(=O)[C@H]2CSC(=N2)[C@@H]([C@@H](C)CC)NC(=O)c2csc(n2)CNC(=O)[C@H]2N=C1O[C@@H]2C
REMARK SMILES IDX 27 1 25 2 22 3 26 4 23 5 24 6 20 7 19 8 21 9 14 11 12 12
REMARK SMILES IDX 11 13 10 14 13 15 9 16 15 18 16 19 17 20 18 21 28 22 29 23
REMARK SMILES IDX 30 24 31 26 32 27 35 28 33 29 34 30 36 31 5 32 6 33 7 34
REMARK SMILES IDX 8 35 3 38 4 39 2 40 1 41
REMARK H PARENT 19 10 28 25 6 36
REMARK Flexibility Score:   91.900
ROOT
ATOM      1  C   UNL     1     -12.664   0.459  -4.554  1.00  0.00     0.183 C 
ENDROOT
BRANCH   1   2
ATOM      2  C   UNL     1     -13.666   0.264  -5.656  1.00  0.00     0.113 A 
ATOM      3  C   UNL     1     -15.640   0.014  -6.659  1.00  0.00     0.139 A 
ATOM      4  N   UNL     1     -14.971   0.358  -5.482  1.00  0.00    -0.234 NA
ATOM      5  C   UNL     1     -14.811  -0.279  -7.724  1.00  0.00     0.101 A 
ATOM      6  S   UNL     1     -13.167  -0.148  -7.246  1.00  0.00    -0.125 S 
BRANCH   3   7
ATOM      7  C   UNL     1     -17.103  -0.052  -6.678  1.00  0.00     0.271 C 
ATOM      8  N   UNL     1     -17.573  -1.082  -5.901  1.00  0.00    -0.341 N 
ATOM      9  O   UNL     1     -17.810   0.702  -7.335  1.00  0.00    -0.267 OA
ATOM     10  H   UNL     1     -16.864  -1.610  -5.393  1.00  0.00     0.164 HD
BRANCH   8  11
ATOM     11  C   UNL     1     -18.961  -1.514  -5.869  1.00  0.00     0.140 C 
BRANCH  11  12
ATOM     12  C   UNL     1     -19.708  -0.619  -4.875  1.00  0.00     0.091 C 
ATOM     13  S   UNL     1     -20.614   0.766  -5.436  1.00  0.00    -0.106 SA
ATOM     14  C   UNL     1     -21.375   0.943  -3.808  1.00  0.00     0.113 C 
ATOM     15  N   UNL     1     -19.638  -0.807  -3.595  1.00  0.00    -0.267 NA
ATOM     16  C   UNL     1     -20.376   0.278  -2.875  1.00  0.00     0.205 CG0
ATOM     17  G   UNL     1     -19.400   1.315  -2.295  1.00  0.00     0.000 G0
ENDBRANCH  11  12
BRANCH  11  18
ATOM     18  C   UNL     1     -19.604  -1.674  -7.270  1.00  0.00     0.015 C 
ATOM     19  C   UNL     1     -18.729  -2.564  -8.162  1.00  0.00     0.010 C 
BRANCH  18  20
ATOM     20  C   UNL     1     -21.069  -2.157  -7.256  1.00  0.00     0.002 C 
ATOM     21  C   UNL     1     -21.395  -3.102  -8.407  1.00  0.00     0.004 C 
ENDBRANCH  18  20
ENDBRANCH  11  18
ENDBRANCH   8  11
ENDBRANCH   3   7
ENDBRANCH   1   2
BRANCH   1  22
ATOM     22  N   UNL     1     -13.344   0.211  -3.303  1.00  0.00    -0.348 N 
ATOM     23  C   UNL     1     -13.139   0.921  -2.151  1.00  0.00     0.249 C 
ATOM     24  O   UNL     1     -12.411   1.905  -2.088  1.00  0.00    -0.272 OA
ATOM     25  H   UNL     1     -13.958  -0.600  -3.237  1.00  0.00     0.163 HD
BRANCH  23  26
ATOM     26  C   UNL     1     -13.965   0.390  -0.970  1.00  0.00     0.238 C 
ATOM     27  N   UNL     1     -14.937   1.433  -0.541  1.00  0.00    -0.236 NA
ATOM     28  C   UNL     1     -14.806  -0.814  -1.359  1.00  0.00     0.206 C 
ATOM     29  C   UNL     1     -16.085   0.932  -0.888  1.00  0.00     0.208 C 
ATOM     30  O   UNL     1     -16.128  -0.290  -1.473  1.00  0.00    -0.474 OA
ATOM     31  C   UNL     1     -14.803  -1.899  -0.291  1.00  0.00     0.056 C 
BRANCH  29  32
ATOM     32  C   UNL     1     -17.446   1.610  -0.755  1.00  0.00     0.171 C 
BRANCH  32  33
ATOM     33  N   UNL     1     -18.489   0.806  -1.372  1.00  0.00    -0.342 N 
ATOM     34  C   UNL     1     -19.393   1.325  -2.267  1.00  0.00     0.246 CG0
ATOM     35  O   UNL     1     -19.407   2.509  -2.595  1.00  0.00    -0.273 OA
ATOM     36  H   UNL     1     -18.609  -0.172  -1.131  1.00  0.00     0.164 HD
ATOM     37  G   UNL     1     -20.377   0.297  -2.849  1.00  0.00     0.000 G0
ENDBRANCH  32  33
BRANCH  32  38
ATOM     38  C   UNL     1     -17.747   1.935   0.731  1.00  0.00     0.017 C 
ATOM     39  C   UNL     1     -17.491   3.422   1.007  1.00  0.00     0.010 C 
BRANCH  38  40
ATOM     40  C   UNL     1     -19.169   1.512   1.165  1.00  0.00     0.002 C 
ATOM     41  C   UNL     1     -19.458   1.767   2.639  1.00  0.00     0.004 C 
ENDBRANCH  38  40
ENDBRANCH  32  38
ENDBRANCH  29  32
ENDBRANCH  23  26
ENDBRANCH   1  22
TORSDOF 4
ENDMDL
MODEL 30
REMARK VINA RESULT:    -5.830      8.169     12.454
REMARK INTER + INTRA:         -11.130
REMARK INTER:                  -9.996
REMARK INTRA:                  -1.134
REMARK UNBOUND:                -1.210
REMARK SMILES CC[C@H](C)[C@@H]1NC(=O)[C@H]2CSC(=N2)[C@@H]([C@@H](C)CC)NC(=O)c2csc(n2)CNC(=O)[C@H]2N=C1O[C@@H]2C
REMARK SMILES IDX 27 1 25 2 22 3 26 4 23 5 24 6 20 7 19 8 21 9 14 11 12 12
REMARK SMILES IDX 11 13 10 14 13 15 9 16 15 18 16 19 17 20 18 21 28 22 29 23
REMARK SMILES IDX 30 24 31 26 32 27 35 28 33 29 34 30 36 31 5 32 6 33 7 34
REMARK SMILES IDX 8 35 3 38 4 39 2 40 1 41
REMARK H PARENT 19 10 28 25 6 36
REMARK Flexibility Score:   91.900
ROOT
ATOM      1  C   UNL     1     -16.404   1.354  -0.307  1.00  0.00     0.183 C 
ENDROOT
BRANCH   1   2
ATOM      2  C   UNL     1     -17.714   1.797  -0.890  1.00  0.00     0.113 A 
ATOM      3  C   UNL     1     -19.553   1.767  -2.150  1.00  0.00     0.139 A 
ATOM      4  N   UNL     1     -18.457   1.041  -1.678  1.00  0.00    -0.234 NA
ATOM      5  C   UNL     1     -19.643   3.053  -1.655  1.00  0.00     0.101 A 
ATOM      6  S   UNL     1     -18.327   3.375  -0.601  1.00  0.00    -0.125 S 
BRANCH   3   7
ATOM      7  C   UNL     1     -20.467   1.164  -3.122  1.00  0.00     0.271 C 
ATOM      8  N   UNL     1     -19.801   0.734  -4.244  1.00  0.00    -0.341 N 
ATOM      9  O   UNL     1     -21.679   1.088  -2.961  1.00  0.00    -0.267 OA
ATOM     10  H   UNL     1     -18.788   0.844  -4.224  1.00  0.00     0.164 HD
BRANCH   8  11
ATOM     11  C   UNL     1     -20.457   0.267  -5.454  1.00  0.00     0.140 C 
BRANCH  11  12
ATOM     12  C   UNL     1     -19.631   0.747  -6.651  1.00  0.00     0.091 C 
ATOM     13  S   UNL     1     -19.975   0.158  -8.261  1.00  0.00    -0.106 SA
ATOM     14  C   UNL     1     -18.896   1.421  -8.968  1.00  0.00     0.113 C 
ATOM     15  N   UNL     1     -18.614   1.538  -6.511  1.00  0.00    -0.267 NA
ATOM     16  C   UNL     1     -17.940   1.748  -7.831  1.00  0.00     0.205 CG0
ATOM     17  G   UNL     1     -16.661   0.901  -7.935  1.00  0.00     0.000 G0
ENDBRANCH  11  12
BRANCH  11  18
ATOM     18  C   UNL     1     -20.825  -1.239  -5.431  1.00  0.00     0.015 C 
ATOM     19  C   UNL     1     -22.081  -1.496  -6.274  1.00  0.00     0.010 C 
BRANCH  18  20
ATOM     20  C   UNL     1     -19.677  -2.189  -5.826  1.00  0.00     0.002 C 
ATOM     21  C   UNL     1     -18.703  -2.454  -4.683  1.00  0.00     0.004 C 
ENDBRANCH  18  20
ENDBRANCH  11  18
ENDBRANCH   8  11
ENDBRANCH   3   7
ENDBRANCH   1   2
BRANCH   1  22
ATOM     22  N   UNL     1     -15.775   0.477  -1.270  1.00  0.00    -0.348 N 
ATOM     23  C   UNL     1     -14.795   0.857  -2.146  1.00  0.00     0.249 C 
ATOM     24  O   UNL     1     -14.287   1.972  -2.144  1.00  0.00    -0.272 OA
ATOM     25  H   UNL     1     -16.138  -0.470  -1.371  1.00  0.00     0.163 HD
BRANCH  23  26
ATOM     26  C   UNL     1     -14.363  -0.280  -3.084  1.00  0.00     0.238 C 
ATOM     27  N   UNL     1     -15.148  -0.199  -4.348  1.00  0.00    -0.236 NA
ATOM     28  C   UNL     1     -12.908  -0.152  -3.501  1.00  0.00     0.206 C 
ATOM     29  C   UNL     1     -14.260   0.157  -5.227  1.00  0.00     0.208 C 
ATOM     30  O   UNL     1     -12.973   0.333  -4.841  1.00  0.00    -0.474 OA
ATOM     31  C   UNL     1     -12.181  -1.490  -3.502  1.00  0.00     0.056 C 
BRANCH  29  32
ATOM     32  C   UNL     1     -14.518   0.465  -6.700  1.00  0.00     0.171 C 
BRANCH  32  33
ATOM     33  N   UNL     1     -15.779   1.171  -6.870  1.00  0.00    -0.342 N 
ATOM     34  C   UNL     1     -16.640   0.909  -7.908  1.00  0.00     0.246 CG0
ATOM     35  O   UNL     1     -16.402   0.081  -8.784  1.00  0.00    -0.273 OA
ATOM     36  H   UNL     1     -16.051   1.916  -6.239  1.00  0.00     0.164 HD
ATOM     37  G   UNL     1     -17.944   1.722  -7.874  1.00  0.00     0.000 G0
ENDBRANCH  32  33
BRANCH  32  38
ATOM     38  C   UNL     1     -13.318   1.235  -7.312  1.00  0.00     0.017 C 
ATOM     39  C   UNL     1     -12.472   0.291  -8.175  1.00  0.00     0.010 C 
BRANCH  38  40
ATOM     40  C   UNL     1     -13.749   2.494  -8.098  1.00  0.00     0.002 C 
ATOM     41  C   UNL     1     -12.958   2.710  -9.382  1.00  0.00     0.004 C 
ENDBRANCH  38  40
ENDBRANCH  32  38
ENDBRANCH  29  32
ENDBRANCH  23  26
ENDBRANCH   1  22
TORSDOF 4
ENDMDL
MODEL 31
REMARK VINA RESULT:    -5.829      4.318      9.311
REMARK INTER + INTRA:         -11.129
REMARK INTER:                  -9.778
REMARK INTRA:                  -1.351
REMARK UNBOUND:                -1.210
REMARK SMILES CC[C@H](C)[C@@H]1NC(=O)[C@H]2CSC(=N2)[C@@H]([C@@H](C)CC)NC(=O)c2csc(n2)CNC(=O)[C@H]2N=C1O[C@@H]2C
REMARK SMILES IDX 27 1 25 2 22 3 26 4 23 5 24 6 20 7 19 8 21 9 14 11 12 12
REMARK SMILES IDX 11 13 10 14 13 15 9 16 15 18 16 19 17 20 18 21 28 22 29 23
REMARK SMILES IDX 30 24 31 26 32 27 35 28 33 29 34 30 36 31 5 32 6 33 7 34
REMARK SMILES IDX 8 35 3 38 4 39 2 40 1 41
REMARK H PARENT 19 10 28 25 6 36
REMARK Flexibility Score:   91.900
ROOT
ATOM      1  C   UNL     1      -8.812   2.341  -1.792  1.00  0.00     0.183 C 
ENDROOT
BRANCH   1   2
ATOM      2  C   UNL     1     -10.098   1.571  -1.693  1.00  0.00     0.113 A 
ATOM      3  C   UNL     1     -12.255   1.073  -1.950  1.00  0.00     0.139 A 
ATOM      4  N   UNL     1     -11.204   1.910  -2.330  1.00  0.00    -0.234 NA
ATOM      5  C   UNL     1     -11.899   0.072  -1.068  1.00  0.00     0.101 A 
ATOM      6  S   UNL     1     -10.230   0.189  -0.683  1.00  0.00    -0.125 S 
BRANCH   3   7
ATOM      7  C   UNL     1     -13.608   1.321  -2.453  1.00  0.00     0.271 C 
ATOM      8  N   UNL     1     -13.946   0.440  -3.451  1.00  0.00    -0.341 N 
ATOM      9  O   UNL     1     -14.328   2.226  -2.051  1.00  0.00    -0.267 OA
ATOM     10  H   UNL     1     -13.251  -0.275  -3.662  1.00  0.00     0.164 HD
BRANCH   8  11
ATOM     11  C   UNL     1     -15.142   0.552  -4.269  1.00  0.00     0.140 C 
BRANCH  11  12
ATOM     12  C   UNL     1     -14.704   0.646  -5.733  1.00  0.00     0.091 C 
ATOM     13  S   UNL     1     -15.443  -0.371  -6.948  1.00  0.00    -0.106 SA
ATOM     14  C   UNL     1     -14.670   0.607  -8.254  1.00  0.00     0.113 C 
ATOM     15  N   UNL     1     -13.733   1.417  -6.111  1.00  0.00    -0.267 NA
ATOM     16  C   UNL     1     -13.459   1.221  -7.569  1.00  0.00     0.205 CG0
ATOM     17  G   UNL     1     -12.213   0.346  -7.780  1.00  0.00     0.000 G0
ENDBRANCH  11  12
BRANCH  11  18
ATOM     18  C   UNL     1     -16.230  -0.503  -3.942  1.00  0.00     0.015 C 
ATOM     19  C   UNL     1     -15.990  -1.106  -2.551  1.00  0.00     0.010 C 
BRANCH  18  20
ATOM     20  C   UNL     1     -17.681  -0.003  -4.096  1.00  0.00     0.002 C 
ATOM     21  C   UNL     1     -18.348   0.310  -2.761  1.00  0.00     0.004 C 
ENDBRANCH  18  20
ENDBRANCH  11  18
ENDBRANCH   8  11
ENDBRANCH   3   7
ENDBRANCH   1   2
BRANCH   1  22
ATOM     22  N   UNL     1      -8.352   2.241  -3.159  1.00  0.00    -0.348 N 
ATOM     23  C   UNL     1      -7.590   1.216  -3.652  1.00  0.00     0.249 C 
ATOM     24  O   UNL     1      -7.290   0.225  -2.995  1.00  0.00    -0.272 OA
ATOM     25  H   UNL     1      -8.528   3.023  -3.787  1.00  0.00     0.163 HD
BRANCH  23  26
ATOM     26  C   UNL     1      -7.209   1.414  -5.127  1.00  0.00     0.238 C 
ATOM     27  N   UNL     1      -7.823   0.331  -5.943  1.00  0.00    -0.236 NA
ATOM     28  C   UNL     1      -7.765   2.712  -5.689  1.00  0.00     0.206 C 
ATOM     29  C   UNL     1      -8.726   0.956  -6.637  1.00  0.00     0.208 C 
ATOM     30  O   UNL     1      -8.870   2.296  -6.490  1.00  0.00    -0.474 OA
ATOM     31  C   UNL     1      -6.766   3.440  -6.577  1.00  0.00     0.056 C 
BRANCH  29  32
ATOM     32  C   UNL     1      -9.723   0.323  -7.604  1.00  0.00     0.171 C 
BRANCH  32  33
ATOM     33  N   UNL     1     -11.009   0.998  -7.540  1.00  0.00    -0.342 N 
ATOM     34  C   UNL     1     -12.199   0.351  -7.778  1.00  0.00     0.246 CG0
ATOM     35  O   UNL     1     -12.265  -0.836  -8.086  1.00  0.00    -0.273 OA
ATOM     36  H   UNL     1     -11.071   1.993  -7.351  1.00  0.00     0.164 HD
ATOM     37  G   UNL     1     -13.448   1.229  -7.601  1.00  0.00     0.000 G0
ENDBRANCH  32  33
BRANCH  32  38
ATOM     38  C   UNL     1      -9.139   0.291  -9.041  1.00  0.00     0.017 C 
ATOM     39  C   UNL     1      -9.776   1.397  -9.893  1.00  0.00     0.010 C 
BRANCH  38  40
ATOM     40  C   UNL     1      -7.595   0.371  -9.067  1.00  0.00     0.002 C 
ATOM     41  C   UNL     1      -7.055   1.419 -10.032  1.00  0.00     0.004 C 
ENDBRANCH  38  40
ENDBRANCH  32  38
ENDBRANCH  29  32
ENDBRANCH  23  26
ENDBRANCH   1  22
TORSDOF 4
ENDMDL
MODEL 32
REMARK VINA RESULT:    -5.779      3.929      7.378
REMARK INTER + INTRA:         -11.043
REMARK INTER:                 -10.415
REMARK INTRA:                  -0.628
REMARK UNBOUND:                -1.210
REMARK SMILES CC[C@H](C)[C@@H]1NC(=O)[C@H]2CSC(=N2)[C@@H]([C@@H](C)CC)NC(=O)c2csc(n2)CNC(=O)[C@H]2N=C1O[C@@H]2C
REMARK SMILES IDX 27 1 25 2 22 3 26 4 23 5 24 6 20 7 19 8 21 9 14 11 12 12
REMARK SMILES IDX 11 13 10 14 13 15 9 16 15 18 16 19 17 20 18 21 28 22 29 23
REMARK SMILES IDX 30 24 31 26 32 27 35 28 33 29 34 30 36 31 5 32 6 33 7 34
REMARK SMILES IDX 8 35 3 38 4 39 2 40 1 41
REMARK H PARENT 19 10 28 25 6 36
REMARK Flexibility Score:   91.900
ROOT
ATOM      1  C   UNL     1     -13.167   0.895   0.753  1.00  0.00     0.183 C 
ENDROOT
BRANCH   1   2
ATOM      2  C   UNL     1     -13.869   0.431  -0.490  1.00  0.00     0.113 A 
ATOM      3  C   UNL     1     -14.657   0.461  -2.575  1.00  0.00     0.139 A 
ATOM      4  N   UNL     1     -13.815   1.072  -1.643  1.00  0.00    -0.234 NA
ATOM      5  C   UNL     1     -15.290  -0.676  -2.114  1.00  0.00     0.101 A 
ATOM      6  S   UNL     1     -14.849  -0.978  -0.482  1.00  0.00    -0.125 S 
BRANCH   3   7
ATOM      7  C   UNL     1     -14.839   1.058  -3.900  1.00  0.00     0.271 C 
ATOM      8  N   UNL     1     -14.315   0.262  -4.889  1.00  0.00    -0.341 N 
ATOM      9  O   UNL     1     -15.363   2.148  -4.089  1.00  0.00    -0.267 OA
ATOM     10  H   UNL     1     -13.931  -0.630  -4.579  1.00  0.00     0.164 HD
BRANCH   8  11
ATOM     11  C   UNL     1     -14.178   0.668  -6.278  1.00  0.00     0.140 C 
BRANCH  11  12
ATOM     12  C   UNL     1     -12.683   0.708  -6.610  1.00  0.00     0.091 C 
ATOM     13  S   UNL     1     -12.042  -0.237  -7.933  1.00  0.00    -0.106 SA
ATOM     14  C   UNL     1     -10.473   0.649  -7.823  1.00  0.00     0.113 C 
ATOM     15  N   UNL     1     -11.837   1.375  -5.889  1.00  0.00    -0.267 NA
ATOM     16  C   UNL     1     -10.444   1.144  -6.385  1.00  0.00     0.205 CG0
ATOM     17  G   UNL     1      -9.699   0.147  -5.483  1.00  0.00     0.000 G0
ENDBRANCH  11  12
BRANCH  11  18
ATOM     18  C   UNL     1     -15.080  -0.124  -7.258  1.00  0.00     0.015 C 
ATOM     19  C   UNL     1     -16.380  -0.551  -6.563  1.00  0.00     0.010 C 
BRANCH  18  20
ATOM     20  C   UNL     1     -15.365   0.593  -8.594  1.00  0.00     0.002 C 
ATOM     21  C   UNL     1     -16.709   0.207  -9.202  1.00  0.00     0.004 C 
ENDBRANCH  18  20
ENDBRANCH  11  18
ENDBRANCH   8  11
ENDBRANCH   3   7
ENDBRANCH   1   2
BRANCH   1  22
ATOM     22  N   UNL     1     -11.759   0.608   0.589  1.00  0.00    -0.348 N 
ATOM     23  C   UNL     1     -10.872   1.410  -0.076  1.00  0.00     0.249 C 
ATOM     24  O   UNL     1     -11.170   2.508  -0.532  1.00  0.00    -0.272 OA
ATOM     25  H   UNL     1     -11.408  -0.293   0.913  1.00  0.00     0.163 HD
BRANCH  23  26
ATOM     26  C   UNL     1      -9.458   0.814  -0.133  1.00  0.00     0.238 C 
ATOM     27  N   UNL     1      -9.360  -0.107  -1.299  1.00  0.00    -0.236 NA
ATOM     28  C   UNL     1      -8.400   1.879  -0.366  1.00  0.00     0.206 C 
ATOM     29  C   UNL     1      -8.559   0.521  -2.108  1.00  0.00     0.208 C 
ATOM     30  O   UNL     1      -8.044   1.719  -1.738  1.00  0.00    -0.474 OA
ATOM     31  C   UNL     1      -7.158   1.666   0.488  1.00  0.00     0.056 C 
BRANCH  29  32
ATOM     32  C   UNL     1      -8.154   0.072  -3.509  1.00  0.00     0.171 C 
BRANCH  32  33
ATOM     33  N   UNL     1      -8.895   0.805  -4.524  1.00  0.00    -0.342 N 
ATOM     34  C   UNL     1      -9.687   0.182  -5.458  1.00  0.00     0.246 CG0
ATOM     35  O   UNL     1      -9.811  -1.038  -5.525  1.00  0.00    -0.273 OA
ATOM     36  H   UNL     1      -8.821   1.814  -4.600  1.00  0.00     0.164 HD
ATOM     37  G   UNL     1     -10.431   1.140  -6.403  1.00  0.00     0.000 G0
ENDBRANCH  32  33
BRANCH  32  38
ATOM     38  C   UNL     1      -6.618   0.188  -3.693  1.00  0.00     0.017 C 
ATOM     39  C   UNL     1      -6.271   1.505  -4.399  1.00  0.00     0.010 C 
BRANCH  38  40
ATOM     40  C   UNL     1      -5.838   0.029  -2.368  1.00  0.00     0.002 C 
ATOM     41  C   UNL     1      -4.356   0.357  -2.490  1.00  0.00     0.004 C 
ENDBRANCH  38  40
ENDBRANCH  32  38
ENDBRANCH  29  32
ENDBRANCH  23  26
ENDBRANCH   1  22
TORSDOF 4
ENDMDL
MODEL 33
REMARK VINA RESULT:    -5.765      3.294      6.569
REMARK INTER + INTRA:         -11.019
REMARK INTER:                 -10.920
REMARK INTRA:                  -0.099
REMARK UNBOUND:                -1.210
REMARK SMILES CC[C@H](C)[C@@H]1NC(=O)[C@H]2CSC(=N2)[C@@H]([C@@H](C)CC)NC(=O)c2csc(n2)CNC(=O)[C@H]2N=C1O[C@@H]2C
REMARK SMILES IDX 27 1 25 2 22 3 26 4 23 5 24 6 20 7 19 8 21 9 14 11 12 12
REMARK SMILES IDX 11 13 10 14 13 15 9 16 15 18 16 19 17 20 18 21 28 22 29 23
REMARK SMILES IDX 30 24 31 26 32 27 35 28 33 29 34 30 36 31 5 32 6 33 7 34
REMARK SMILES IDX 8 35 3 38 4 39 2 40 1 41
REMARK H PARENT 19 10 28 25 6 36
REMARK Flexibility Score:   91.900
ROOT
ATOM      1  C   UNL     1      -5.224   0.413  -1.528  1.00  0.00     0.183 C 
ENDROOT
BRANCH   1   2
ATOM      2  C   UNL     1      -5.786   0.904  -2.831  1.00  0.00     0.113 A 
ATOM      3  C   UNL     1      -7.283   1.345  -4.423  1.00  0.00     0.139 A 
ATOM      4  N   UNL     1      -7.078   0.955  -3.098  1.00  0.00    -0.234 NA
ATOM      5  C   UNL     1      -6.126   1.639  -5.117  1.00  0.00     0.101 A 
ATOM      6  S   UNL     1      -4.756   1.402  -4.111  1.00  0.00    -0.125 S 
BRANCH   3   7
ATOM      7  C   UNL     1      -8.638   1.376  -4.977  1.00  0.00     0.271 C 
ATOM      8  N   UNL     1      -8.902   0.259  -5.731  1.00  0.00    -0.341 N 
ATOM      9  O   UNL     1      -9.420   2.303  -4.811  1.00  0.00    -0.267 OA
ATOM     10  H   UNL     1      -8.160  -0.440  -5.758  1.00  0.00     0.164 HD
BRANCH   8  11
ATOM     11  C   UNL     1     -10.087   0.091  -6.556  1.00  0.00     0.140 C 
BRANCH  11  12
ATOM     12  C   UNL     1     -11.292  -0.061  -5.623  1.00  0.00     0.091 C 
ATOM     13  S   UNL     1     -12.801   0.744  -5.984  1.00  0.00    -0.106 SA
ATOM     14  C   UNL     1     -13.636  -0.222  -4.708  1.00  0.00     0.113 C 
ATOM     15  N   UNL     1     -11.219  -0.720  -4.510  1.00  0.00    -0.267 NA
ATOM     16  C   UNL     1     -12.510  -0.608  -3.761  1.00  0.00     0.205 CG0
ATOM     17  G   UNL     1     -12.392   0.408  -2.614  1.00  0.00     0.000 G0
ENDBRANCH  11  12
BRANCH  11  18
ATOM     18  C   UNL     1     -10.220   1.142  -7.688  1.00  0.00     0.015 C 
ATOM     19  C   UNL     1      -8.959   1.151  -8.561  1.00  0.00     0.010 C 
BRANCH  18  20
ATOM     20  C   UNL     1     -11.497   1.010  -8.543  1.00  0.00     0.002 C 
ATOM     21  C   UNL     1     -11.798   2.262  -9.360  1.00  0.00     0.004 C 
ENDBRANCH  18  20
ENDBRANCH  11  18
ENDBRANCH   8  11
ENDBRANCH   3   7
ENDBRANCH   1   2
BRANCH   1  22
ATOM     22  N   UNL     1      -6.332   0.242  -0.616  1.00  0.00    -0.348 N 
ATOM     23  C   UNL     1      -6.865   1.237   0.158  1.00  0.00     0.249 C 
ATOM     24  O   UNL     1      -6.505   2.407   0.092  1.00  0.00    -0.272 OA
ATOM     25  H   UNL     1      -6.696  -0.698  -0.466  1.00  0.00     0.163 HD
BRANCH  23  26
ATOM     26  C   UNL     1      -7.998   0.740   1.069  1.00  0.00     0.238 C 
ATOM     27  N   UNL     1      -9.239   1.510   0.773  1.00  0.00    -0.236 NA
ATOM     28  C   UNL     1      -8.348  -0.713   0.800  1.00  0.00     0.206 C 
ATOM     29  C   UNL     1     -10.011   0.627   0.214  1.00  0.00     0.208 C 
ATOM     30  O   UNL     1      -9.569  -0.645   0.064  1.00  0.00    -0.474 OA
ATOM     31  C   UNL     1      -8.596  -1.501   2.080  1.00  0.00     0.056 C 
BRANCH  29  32
ATOM     32  C   UNL     1     -11.400   0.879  -0.367  1.00  0.00     0.171 C 
BRANCH  32  33
ATOM     33  N   UNL     1     -11.644   0.023  -1.517  1.00  0.00    -0.342 N 
ATOM     34  C   UNL     1     -12.419   0.416  -2.582  1.00  0.00     0.246 CG0
ATOM     35  O   UNL     1     -12.984   1.506  -2.633  1.00  0.00    -0.273 OA
ATOM     36  H   UNL     1     -11.276  -0.922  -1.556  1.00  0.00     0.164 HD
ATOM     37  G   UNL     1     -12.504  -0.612  -3.722  1.00  0.00     0.000 G0
ENDBRANCH  32  33
BRANCH  32  38
ATOM     38  C   UNL     1     -12.484   0.722   0.732  1.00  0.00     0.017 C 
ATOM     39  C   UNL     1     -12.923   2.102   1.239  1.00  0.00     0.010 C 
BRANCH  38  40
ATOM     40  C   UNL     1     -13.691  -0.126   0.271  1.00  0.00     0.002 C 
ATOM     41  C   UNL     1     -15.029   0.586   0.422  1.00  0.00     0.004 C 
ENDBRANCH  38  40
ENDBRANCH  32  38
ENDBRANCH  29  32
ENDBRANCH  23  26
ENDBRANCH   1  22
TORSDOF 4
ENDMDL
MODEL 34
REMARK VINA RESULT:    -5.759      5.299      7.944
REMARK INTER + INTRA:         -11.009
REMARK INTER:                 -10.211
REMARK INTRA:                  -0.798
REMARK UNBOUND:                -1.210
REMARK SMILES CC[C@H](C)[C@@H]1NC(=O)[C@H]2CSC(=N2)[C@@H]([C@@H](C)CC)NC(=O)c2csc(n2)CNC(=O)[C@H]2N=C1O[C@@H]2C
REMARK SMILES IDX 27 1 25 2 22 3 26 4 23 5 24 6 20 7 19 8 21 9 14 11 12 12
REMARK SMILES IDX 11 13 10 14 13 15 9 16 15 18 16 19 17 20 18 21 28 22 29 23
REMARK SMILES IDX 30 24 31 26 32 27 35 28 33 29 34 30 36 31 5 32 6 33 7 34
REMARK SMILES IDX 8 35 3 38 4 39 2 40 1 41
REMARK H PARENT 19 10 28 25 6 36
REMARK Flexibility Score:   91.900
ROOT
ATOM      1  C   UNL     1     -10.517   5.647 -12.703  1.00  0.00     0.183 C 
ENDROOT
BRANCH   1   2
ATOM      2  C   UNL     1      -9.538   5.213 -13.755  1.00  0.00     0.113 A 
ATOM      3  C   UNL     1      -7.753   4.238 -14.667  1.00  0.00     0.139 A 
ATOM      4  N   UNL     1      -8.561   4.352 -13.534  1.00  0.00    -0.234 NA
ATOM      5  C   UNL     1      -8.179   4.982 -15.750  1.00  0.00     0.101 A 
ATOM      6  S   UNL     1      -9.597   5.860 -15.344  1.00  0.00    -0.125 S 
BRANCH   3   7
ATOM      7  C   UNL     1      -6.545   3.412 -14.626  1.00  0.00     0.271 C 
ATOM      8  N   UNL     1      -6.758   2.237 -13.947  1.00  0.00    -0.341 N 
ATOM      9  O   UNL     1      -5.472   3.751 -15.110  1.00  0.00    -0.267 OA
ATOM     10  H   UNL     1      -7.711   2.084 -13.621  1.00  0.00     0.164 HD
BRANCH   8  11
ATOM     11  C   UNL     1      -5.706   1.303 -13.581  1.00  0.00     0.140 C 
BRANCH  11  12
ATOM     12  C   UNL     1      -5.616   1.273 -12.052  1.00  0.00     0.091 C 
ATOM     13  S   UNL     1      -4.652   0.059 -11.244  1.00  0.00    -0.106 SA
ATOM     14  C   UNL     1      -4.814   0.952  -9.683  1.00  0.00     0.113 C 
ATOM     15  N   UNL     1      -6.299   2.084 -11.308  1.00  0.00    -0.267 NA
ATOM     16  C   UNL     1      -6.095   1.752  -9.863  1.00  0.00     0.205 CG0
ATOM     17  G   UNL     1      -7.300   0.981  -9.301  1.00  0.00     0.000 G0
ENDBRANCH  11  12
BRANCH  11  18
ATOM     18  C   UNL     1      -5.807  -0.070 -14.293  1.00  0.00     0.015 C 
ATOM     19  C   UNL     1      -4.407  -0.645 -14.548  1.00  0.00     0.010 C 
BRANCH  18  20
ATOM     20  C   UNL     1      -6.718  -1.096 -13.588  1.00  0.00     0.002 C 
ATOM     21  C   UNL     1      -7.570  -1.903 -14.561  1.00  0.00     0.004 C 
ENDBRANCH  18  20
ENDBRANCH  11  18
ENDBRANCH   8  11
ENDBRANCH   3   7
ENDBRANCH   1   2
BRANCH   1  22
ATOM     22  N   UNL     1     -11.076   4.451 -12.112  1.00  0.00    -0.348 N 
ATOM     23  C   UNL     1     -11.972   4.438 -11.078  1.00  0.00     0.249 C 
ATOM     24  O   UNL     1     -12.461   5.455 -10.599  1.00  0.00    -0.272 OA
ATOM     25  H   UNL     1     -10.721   3.547 -12.421  1.00  0.00     0.163 HD
BRANCH  23  26
ATOM     26  C   UNL     1     -12.341   3.016 -10.628  1.00  0.00     0.238 C 
ATOM     27  N   UNL     1     -11.117   2.167 -10.629  1.00  0.00    -0.236 NA
ATOM     28  C   UNL     1     -12.855   2.987  -9.199  1.00  0.00     0.206 C 
ATOM     29  C   UNL     1     -10.907   1.947  -9.365  1.00  0.00     0.208 C 
ATOM     30  O   UNL     1     -11.761   2.463  -8.448  1.00  0.00    -0.474 OA
ATOM     31  C   UNL     1     -14.051   2.060  -9.027  1.00  0.00     0.056 C 
BRANCH  29  32
ATOM     32  C   UNL     1      -9.730   1.184  -8.763  1.00  0.00     0.171 C 
BRANCH  32  33
ATOM     33  N   UNL     1      -8.464   1.742  -9.213  1.00  0.00    -0.342 N 
ATOM     34  C   UNL     1      -7.310   1.000  -9.283  1.00  0.00     0.246 CG0
ATOM     35  O   UNL     1      -7.251  -0.180  -8.947  1.00  0.00    -0.273 OA
ATOM     36  H   UNL     1      -8.382   2.723  -9.460  1.00  0.00     0.164 HD
ATOM     37  G   UNL     1      -6.096   1.761  -9.840  1.00  0.00     0.000 G0
ENDBRANCH  32  33
BRANCH  32  38
ATOM     38  C   UNL     1      -9.844   1.142  -7.217  1.00  0.00     0.017 C 
ATOM     39  C   UNL     1      -9.477  -0.255  -6.699  1.00  0.00     0.010 C 
BRANCH  38  40
ATOM     40  C   UNL     1      -9.013   2.243  -6.520  1.00  0.00     0.002 C 
ATOM     41  C   UNL     1      -9.294   2.367  -5.028  1.00  0.00     0.004 C 
ENDBRANCH  38  40
ENDBRANCH  32  38
ENDBRANCH  29  32
ENDBRANCH  23  26
ENDBRANCH   1  22
TORSDOF 4
ENDMDL
MODEL 35
REMARK VINA RESULT:    -5.722      2.979      6.234
REMARK INTER + INTRA:         -10.946
REMARK INTER:                 -10.625
REMARK INTRA:                  -0.321
REMARK UNBOUND:                -1.210
REMARK SMILES CC[C@H](C)[C@@H]1NC(=O)[C@H]2CSC(=N2)[C@@H]([C@@H](C)CC)NC(=O)c2csc(n2)CNC(=O)[C@H]2N=C1O[C@@H]2C
REMARK SMILES IDX 27 1 25 2 22 3 26 4 23 5 24 6 20 7 19 8 21 9 14 11 12 12
REMARK SMILES IDX 11 13 10 14 13 15 9 16 15 18 16 19 17 20 18 21 28 22 29 23
REMARK SMILES IDX 30 24 31 26 32 27 35 28 33 29 34 30 36 31 5 32 6 33 7 34
REMARK SMILES IDX 8 35 3 38 4 39 2 40 1 41
REMARK H PARENT 19 10 28 25 6 36
REMARK Flexibility Score:   91.900
ROOT
ATOM      1  C   UNL     1      -6.056   2.319  -2.565  1.00  0.00     0.183 C 
ENDROOT
BRANCH   1   2
ATOM      2  C   UNL     1      -5.162   2.138  -3.758  1.00  0.00     0.113 A 
ATOM      3  C   UNL     1      -4.545   1.946  -5.890  1.00  0.00     0.139 A 
ATOM      4  N   UNL     1      -5.568   2.292  -5.005  1.00  0.00    -0.234 NA
ATOM      5  C   UNL     1      -3.357   1.591  -5.281  1.00  0.00     0.101 A 
ATOM      6  S   UNL     1      -3.523   1.664  -3.575  1.00  0.00    -0.125 S 
BRANCH   3   7
ATOM      7  C   UNL     1      -4.795   1.942  -7.333  1.00  0.00     0.271 C 
ATOM      8  N   UNL     1      -3.982   1.047  -7.985  1.00  0.00    -0.341 N 
ATOM      9  O   UNL     1      -5.606   2.674  -7.886  1.00  0.00    -0.267 OA
ATOM     10  H   UNL     1      -3.373   0.489  -7.388  1.00  0.00     0.164 HD
BRANCH   8  11
ATOM     11  C   UNL     1      -3.867   0.950  -9.431  1.00  0.00     0.140 C 
BRANCH  11  12
ATOM     12  C   UNL     1      -5.256   0.634  -9.993  1.00  0.00     0.091 C 
ATOM     13  S   UNL     1      -5.795   1.361 -11.488  1.00  0.00    -0.106 SA
ATOM     14  C   UNL     1      -7.202   0.231 -11.546  1.00  0.00     0.113 C 
ATOM     15  N   UNL     1      -6.100  -0.115  -9.356  1.00  0.00    -0.267 NA
ATOM     16  C   UNL     1      -7.404  -0.159 -10.090  1.00  0.00     0.205 CG0
ATOM     17  G   UNL     1      -8.441   0.758  -9.420  1.00  0.00     0.000 G0
ENDBRANCH  11  12
BRANCH  11  18
ATOM     18  C   UNL     1      -3.114   2.138 -10.084  1.00  0.00     0.015 C 
ATOM     19  C   UNL     1      -2.270   2.877  -9.036  1.00  0.00     0.010 C 
BRANCH  18  20
ATOM     20  C   UNL     1      -2.275   1.766 -11.323  1.00  0.00     0.002 C 
ATOM     21  C   UNL     1      -2.246   2.870 -12.375  1.00  0.00     0.004 C 
ENDBRANCH  18  20
ENDBRANCH  11  18
ENDBRANCH   8  11
ENDBRANCH   3   7
ENDBRANCH   1   2
BRANCH   1  22
ATOM     22  N   UNL     1      -7.403   1.996  -2.980  1.00  0.00    -0.348 N 
ATOM     23  C   UNL     1      -7.843   0.737  -3.288  1.00  0.00     0.249 C 
ATOM     24  O   UNL     1      -7.152  -0.267  -3.160  1.00  0.00    -0.272 OA
ATOM     25  H   UNL     1      -8.057   2.761  -3.141  1.00  0.00     0.163 HD
BRANCH  23  26
ATOM     26  C   UNL     1      -9.308   0.715  -3.751  1.00  0.00     0.238 C 
ATOM     27  N   UNL     1      -9.457   1.587  -4.950  1.00  0.00    -0.236 NA
ATOM     28  C   UNL     1      -9.742  -0.670  -4.199  1.00  0.00     0.206 C 
ATOM     29  C   UNL     1      -9.691   0.739  -5.907  1.00  0.00     0.208 C 
ATOM     30  O   UNL     1      -9.757  -0.585  -5.623  1.00  0.00    -0.474 OA
ATOM     31  C   UNL     1     -11.142  -1.027  -3.719  1.00  0.00     0.056 C 
BRANCH  29  32
ATOM     32  C   UNL     1      -9.856   1.070  -7.388  1.00  0.00     0.171 C 
BRANCH  32  33
ATOM     33  N   UNL     1      -8.912   0.315  -8.197  1.00  0.00    -0.342 N 
ATOM     34  C   UNL     1      -8.461   0.760  -9.417  1.00  0.00     0.246 CG0
ATOM     35  O   UNL     1      -8.837   1.812  -9.928  1.00  0.00    -0.273 OA
ATOM     36  H   UNL     1      -8.579  -0.596  -7.901  1.00  0.00     0.164 HD
ATOM     37  G   UNL     1      -7.423  -0.157 -10.084  1.00  0.00     0.000 G0
ENDBRANCH  32  33
BRANCH  32  38
ATOM     38  C   UNL     1     -11.327   0.852  -7.831  1.00  0.00     0.017 C 
ATOM     39  C   UNL     1     -11.554  -0.620  -8.200  1.00  0.00     0.010 C 
BRANCH  38  40
ATOM     40  C   UNL     1     -12.352   1.340  -6.781  1.00  0.00     0.002 C 
ATOM     41  C   UNL     1     -13.676   0.589  -6.828  1.00  0.00     0.004 C 
ENDBRANCH  38  40
ENDBRANCH  32  38
ENDBRANCH  29  32
ENDBRANCH  23  26
ENDBRANCH   1  22
TORSDOF 4
ENDMDL
MODEL 36
REMARK VINA RESULT:    -5.689      6.681     10.606
REMARK INTER + INTRA:         -10.891
REMARK INTER:                  -9.590
REMARK INTRA:                  -1.301
REMARK UNBOUND:                -1.210
REMARK SMILES CC[C@H](C)[C@@H]1NC(=O)[C@H]2CSC(=N2)[C@@H]([C@@H](C)CC)NC(=O)c2csc(n2)CNC(=O)[C@H]2N=C1O[C@@H]2C
REMARK SMILES IDX 27 1 25 2 22 3 26 4 23 5 24 6 20 7 19 8 21 9 14 11 12 12
REMARK SMILES IDX 11 13 10 14 13 15 9 16 15 18 16 19 17 20 18 21 28 22 29 23
REMARK SMILES IDX 30 24 31 26 32 27 35 28 33 29 34 30 36 31 5 32 6 33 7 34
REMARK SMILES IDX 8 35 3 38 4 39 2 40 1 41
REMARK H PARENT 19 10 28 25 6 36
REMARK Flexibility Score:   91.900
ROOT
ATOM      1  C   UNL     1     -12.645   2.715  -9.515  1.00  0.00     0.183 C 
ENDROOT
BRANCH   1   2
ATOM      2  C   UNL     1     -11.456   1.954  -9.001  1.00  0.00     0.113 A 
ATOM      3  C   UNL     1      -9.464   0.954  -8.994  1.00  0.00     0.139 A 
ATOM      4  N   UNL     1     -10.335   1.802  -9.682  1.00  0.00    -0.234 NA
ATOM      5  C   UNL     1      -9.932   0.528  -7.767  1.00  0.00     0.101 A 
ATOM      6  S   UNL     1     -11.495   1.173  -7.473  1.00  0.00    -0.125 S 
BRANCH   3   7
ATOM      7  C   UNL     1      -8.193   0.558  -9.604  1.00  0.00     0.271 C 
ATOM      8  N   UNL     1      -7.722   1.520 -10.463  1.00  0.00    -0.341 N 
ATOM      9  O   UNL     1      -7.644  -0.516  -9.395  1.00  0.00    -0.267 OA
ATOM     10  H   UNL     1      -8.278   2.373 -10.516  1.00  0.00     0.164 HD
BRANCH   8  11
ATOM     11  C   UNL     1      -6.587   1.337 -11.352  1.00  0.00     0.140 C 
BRANCH  11  12
ATOM     12  C   UNL     1      -6.955   1.934 -12.713  1.00  0.00     0.091 C 
ATOM     13  S   UNL     1      -5.710   2.510 -13.796  1.00  0.00    -0.106 SA
ATOM     14  C   UNL     1      -6.916   2.644 -15.133  1.00  0.00     0.113 C 
ATOM     15  N   UNL     1      -8.187   2.102 -13.079  1.00  0.00    -0.267 NA
ATOM     16  C   UNL     1      -8.240   2.800 -14.402  1.00  0.00     0.205 CG0
ATOM     17  G   UNL     1      -8.591   4.287 -14.223  1.00  0.00     0.000 G0
ENDBRANCH  11  12
BRANCH  11  18
ATOM     18  C   UNL     1      -5.233   1.787 -10.746  1.00  0.00     0.015 C 
ATOM     19  C   UNL     1      -5.426   2.268  -9.302  1.00  0.00     0.010 C 
BRANCH  18  20
ATOM     20  C   UNL     1      -4.103   0.741 -10.845  1.00  0.00     0.002 C 
ATOM     21  C   UNL     1      -4.097  -0.241  -9.679  1.00  0.00     0.004 C 
ENDBRANCH  18  20
ENDBRANCH  11  18
ENDBRANCH   8  11
ENDBRANCH   3   7
ENDBRANCH   1   2
BRANCH   1  22
ATOM     22  N   UNL     1     -12.164   3.985 -10.011  1.00  0.00    -0.348 N 
ATOM     23  C   UNL     1     -12.804   4.747 -10.950  1.00  0.00     0.249 C 
ATOM     24  O   UNL     1     -13.905   4.465 -11.408  1.00  0.00    -0.272 OA
ATOM     25  H   UNL     1     -11.244   4.305  -9.712  1.00  0.00     0.163 HD
BRANCH  23  26
ATOM     26  C   UNL     1     -12.023   6.018 -11.318  1.00  0.00     0.238 C 
ATOM     27  N   UNL     1     -10.856   5.648 -12.167  1.00  0.00    -0.236 NA
ATOM     28  C   UNL     1     -12.852   6.971 -12.161  1.00  0.00     0.206 C 
ATOM     29  C   UNL     1     -11.167   6.135 -13.330  1.00  0.00     0.208 C 
ATOM     30  O   UNL     1     -12.336   6.806 -13.481  1.00  0.00    -0.474 OA
ATOM     31  C   UNL     1     -12.671   8.426 -11.747  1.00  0.00     0.056 C 
BRANCH  29  32
ATOM     32  C   UNL     1     -10.360   5.991 -14.617  1.00  0.00     0.171 C 
BRANCH  32  33
ATOM     33  N   UNL     1      -9.822   4.645 -14.745  1.00  0.00    -0.342 N 
ATOM     34  C   UNL     1      -8.595   4.287 -14.241  1.00  0.00     0.246 CG0
ATOM     35  O   UNL     1      -7.848   5.078 -13.669  1.00  0.00    -0.273 OA
ATOM     36  H   UNL     1     -10.327   3.925 -15.250  1.00  0.00     0.164 HD
ATOM     37  G   UNL     1      -8.237   2.804 -14.428  1.00  0.00     0.000 G0
ENDBRANCH  32  33
BRANCH  32  38
ATOM     38  C   UNL     1     -11.214   6.408 -15.843  1.00  0.00     0.017 C 
ATOM     39  C   UNL     1     -10.553   7.587 -16.569  1.00  0.00     0.010 C 
BRANCH  38  40
ATOM     40  C   UNL     1     -11.498   5.234 -16.808  1.00  0.00     0.002 C 
ATOM     41  C   UNL     1     -12.888   4.633 -16.643  1.00  0.00     0.004 C 
ENDBRANCH  38  40
ENDBRANCH  32  38
ENDBRANCH  29  32
ENDBRANCH  23  26
ENDBRANCH   1  22
TORSDOF 4
ENDMDL
MODEL 37
REMARK VINA RESULT:    -5.665      6.013     11.114
REMARK INTER + INTRA:         -10.850
REMARK INTER:                 -10.078
REMARK INTRA:                  -0.771
REMARK UNBOUND:                -1.210
REMARK SMILES CC[C@H](C)[C@@H]1NC(=O)[C@H]2CSC(=N2)[C@@H]([C@@H](C)CC)NC(=O)c2csc(n2)CNC(=O)[C@H]2N=C1O[C@@H]2C
REMARK SMILES IDX 27 1 25 2 22 3 26 4 23 5 24 6 20 7 19 8 21 9 14 11 12 12
REMARK SMILES IDX 11 13 10 14 13 15 9 16 15 18 16 19 17 20 18 21 28 22 29 23
REMARK SMILES IDX 30 24 31 26 32 27 35 28 33 29 34 30 36 31 5 32 6 33 7 34
REMARK SMILES IDX 8 35 3 38 4 39 2 40 1 41
REMARK H PARENT 19 10 28 25 6 36
REMARK Flexibility Score:   91.900
ROOT
ATOM      1  C   UNL     1      -9.817  -0.795  -5.836  1.00  0.00     0.183 C 
ENDROOT
BRANCH   1   2
ATOM      2  C   UNL     1     -10.466  -0.462  -4.524  1.00  0.00     0.113 A 
ATOM      3  C   UNL     1     -12.075  -0.136  -3.016  1.00  0.00     0.139 A 
ATOM      4  N   UNL     1     -11.750  -0.645  -4.276  1.00  0.00    -0.234 NA
ATOM      5  C   UNL     1     -11.003   0.373  -2.311  1.00  0.00     0.101 A 
ATOM      6  S   UNL     1      -9.567   0.240  -3.241  1.00  0.00    -0.125 S 
BRANCH   3   7
ATOM      7  C   UNL     1     -13.468  -0.137  -2.563  1.00  0.00     0.271 C 
ATOM      8  N   UNL     1     -13.846   1.095  -2.088  1.00  0.00    -0.341 N 
ATOM      9  O   UNL     1     -14.188  -1.128  -2.577  1.00  0.00    -0.267 OA
ATOM     10  H   UNL     1     -13.144   1.830  -2.162  1.00  0.00     0.164 HD
BRANCH   8  11
ATOM     11  C   UNL     1     -15.101   1.356  -1.401  1.00  0.00     0.140 C 
BRANCH  11  12
ATOM     12  C   UNL     1     -16.237   1.158  -2.408  1.00  0.00     0.091 C 
ATOM     13  S   UNL     1     -17.505  -0.005  -2.099  1.00  0.00    -0.106 SA
ATOM     14  C   UNL     1     -18.475   0.669  -3.464  1.00  0.00     0.113 C 
ATOM     15  N   UNL     1     -16.264   1.781  -3.545  1.00  0.00    -0.267 NA
ATOM     16  C   UNL     1     -17.427   1.311  -4.361  1.00  0.00     0.205 CG0
ATOM     17  G   UNL     1     -16.970   0.329  -5.452  1.00  0.00     0.000 G0
ENDBRANCH  11  12
BRANCH  11  18
ATOM     18  C   UNL     1     -15.244   0.616  -0.047  1.00  0.00     0.015 C 
ATOM     19  C   UNL     1     -13.862   0.335   0.558  1.00  0.00     0.010 C 
BRANCH  18  20
ATOM     20  C   UNL     1     -16.174   1.307   0.971  1.00  0.00     0.002 C 
ATOM     21  C   UNL     1     -15.461   2.363   1.808  1.00  0.00     0.004 C 
ENDBRANCH  18  20
ENDBRANCH  11  18
ENDBRANCH   8  11
ENDBRANCH   3   7
ENDBRANCH   1   2
BRANCH   1  22
ATOM     22  N   UNL     1     -10.725  -0.384  -6.884  1.00  0.00    -0.348 N 
ATOM     23  C   UNL     1     -10.917   0.910  -7.286  1.00  0.00     0.249 C 
ATOM     24  O   UNL     1     -10.268   1.854  -6.848  1.00  0.00    -0.272 OA
ATOM     25  H   UNL     1     -11.332  -1.087  -7.303  1.00  0.00     0.163 HD
BRANCH  23  26
ATOM     26  C   UNL     1     -11.985   1.041  -8.382  1.00  0.00     0.238 C 
ATOM     27  N   UNL     1     -13.016  -0.017  -8.192  1.00  0.00    -0.236 NA
ATOM     28  C   UNL     1     -12.734   2.359  -8.291  1.00  0.00     0.206 C 
ATOM     29  C   UNL     1     -14.066   0.653  -7.822  1.00  0.00     0.208 C 
ATOM     30  O   UNL     1     -13.995   2.003  -7.725  1.00  0.00    -0.474 OA
ATOM     31  C   UNL     1     -12.975   2.990  -9.656  1.00  0.00     0.056 C 
BRANCH  29  32
ATOM     32  C   UNL     1     -15.416   0.068  -7.416  1.00  0.00     0.171 C 
BRANCH  32  33
ATOM     33  N   UNL     1     -16.023   0.851  -6.352  1.00  0.00    -0.342 N 
ATOM     34  C   UNL     1     -16.957   0.330  -5.489  1.00  0.00     0.246 CG0
ATOM     35  O   UNL     1     -17.368  -0.824  -5.564  1.00  0.00    -0.273 OA
ATOM     36  H   UNL     1     -15.802   1.834  -6.233  1.00  0.00     0.164 HD
ATOM     37  G   UNL     1     -17.430   1.306  -4.399  1.00  0.00     0.000 G0
ENDBRANCH  32  33
BRANCH  32  38
ATOM     38  C   UNL     1     -16.341  -0.072  -8.654  1.00  0.00     0.017 C 
ATOM     39  C   UNL     1     -16.938  -1.484  -8.709  1.00  0.00     0.010 C 
BRANCH  38  40
ATOM     40  C   UNL     1     -17.440   1.014  -8.711  1.00  0.00     0.002 C 
ATOM     41  C   UNL     1     -18.837   0.455  -8.949  1.00  0.00     0.004 C 
ENDBRANCH  38  40
ENDBRANCH  32  38
ENDBRANCH  29  32
ENDBRANCH  23  26
ENDBRANCH   1  22
TORSDOF 4
ENDMDL
MODEL 38
REMARK VINA RESULT:    -5.655      9.473     14.256
REMARK INTER + INTRA:         -10.832
REMARK INTER:                  -9.730
REMARK INTRA:                  -1.103
REMARK UNBOUND:                -1.210
REMARK SMILES CC[C@H](C)[C@@H]1NC(=O)[C@H]2CSC(=N2)[C@@H]([C@@H](C)CC)NC(=O)c2csc(n2)CNC(=O)[C@H]2N=C1O[C@@H]2C
REMARK SMILES IDX 27 1 25 2 22 3 26 4 23 5 24 6 20 7 19 8 21 9 14 11 12 12
REMARK SMILES IDX 11 13 10 14 13 15 9 16 15 18 16 19 17 20 18 21 28 22 29 23
REMARK SMILES IDX 30 24 31 26 32 27 35 28 33 29 34 30 36 31 5 32 6 33 7 34
REMARK SMILES IDX 8 35 3 38 4 39 2 40 1 41
REMARK H PARENT 19 10 28 25 6 36
REMARK Flexibility Score:   91.900
ROOT
ATOM      1  C   UNL     1     -14.003   0.470  -0.327  1.00  0.00     0.183 C 
ENDROOT
BRANCH   1   2
ATOM      2  C   UNL     1     -14.880   1.257   0.604  1.00  0.00     0.113 A 
ATOM      3  C   UNL     1     -16.664   2.367   1.349  1.00  0.00     0.139 A 
ATOM      4  N   UNL     1     -16.150   1.526   0.360  1.00  0.00    -0.234 NA
ATOM      5  C   UNL     1     -15.773   2.671   2.360  1.00  0.00     0.101 A 
ATOM      6  S   UNL     1     -14.261   1.916   2.063  1.00  0.00    -0.125 S 
BRANCH   3   7
ATOM      7  C   UNL     1     -18.030   2.882   1.236  1.00  0.00     0.271 C 
ATOM      8  N   UNL     1     -18.045   4.193   0.831  1.00  0.00    -0.341 N 
ATOM      9  O   UNL     1     -19.028   2.226   1.506  1.00  0.00    -0.267 OA
ATOM     10  H   UNL     1     -17.134   4.600   0.621  1.00  0.00     0.164 HD
BRANCH   8  11
ATOM     11  C   UNL     1     -19.235   5.028   0.809  1.00  0.00     0.140 C 
BRANCH  11  12
ATOM     12  C   UNL     1     -20.146   4.517  -0.311  1.00  0.00     0.091 C 
ATOM     13  S   UNL     1     -21.819   4.126   0.014  1.00  0.00    -0.106 SA
ATOM     14  C   UNL     1     -22.150   4.010  -1.757  1.00  0.00     0.113 C 
ATOM     15  N   UNL     1     -19.702   4.288  -1.507  1.00  0.00    -0.267 NA
ATOM     16  C   UNL     1     -20.786   3.696  -2.353  1.00  0.00     0.205 CG0
ATOM     17  G   UNL     1     -20.596   2.178  -2.506  1.00  0.00     0.000 G0
ENDBRANCH  11  12
BRANCH  11  18
ATOM     18  C   UNL     1     -19.894   5.224   2.198  1.00  0.00     0.015 C 
ATOM     19  C   UNL     1     -18.824   5.264   3.297  1.00  0.00     0.010 C 
BRANCH  18  20
ATOM     20  C   UNL     1     -20.848   6.432   2.295  1.00  0.00     0.002 C 
ATOM     21  C   UNL     1     -20.297   7.681   1.616  1.00  0.00     0.004 C 
ENDBRANCH  18  20
ENDBRANCH  11  18
ENDBRANCH   8  11
ENDBRANCH   3   7
ENDBRANCH   1   2
BRANCH   1  22
ATOM     22  N   UNL     1     -14.667   0.422  -1.610  1.00  0.00    -0.348 N 
ATOM     23  C   UNL     1     -14.916  -0.723  -2.316  1.00  0.00     0.249 C 
ATOM     24  O   UNL     1     -14.673  -1.845  -1.886  1.00  0.00    -0.272 OA
ATOM     25  H   UNL     1     -14.894   1.302  -2.072  1.00  0.00     0.163 HD
BRANCH  23  26
ATOM     26  C   UNL     1     -15.586  -0.453  -3.672  1.00  0.00     0.238 C 
ATOM     27  N   UNL     1     -17.009  -0.887  -3.612  1.00  0.00    -0.236 NA
ATOM     28  C   UNL     1     -15.627   1.030  -4.001  1.00  0.00     0.206 C 
ATOM     29  C   UNL     1     -17.665   0.234  -3.657  1.00  0.00     0.208 C 
ATOM     30  O   UNL     1     -16.983   1.401  -3.757  1.00  0.00    -0.474 OA
ATOM     31  C   UNL     1     -15.299   1.314  -5.461  1.00  0.00     0.056 C 
BRANCH  29  32
ATOM     32  C   UNL     1     -19.178   0.402  -3.555  1.00  0.00     0.171 C 
BRANCH  32  33
ATOM     33  N   UNL     1     -19.532   1.792  -3.312  1.00  0.00    -0.342 N 
ATOM     34  C   UNL     1     -20.604   2.159  -2.534  1.00  0.00     0.246 CG0
ATOM     35  O   UNL     1     -21.358   1.346  -2.006  1.00  0.00    -0.273 OA
ATOM     36  H   UNL     1     -19.013   2.548  -3.746  1.00  0.00     0.164 HD
ATOM     37  G   UNL     1     -20.770   3.676  -2.355  1.00  0.00     0.000 G0
ENDBRANCH  32  33
BRANCH  32  38
ATOM     38  C   UNL     1     -19.875  -0.178  -4.814  1.00  0.00     0.017 C 
ATOM     39  C   UNL     1     -21.033  -1.094  -4.401  1.00  0.00     0.010 C 
BRANCH  38  40
ATOM     40  C   UNL     1     -20.340   0.916  -5.803  1.00  0.00     0.002 C 
ATOM     41  C   UNL     1     -20.508   0.414  -7.232  1.00  0.00     0.004 C 
ENDBRANCH  38  40
ENDBRANCH  32  38
ENDBRANCH  29  32
ENDBRANCH  23  26
ENDBRANCH   1  22
TORSDOF 4
ENDMDL
MODEL 39
REMARK VINA RESULT:    -5.655      5.231     10.395
REMARK INTER + INTRA:         -10.832
REMARK INTER:                 -10.158
REMARK INTRA:                  -0.673
REMARK UNBOUND:                -1.210
REMARK SMILES CC[C@H](C)[C@@H]1NC(=O)[C@H]2CSC(=N2)[C@@H]([C@@H](C)CC)NC(=O)c2csc(n2)CNC(=O)[C@H]2N=C1O[C@@H]2C
REMARK SMILES IDX 27 1 25 2 22 3 26 4 23 5 24 6 20 7 19 8 21 9 14 11 12 12
REMARK SMILES IDX 11 13 10 14 13 15 9 16 15 18 16 19 17 20 18 21 28 22 29 23
REMARK SMILES IDX 30 24 31 26 32 27 35 28 33 29 34 30 36 31 5 32 6 33 7 34
REMARK SMILES IDX 8 35 3 38 4 39 2 40 1 41
REMARK H PARENT 19 10 28 25 6 36
REMARK Flexibility Score:   91.900
ROOT
ATOM      1  C   UNL     1      -9.730   1.047   0.820  1.00  0.00     0.183 C 
ENDROOT
BRANCH   1   2
ATOM      2  C   UNL     1     -11.199   1.219   1.077  1.00  0.00     0.113 A 
ATOM      3  C   UNL     1     -13.399   1.153   0.726  1.00  0.00     0.139 A 
ATOM      4  N   UNL     1     -12.141   0.733   0.289  1.00  0.00    -0.234 NA
ATOM      5  C   UNL     1     -13.380   1.908   1.883  1.00  0.00     0.101 A 
ATOM      6  S   UNL     1     -11.765   2.121   2.424  1.00  0.00    -0.125 S 
BRANCH   3   7
ATOM      7  C   UNL     1     -14.594   0.819  -0.052  1.00  0.00     0.271 C 
ATOM      8  N   UNL     1     -15.132   1.930  -0.654  1.00  0.00    -0.341 N 
ATOM      9  O   UNL     1     -15.067  -0.308  -0.122  1.00  0.00    -0.267 OA
ATOM     10  H   UNL     1     -14.613   2.797  -0.523  1.00  0.00     0.164 HD
BRANCH   8  11
ATOM     11  C   UNL     1     -16.417   1.948  -1.334  1.00  0.00     0.140 C 
BRANCH  11  12
ATOM     12  C   UNL     1     -16.250   1.226  -2.674  1.00  0.00     0.091 C 
ATOM     13  S   UNL     1     -17.199  -0.195  -3.041  1.00  0.00    -0.106 SA
ATOM     14  C   UNL     1     -16.671  -0.118  -4.766  1.00  0.00     0.113 C 
ATOM     15  N   UNL     1     -15.360   1.589  -3.543  1.00  0.00    -0.267 NA
ATOM     16  C   UNL     1     -15.354   0.640  -4.701  1.00  0.00     0.205 CG0
ATOM     17  G   UNL     1     -14.170  -0.336  -4.604  1.00  0.00     0.000 G0
ENDBRANCH  11  12
BRANCH  11  18
ATOM     18  C   UNL     1     -17.606   1.492  -0.449  1.00  0.00     0.015 C 
ATOM     19  C   UNL     1     -17.404   1.959   0.999  1.00  0.00     0.010 C 
BRANCH  18  20
ATOM     20  C   UNL     1     -18.997   1.892  -0.982  1.00  0.00     0.002 C 
ATOM     21  C   UNL     1     -19.861   2.580   0.068  1.00  0.00     0.004 C 
ENDBRANCH  18  20
ENDBRANCH  11  18
ENDBRANCH   8  11
ENDBRANCH   3   7
ENDBRANCH   1   2
BRANCH   1  22
ATOM     22  N   UNL     1      -9.532   1.096  -0.611  1.00  0.00    -0.348 N 
ATOM     23  C   UNL     1      -9.535   0.004  -1.436  1.00  0.00     0.249 C 
ATOM     24  O   UNL     1      -9.794  -1.130  -1.049  1.00  0.00    -0.272 OA
ATOM     25  H   UNL     1      -9.287   1.990  -1.036  1.00  0.00     0.163 HD
BRANCH  23  26
ATOM     26  C   UNL     1      -9.243   0.364  -2.901  1.00  0.00     0.238 C 
ATOM     27  N   UNL     1      -9.817  -0.685  -3.788  1.00  0.00    -0.236 NA
ATOM     28  C   UNL     1      -9.918   1.661  -3.314  1.00  0.00     0.206 C 
ATOM     29  C   UNL     1     -10.796  -0.070  -4.382  1.00  0.00     0.208 C 
ATOM     30  O   UNL     1     -11.028   1.237  -4.103  1.00  0.00    -0.474 OA
ATOM     31  C   UNL     1      -9.018   2.540  -4.172  1.00  0.00     0.056 C 
BRANCH  29  32
ATOM     32  C   UNL     1     -11.792  -0.686  -5.360  1.00  0.00     0.171 C 
BRANCH  32  33
ATOM     33  N   UNL     1     -13.044   0.054  -5.363  1.00  0.00    -0.342 N 
ATOM     34  C   UNL     1     -14.127  -0.321  -4.604  1.00  0.00     0.246 CG0
ATOM     35  O   UNL     1     -14.131  -1.319  -3.888  1.00  0.00    -0.273 OA
ATOM     36  H   UNL     1     -13.174   0.862  -5.962  1.00  0.00     0.164 HD
ATOM     37  G   UNL     1     -15.333   0.628  -4.703  1.00  0.00     0.000 G0
ENDBRANCH  32  33
BRANCH  32  38
ATOM     38  C   UNL     1     -11.164  -0.797  -6.775  1.00  0.00     0.017 C 
ATOM     39  C   UNL     1     -12.261  -0.733  -7.845  1.00  0.00     0.010 C 
BRANCH  38  40
ATOM     40  C   UNL     1     -10.060   0.255  -7.029  1.00  0.00     0.002 C 
ATOM     41  C   UNL     1     -10.596   1.598  -7.508  1.00  0.00     0.004 C 
ENDBRANCH  38  40
ENDBRANCH  32  38
ENDBRANCH  29  32
ENDBRANCH  23  26
ENDBRANCH   1  22
TORSDOF 4
ENDMDL
MODEL 40
REMARK VINA RESULT:    -5.610      7.896     11.333
REMARK INTER + INTRA:         -10.756
REMARK INTER:                  -9.178
REMARK INTRA:                  -1.578
REMARK UNBOUND:                -1.210
REMARK SMILES CC[C@H](C)[C@@H]1NC(=O)[C@H]2CSC(=N2)[C@@H]([C@@H](C)CC)NC(=O)c2csc(n2)CNC(=O)[C@H]2N=C1O[C@@H]2C
REMARK SMILES IDX 27 1 25 2 22 3 26 4 23 5 24 6 20 7 19 8 21 9 14 11 12 12
REMARK SMILES IDX 11 13 10 14 13 15 9 16 15 18 16 19 17 20 18 21 28 22 29 23
REMARK SMILES IDX 30 24 31 26 32 27 35 28 33 29 34 30 36 31 5 32 6 33 7 34
REMARK SMILES IDX 8 35 3 38 4 39 2 40 1 41
REMARK H PARENT 19 10 28 25 6 36
REMARK Flexibility Score:   91.900
ROOT
ATOM      1  C   UNL     1     -18.870   1.830  -1.494  1.00  0.00     0.183 C 
ENDROOT
BRANCH   1   2
ATOM      2  C   UNL     1     -19.669   1.493  -2.720  1.00  0.00     0.113 A 
ATOM      3  C   UNL     1     -20.348   1.532  -4.842  1.00  0.00     0.139 A 
ATOM      4  N   UNL     1     -19.358   1.910  -3.934  1.00  0.00    -0.234 NA
ATOM      5  C   UNL     1     -21.369   0.779  -4.295  1.00  0.00     0.101 A 
ATOM      6  S   UNL     1     -21.104   0.558  -2.614  1.00  0.00    -0.125 S 
BRANCH   3   7
ATOM      7  C   UNL     1     -20.269   1.970  -6.237  1.00  0.00     0.271 C 
ATOM      8  N   UNL     1     -19.569   1.075  -7.009  1.00  0.00    -0.341 N 
ATOM      9  O   UNL     1     -20.741   3.022  -6.648  1.00  0.00    -0.267 OA
ATOM     10  H   UNL     1     -19.256   0.231  -6.531  1.00  0.00     0.164 HD
BRANCH   8  11
ATOM     11  C   UNL     1     -19.165   1.323  -8.384  1.00  0.00     0.140 C 
BRANCH  11  12
ATOM     12  C   UNL     1     -17.635   1.395  -8.418  1.00  0.00     0.091 C 
ATOM     13  S   UNL     1     -16.743   0.690  -9.746  1.00  0.00    -0.106 SA
ATOM     14  C   UNL     1     -15.237   1.514  -9.188  1.00  0.00     0.113 C 
ATOM     15  N   UNL     1     -16.950   1.906  -7.444  1.00  0.00    -0.267 NA
ATOM     16  C   UNL     1     -15.485   1.742  -7.705  1.00  0.00     0.205 CG0
ATOM     17  G   UNL     1     -14.906   0.586  -6.873  1.00  0.00     0.000 G0
ENDBRANCH  11  12
BRANCH  11  18
ATOM     18  C   UNL     1     -19.833   0.380  -9.417  1.00  0.00     0.015 C 
ATOM     19  C   UNL     1     -20.767  -0.612  -8.710  1.00  0.00     0.010 C 
BRANCH  18  20
ATOM     20  C   UNL     1     -20.550   1.100 -10.577  1.00  0.00     0.002 C 
ATOM     21  C   UNL     1     -19.885   2.417 -10.962  1.00  0.00     0.004 C 
ENDBRANCH  18  20
ENDBRANCH  11  18
ENDBRANCH   8  11
ENDBRANCH   3   7
ENDBRANCH   1   2
BRANCH   1  22
ATOM     22  N   UNL     1     -17.671   1.023  -1.524  1.00  0.00    -0.348 N 
ATOM     23  C   UNL     1     -16.406   1.511  -1.714  1.00  0.00     0.249 C 
ATOM     24  O   UNL     1     -16.153   2.708  -1.795  1.00  0.00    -0.272 OA
ATOM     25  H   UNL     1     -17.768   0.009  -1.488  1.00  0.00     0.163 HD
BRANCH  23  26
ATOM     26  C   UNL     1     -15.341   0.406  -1.754  1.00  0.00     0.238 C 
ATOM     27  N   UNL     1     -15.219  -0.110  -3.145  1.00  0.00    -0.236 NA
ATOM     28  C   UNL     1     -13.962   0.932  -1.393  1.00  0.00     0.206 C 
ATOM     29  C   UNL     1     -14.045   0.308  -3.516  1.00  0.00     0.208 C 
ATOM     30  O   UNL     1     -13.284   1.015  -2.646  1.00  0.00    -0.474 OA
ATOM     31  C   UNL     1     -13.192  -0.020  -0.486  1.00  0.00     0.056 C 
BRANCH  29  32
ATOM     32  C   UNL     1     -13.416   0.130  -4.895  1.00  0.00     0.171 C 
BRANCH  32  33
ATOM     33  N   UNL     1     -14.026   1.028  -5.864  1.00  0.00    -0.342 N 
ATOM     34  C   UNL     1     -14.902   0.591  -6.829  1.00  0.00     0.246 CG0
ATOM     35  O   UNL     1     -15.216  -0.589  -6.965  1.00  0.00    -0.273 OA
ATOM     36  H   UNL     1     -13.794   2.015  -5.883  1.00  0.00     0.164 HD
ATOM     37  G   UNL     1     -15.480   1.706  -7.715  1.00  0.00     0.000 G0
ENDBRANCH  32  33
BRANCH  32  38
ATOM     38  C   UNL     1     -11.876   0.301  -4.815  1.00  0.00     0.017 C 
ATOM     39  C   UNL     1     -11.216  -1.037  -4.458  1.00  0.00     0.010 C 
BRANCH  38  40
ATOM     40  C   UNL     1     -11.269   0.910  -6.100  1.00  0.00     0.002 C 
ATOM     41  C   UNL     1     -10.139   0.078  -6.693  1.00  0.00     0.004 C 
ENDBRANCH  38  40
ENDBRANCH  32  38
ENDBRANCH  29  32
ENDBRANCH  23  26
ENDBRANCH   1  22
TORSDOF 4
ENDMDL
MODEL 41
REMARK VINA RESULT:    -5.592      2.499      8.378
REMARK INTER + INTRA:         -10.725
REMARK INTER:                 -10.113
REMARK INTRA:                  -0.612
REMARK UNBOUND:                -1.210
REMARK SMILES CC[C@H](C)[C@@H]1NC(=O)[C@H]2CSC(=N2)[C@@H]([C@@H](C)CC)NC(=O)c2csc(n2)CNC(=O)[C@H]2N=C1O[C@@H]2C
REMARK SMILES IDX 27 1 25 2 22 3 26 4 23 5 24 6 20 7 19 8 21 9 14 11 12 12
REMARK SMILES IDX 11 13 10 14 13 15 9 16 15 18 16 19 17 20 18 21 28 22 29 23
REMARK SMILES IDX 30 24 31 26 32 27 35 28 33 29 34 30 36 31 5 32 6 33 7 34
REMARK SMILES IDX 8 35 3 38 4 39 2 40 1 41
REMARK H PARENT 19 10 28 25 6 36
REMARK Flexibility Score:   91.900
ROOT
ATOM      1  C   UNL     1      -3.310   2.810  -3.843  1.00  0.00     0.183 C 
ENDROOT
BRANCH   1   2
ATOM      2  C   UNL     1      -4.301   2.448  -2.775  1.00  0.00     0.113 A 
ATOM      3  C   UNL     1      -6.187   1.712  -1.843  1.00  0.00     0.139 A 
ATOM      4  N   UNL     1      -5.427   1.800  -3.011  1.00  0.00    -0.234 NA
ATOM      5  C   UNL     1      -5.582   2.252  -0.725  1.00  0.00     0.101 A 
ATOM      6  S   UNL     1      -4.049   2.903  -1.139  1.00  0.00    -0.125 S 
BRANCH   3   7
ATOM      7  C   UNL     1      -7.527   1.121  -1.883  1.00  0.00     0.271 C 
ATOM      8  N   UNL     1      -8.498   2.049  -1.599  1.00  0.00    -0.341 N 
ATOM      9  O   UNL     1      -7.741  -0.063  -2.110  1.00  0.00    -0.267 OA
ATOM     10  H   UNL     1      -8.168   3.002  -1.454  1.00  0.00     0.164 HD
BRANCH   8  11
ATOM     11  C   UNL     1      -9.898   1.725  -1.380  1.00  0.00     0.140 C 
BRANCH  11  12
ATOM     12  C   UNL     1     -10.468   1.191  -2.698  1.00  0.00     0.091 C 
ATOM     13  S   UNL     1     -11.376  -0.302  -2.732  1.00  0.00    -0.106 SA
ATOM     14  C   UNL     1     -11.909   0.046  -4.421  1.00  0.00     0.113 C 
ATOM     15  N   UNL     1     -10.240   1.776  -3.832  1.00  0.00    -0.267 NA
ATOM     16  C   UNL     1     -10.828   0.975  -4.951  1.00  0.00     0.205 CG0
ATOM     17  G   UNL     1      -9.738   0.178  -5.686  1.00  0.00     0.000 G0
ENDBRANCH  11  12
BRANCH  11  18
ATOM     18  C   UNL     1     -10.157   0.863  -0.118  1.00  0.00     0.015 C 
ATOM     19  C   UNL     1      -9.092   1.145   0.950  1.00  0.00     0.010 C 
BRANCH  18  20
ATOM     20  C   UNL     1     -11.581   0.979   0.461  1.00  0.00     0.002 C 
ATOM     21  C   UNL     1     -12.058   2.422   0.583  1.00  0.00     0.004 C 
ENDBRANCH  18  20
ENDBRANCH  11  18
ENDBRANCH   8  11
ENDBRANCH   3   7
ENDBRANCH   1   2
BRANCH   1  22
ATOM     22  N   UNL     1      -4.006   2.773  -5.110  1.00  0.00    -0.348 N 
ATOM     23  C   UNL     1      -3.891   1.769  -6.033  1.00  0.00     0.249 C 
ATOM     24  O   UNL     1      -3.241   0.748  -5.839  1.00  0.00    -0.272 OA
ATOM     25  H   UNL     1      -4.558   3.584  -5.384  1.00  0.00     0.163 HD
BRANCH  23  26
ATOM     26  C   UNL     1      -4.708   2.035  -7.306  1.00  0.00     0.238 C 
ATOM     27  N   UNL     1      -5.518   0.827  -7.631  1.00  0.00    -0.236 NA
ATOM     28  C   UNL     1      -5.713   3.158  -7.113  1.00  0.00     0.206 C 
ATOM     29  C   UNL     1      -6.737   1.215  -7.399  1.00  0.00     0.208 C 
ATOM     30  O   UNL     1      -6.964   2.485  -6.983  1.00  0.00    -0.474 OA
ATOM     31  C   UNL     1      -5.785   4.091  -8.315  1.00  0.00     0.056 C 
BRANCH  29  32
ATOM     32  C   UNL     1      -7.993   0.354  -7.494  1.00  0.00     0.171 C 
BRANCH  32  33
ATOM     33  N   UNL     1      -9.068   0.913  -6.689  1.00  0.00    -0.342 N 
ATOM     34  C   UNL     1      -9.738   0.181  -5.737  1.00  0.00     0.246 CG0
ATOM     35  O   UNL     1      -9.500  -1.003  -5.512  1.00  0.00    -0.273 OA
ATOM     36  H   UNL     1      -9.388   1.865  -6.830  1.00  0.00     0.164 HD
ATOM     37  G   UNL     1     -10.798   0.973  -4.955  1.00  0.00     0.000 G0
ENDBRANCH  32  33
BRANCH  32  38
ATOM     38  C   UNL     1      -8.403   0.155  -8.977  1.00  0.00     0.017 C 
ATOM     39  C   UNL     1      -9.596   1.057  -9.319  1.00  0.00     0.010 C 
BRANCH  38  40
ATOM     40  C   UNL     1      -7.229   0.366  -9.961  1.00  0.00     0.002 C 
ATOM     41  C   UNL     1      -7.407  -0.360 -11.287  1.00  0.00     0.004 C 
ENDBRANCH  38  40
ENDBRANCH  32  38
ENDBRANCH  29  32
ENDBRANCH  23  26
ENDBRANCH   1  22
TORSDOF 4
ENDMDL
MODEL 42
REMARK VINA RESULT:    -5.582      2.127      5.462
REMARK INTER + INTRA:         -10.709
REMARK INTER:                 -10.399
REMARK INTRA:                  -0.310
REMARK UNBOUND:                -1.210
REMARK SMILES CC[C@H](C)[C@@H]1NC(=O)[C@H]2CSC(=N2)[C@@H]([C@@H](C)CC)NC(=O)c2csc(n2)CNC(=O)[C@H]2N=C1O[C@@H]2C
REMARK SMILES IDX 27 1 25 2 22 3 26 4 23 5 24 6 20 7 19 8 21 9 14 11 12 12
REMARK SMILES IDX 11 13 10 14 13 15 9 16 15 18 16 19 17 20 18 21 28 22 29 23
REMARK SMILES IDX 30 24 31 26 32 27 35 28 33 29 34 30 36 31 5 32 6 33 7 34
REMARK SMILES IDX 8 35 3 38 4 39 2 40 1 41
REMARK H PARENT 19 10 28 25 6 36
REMARK Flexibility Score:   91.900
ROOT
ATOM      1  C   UNL     1      -2.975   1.558  -2.810  1.00  0.00     0.183 C 
ENDROOT
BRANCH   1   2
ATOM      2  C   UNL     1      -3.458   1.731  -4.221  1.00  0.00     0.113 A 
ATOM      3  C   UNL     1      -4.862   1.802  -5.950  1.00  0.00     0.139 A 
ATOM      4  N   UNL     1      -4.734   1.737  -4.561  1.00  0.00    -0.234 NA
ATOM      5  C   UNL     1      -3.664   1.903  -6.631  1.00  0.00     0.101 A 
ATOM      6  S   UNL     1      -2.353   1.893  -5.524  1.00  0.00    -0.125 S 
BRANCH   3   7
ATOM      7  C   UNL     1      -6.187   1.720  -6.569  1.00  0.00     0.271 C 
ATOM      8  N   UNL     1      -6.270   0.672  -7.452  1.00  0.00    -0.341 N 
ATOM      9  O   UNL     1      -7.092   2.514  -6.345  1.00  0.00    -0.267 OA
ATOM     10  H   UNL     1      -5.441   0.082  -7.515  1.00  0.00     0.164 HD
BRANCH   8  11
ATOM     11  C   UNL     1      -7.389   0.448  -8.352  1.00  0.00     0.140 C 
BRANCH  11  12
ATOM     12  C   UNL     1      -8.671   0.442  -7.514  1.00  0.00     0.091 C 
ATOM     13  S   UNL     1     -10.102   1.274  -8.076  1.00  0.00    -0.106 SA
ATOM     14  C   UNL     1     -11.087   0.475  -6.790  1.00  0.00     0.113 C 
ATOM     15  N   UNL     1      -8.723  -0.108  -6.342  1.00  0.00    -0.267 NA
ATOM     16  C   UNL     1     -10.062   0.133  -5.719  1.00  0.00     0.205 CG0
ATOM     17  G   UNL     1      -9.984   1.251  -4.666  1.00  0.00     0.000 G0
ENDBRANCH  11  12
BRANCH  11  18
ATOM     18  C   UNL     1      -7.387   1.367  -9.601  1.00  0.00     0.015 C 
ATOM     19  C   UNL     1      -6.009   2.016  -9.785  1.00  0.00     0.010 C 
BRANCH  18  20
ATOM     20  C   UNL     1      -7.868   0.689 -10.900  1.00  0.00     0.002 C 
ATOM     21  C   UNL     1      -6.776  -0.123 -11.588  1.00  0.00     0.004 C 
ENDBRANCH  18  20
ENDBRANCH  11  18
ENDBRANCH   8  11
ENDBRANCH   3   7
ENDBRANCH   1   2
BRANCH   1  22
ATOM     22  N   UNL     1      -4.108   1.765  -1.936  1.00  0.00    -0.348 N 
ATOM     23  C   UNL     1      -4.939   0.774  -1.488  1.00  0.00     0.249 C 
ATOM     24  O   UNL     1      -4.752  -0.415  -1.720  1.00  0.00    -0.272 OA
ATOM     25  H   UNL     1      -4.367   2.721  -1.697  1.00  0.00     0.163 HD
BRANCH  23  26
ATOM     26  C   UNL     1      -6.087   1.308  -0.619  1.00  0.00     0.238 C 
ATOM     27  N   UNL     1      -6.979   2.160  -1.453  1.00  0.00    -0.236 NA
ATOM     28  C   UNL     1      -6.970   0.189  -0.094  1.00  0.00     0.206 C 
ATOM     29  C   UNL     1      -8.069   1.458  -1.538  1.00  0.00     0.208 C 
ATOM     30  O   UNL     1      -8.142   0.261  -0.905  1.00  0.00    -0.474 OA
ATOM     31  C   UNL     1      -7.373   0.396   1.360  1.00  0.00     0.056 C 
BRANCH  29  32
ATOM     32  C   UNL     1      -9.315   1.815  -2.344  1.00  0.00     0.171 C 
BRANCH  32  33
ATOM     33  N   UNL     1      -9.518   0.870  -3.432  1.00  0.00    -0.342 N 
ATOM     34  C   UNL     1      -9.963   1.255  -4.674  1.00  0.00     0.246 CG0
ATOM     35  O   UNL     1     -10.246   2.417  -4.954  1.00  0.00    -0.273 OA
ATOM     36  H   UNL     1      -9.372  -0.124  -3.296  1.00  0.00     0.164 HD
ATOM     37  G   UNL     1     -10.054   0.113  -5.699  1.00  0.00     0.000 G0
ENDBRANCH  32  33
BRANCH  32  38
ATOM     38  C   UNL     1     -10.551   1.924  -1.413  1.00  0.00     0.017 C 
ATOM     39  C   UNL     1     -11.030   3.380  -1.343  1.00  0.00     0.010 C 
BRANCH  38  40
ATOM     40  C   UNL     1     -11.696   0.967  -1.816  1.00  0.00     0.002 C 
ATOM     41  C   UNL     1     -13.067   1.416  -1.327  1.00  0.00     0.004 C 
ENDBRANCH  38  40
ENDBRANCH  32  38
ENDBRANCH  29  32
ENDBRANCH  23  26
ENDBRANCH   1  22
TORSDOF 4
ENDMDL
MODEL 43
REMARK VINA RESULT:    -5.567      2.691      7.817
REMARK INTER + INTRA:         -10.682
REMARK INTER:                  -9.624
REMARK INTRA:                  -1.058
REMARK UNBOUND:                -1.210
REMARK SMILES CC[C@H](C)[C@@H]1NC(=O)[C@H]2CSC(=N2)[C@@H]([C@@H](C)CC)NC(=O)c2csc(n2)CNC(=O)[C@H]2N=C1O[C@@H]2C
REMARK SMILES IDX 27 1 25 2 22 3 26 4 23 5 24 6 20 7 19 8 21 9 14 11 12 12
REMARK SMILES IDX 11 13 10 14 13 15 9 16 15 18 16 19 17 20 18 21 28 22 29 23
REMARK SMILES IDX 30 24 31 26 32 27 35 28 33 29 34 30 36 31 5 32 6 33 7 34
REMARK SMILES IDX 8 35 3 38 4 39 2 40 1 41
REMARK H PARENT 19 10 28 25 6 36
REMARK Flexibility Score:   91.900
ROOT
ATOM      1  C   UNL     1      -5.636   0.731   0.058  1.00  0.00     0.183 C 
ENDROOT
BRANCH   1   2
ATOM      2  C   UNL     1      -7.127   0.606  -0.071  1.00  0.00     0.113 A 
ATOM      3  C   UNL     1      -9.195   0.983  -0.810  1.00  0.00     0.139 A 
ATOM      4  N   UNL     1      -7.831   1.191  -1.023  1.00  0.00    -0.234 NA
ATOM      5  C   UNL     1      -9.490   0.187   0.279  1.00  0.00     0.101 A 
ATOM      6  S   UNL     1      -8.044  -0.293   1.069  1.00  0.00    -0.125 S 
BRANCH   3   7
ATOM      7  C   UNL     1     -10.179   1.623  -1.686  1.00  0.00     0.271 C 
ATOM      8  N   UNL     1     -10.889   0.698  -2.411  1.00  0.00    -0.341 N 
ATOM      9  O   UNL     1     -10.319   2.836  -1.779  1.00  0.00    -0.267 OA
ATOM     10  H   UNL     1     -10.677  -0.278  -2.208  1.00  0.00     0.164 HD
BRANCH   8  11
ATOM     11  C   UNL     1     -11.799   1.033  -3.494  1.00  0.00     0.140 C 
BRANCH  11  12
ATOM     12  C   UNL     1     -11.019   0.942  -4.809  1.00  0.00     0.091 C 
ATOM     13  S   UNL     1     -11.181  -0.458  -5.842  1.00  0.00    -0.106 SA
ATOM     14  C   UNL     1     -10.312   0.404  -7.169  1.00  0.00     0.113 C 
ATOM     15  N   UNL     1     -10.165   1.850  -5.165  1.00  0.00    -0.267 NA
ATOM     16  C   UNL     1      -9.481   1.443  -6.432  1.00  0.00     0.205 CG0
ATOM     17  G   UNL     1      -8.069   0.907  -6.146  1.00  0.00     0.000 G0
ENDBRANCH  11  12
BRANCH  11  18
ATOM     18  C   UNL     1     -13.149   0.272  -3.440  1.00  0.00     0.015 C 
ATOM     19  C   UNL     1     -13.028  -0.971  -2.550  1.00  0.00     0.010 C 
BRANCH  18  20
ATOM     20  C   UNL     1     -14.361   1.137  -3.038  1.00  0.00     0.002 C 
ATOM     21  C   UNL     1     -15.434   0.350  -2.295  1.00  0.00     0.004 C 
ENDBRANCH  18  20
ENDBRANCH  11  18
ENDBRANCH   8  11
ENDBRANCH   3   7
ENDBRANCH   1   2
BRANCH   1  22
ATOM     22  N   UNL     1      -5.153   1.392  -1.134  1.00  0.00    -0.348 N 
ATOM     23  C   UNL     1      -4.702   0.748  -2.254  1.00  0.00     0.249 C 
ATOM     24  O   UNL     1      -4.742  -0.469  -2.392  1.00  0.00    -0.272 OA
ATOM     25  H   UNL     1      -5.057   2.407  -1.120  1.00  0.00     0.163 HD
BRANCH  23  26
ATOM     26  C   UNL     1      -4.201   1.717  -3.336  1.00  0.00     0.238 C 
ATOM     27  N   UNL     1      -4.205   1.025  -4.655  1.00  0.00    -0.236 NA
ATOM     28  C   UNL     1      -5.124   2.912  -3.502  1.00  0.00     0.206 C 
ATOM     29  C   UNL     1      -5.158   1.624  -5.303  1.00  0.00     0.208 C 
ATOM     30  O   UNL     1      -5.836   2.635  -4.707  1.00  0.00    -0.474 OA
ATOM     31  C   UNL     1      -4.363   4.219  -3.676  1.00  0.00     0.056 C 
BRANCH  29  32
ATOM     32  C   UNL     1      -5.661   1.273  -6.701  1.00  0.00     0.171 C 
BRANCH  32  33
ATOM     33  N   UNL     1      -7.073   1.596  -6.841  1.00  0.00    -0.342 N 
ATOM     34  C   UNL     1      -8.059   0.919  -6.164  1.00  0.00     0.246 CG0
ATOM     35  O   UNL     1      -7.828  -0.025  -5.412  1.00  0.00    -0.273 OA
ATOM     36  H   UNL     1      -7.384   2.319  -7.481  1.00  0.00     0.164 HD
ATOM     37  G   UNL     1      -9.480   1.453  -6.406  1.00  0.00     0.000 G0
ENDBRANCH  32  33
BRANCH  32  38
ATOM     38  C   UNL     1      -4.784   1.959  -7.781  1.00  0.00     0.017 C 
ATOM     39  C   UNL     1      -3.579   1.074  -8.121  1.00  0.00     0.010 C 
BRANCH  38  40
ATOM     40  C   UNL     1      -5.581   2.347  -9.048  1.00  0.00     0.002 C 
ATOM     41  C   UNL     1      -5.913   1.161  -9.945  1.00  0.00     0.004 C 
ENDBRANCH  38  40
ENDBRANCH  32  38
ENDBRANCH  29  32
ENDBRANCH  23  26
ENDBRANCH   1  22
TORSDOF 4
ENDMDL
MODEL 44
REMARK VINA RESULT:    -5.513      6.095     11.181
REMARK INTER + INTRA:         -10.590
REMARK INTER:                  -9.227
REMARK INTRA:                  -1.363
REMARK UNBOUND:                -1.210
REMARK SMILES CC[C@H](C)[C@@H]1NC(=O)[C@H]2CSC(=N2)[C@@H]([C@@H](C)CC)NC(=O)c2csc(n2)CNC(=O)[C@H]2N=C1O[C@@H]2C
REMARK SMILES IDX 27 1 25 2 22 3 26 4 23 5 24 6 20 7 19 8 21 9 14 11 12 12
REMARK SMILES IDX 11 13 10 14 13 15 9 16 15 18 16 19 17 20 18 21 28 22 29 23
REMARK SMILES IDX 30 24 31 26 32 27 35 28 33 29 34 30 36 31 5 32 6 33 7 34
REMARK SMILES IDX 8 35 3 38 4 39 2 40 1 41
REMARK H PARENT 19 10 28 25 6 36
REMARK Flexibility Score:   91.900
ROOT
ATOM      1  C   UNL     1      -8.929   1.164  -7.111  1.00  0.00     0.183 C 
ENDROOT
BRANCH   1   2
ATOM      2  C   UNL     1     -10.362   0.770  -6.890  1.00  0.00     0.113 A 
ATOM      3  C   UNL     1     -12.587   0.880  -6.948  1.00  0.00     0.139 A 
ATOM      4  N   UNL     1     -11.386   1.406  -7.428  1.00  0.00    -0.234 NA
ATOM      5  C   UNL     1     -12.439  -0.194  -6.092  1.00  0.00     0.101 A 
ATOM      6  S   UNL     1     -10.774  -0.540  -5.860  1.00  0.00    -0.125 S 
BRANCH   3   7
ATOM      7  C   UNL     1     -13.861   1.493  -7.330  1.00  0.00     0.271 C 
ATOM      8  N   UNL     1     -14.050   1.462  -8.690  1.00  0.00    -0.341 N 
ATOM      9  O   UNL     1     -14.639   2.000  -6.532  1.00  0.00    -0.267 OA
ATOM     10  H   UNL     1     -13.325   0.985  -9.225  1.00  0.00     0.164 HD
BRANCH   8  11
ATOM     11  C   UNL     1     -15.125   2.155  -9.382  1.00  0.00     0.140 C 
BRANCH  11  12
ATOM     12  C   UNL     1     -14.492   3.070 -10.435  1.00  0.00     0.091 C 
ATOM     13  S   UNL     1     -15.389   3.531 -11.863  1.00  0.00    -0.106 SA
ATOM     14  C   UNL     1     -14.141   4.774 -12.260  1.00  0.00     0.113 C 
ATOM     15  N   UNL     1     -13.263   3.470 -10.347  1.00  0.00    -0.267 NA
ATOM     16  C   UNL     1     -12.891   4.257 -11.565  1.00  0.00     0.205 CG0
ATOM     17  G   UNL     1     -12.045   3.409 -12.529  1.00  0.00     0.000 G0
ENDBRANCH  11  12
BRANCH  11  18
ATOM     18  C   UNL     1     -16.262   1.223  -9.872  1.00  0.00     0.015 C 
ATOM     19  C   UNL     1     -16.151  -0.154  -9.204  1.00  0.00     0.010 C 
BRANCH  18  20
ATOM     20  C   UNL     1     -17.682   1.807  -9.727  1.00  0.00     0.002 C 
ATOM     21  C   UNL     1     -18.772   0.742  -9.775  1.00  0.00     0.004 C 
ENDBRANCH  18  20
ENDBRANCH  11  18
ENDBRANCH   8  11
ENDBRANCH   3   7
ENDBRANCH   1   2
BRANCH   1  22
ATOM     22  N   UNL     1      -8.605   0.862  -8.487  1.00  0.00    -0.348 N 
ATOM     23  C   UNL     1      -7.629   1.489  -9.213  1.00  0.00     0.249 C 
ATOM     24  O   UNL     1      -6.866   2.322  -8.735  1.00  0.00    -0.272 OA
ATOM     25  H   UNL     1      -9.193   0.198  -8.989  1.00  0.00     0.163 HD
BRANCH  23  26
ATOM     26  C   UNL     1      -7.555   0.993 -10.665  1.00  0.00     0.238 C 
ATOM     27  N   UNL     1      -8.877   1.193 -11.320  1.00  0.00    -0.236 NA
ATOM     28  C   UNL     1      -6.565   1.796 -11.491  1.00  0.00     0.206 C 
ATOM     29  C   UNL     1      -8.641   2.135 -12.184  1.00  0.00     0.208 C 
ATOM     30  O   UNL     1      -7.389   2.644 -12.290  1.00  0.00    -0.474 OA
ATOM     31  C   UNL     1      -5.728   0.921 -12.414  1.00  0.00     0.056 C 
BRANCH  29  32
ATOM     32  C   UNL     1      -9.666   2.802 -13.097  1.00  0.00     0.171 C 
BRANCH  32  33
ATOM     33  N   UNL     1     -10.650   3.541 -12.322  1.00  0.00    -0.342 N 
ATOM     34  C   UNL     1     -12.002   3.435 -12.548  1.00  0.00     0.246 CG0
ATOM     35  O   UNL     1     -12.481   2.731 -13.434  1.00  0.00    -0.273 OA
ATOM     36  H   UNL     1     -10.366   4.197 -11.603  1.00  0.00     0.164 HD
ATOM     37  G   UNL     1     -12.875   4.253 -11.582  1.00  0.00     0.000 G0
ENDBRANCH  32  33
BRANCH  32  38
ATOM     38  C   UNL     1      -8.956   3.687 -14.155  1.00  0.00     0.017 C 
ATOM     39  C   UNL     1      -9.242   3.156 -15.565  1.00  0.00     0.010 C 
BRANCH  38  40
ATOM     40  C   UNL     1      -9.315   5.185 -14.027  1.00  0.00     0.002 C 
ATOM     41  C   UNL     1      -9.406   5.907 -15.365  1.00  0.00     0.004 C 
ENDBRANCH  38  40
ENDBRANCH  32  38
ENDBRANCH  29  32
ENDBRANCH  23  26
ENDBRANCH   1  22
TORSDOF 4
ENDMDL
MODEL 45
REMARK VINA RESULT:    -5.501      7.428     11.561
REMARK INTER + INTRA:         -10.570
REMARK INTER:                 -10.128
REMARK INTRA:                  -0.442
REMARK UNBOUND:                -1.210
REMARK SMILES CC[C@H](C)[C@@H]1NC(=O)[C@H]2CSC(=N2)[C@@H]([C@@H](C)CC)NC(=O)c2csc(n2)CNC(=O)[C@H]2N=C1O[C@@H]2C
REMARK SMILES IDX 27 1 25 2 22 3 26 4 23 5 24 6 20 7 19 8 21 9 14 11 12 12
REMARK SMILES IDX 11 13 10 14 13 15 9 16 15 18 16 19 17 20 18 21 28 22 29 23
REMARK SMILES IDX 30 24 31 26 32 27 35 28 33 29 34 30 36 31 5 32 6 33 7 34
REMARK SMILES IDX 8 35 3 38 4 39 2 40 1 41
REMARK H PARENT 19 10 28 25 6 36
REMARK Flexibility Score:   91.900
ROOT
ATOM      1  C   UNL     1     -20.622   2.756  -2.336  1.00  0.00     0.183 C 
ENDROOT
BRANCH   1   2
ATOM      2  C   UNL     1     -19.366   2.522  -1.546  1.00  0.00     0.113 A 
ATOM      3  C   UNL     1     -17.231   2.049  -1.114  1.00  0.00     0.139 A 
ATOM      4  N   UNL     1     -18.176   2.360  -2.095  1.00  0.00    -0.234 NA
ATOM      5  C   UNL     1     -17.727   2.040   0.175  1.00  0.00     0.101 A 
ATOM      6  S   UNL     1     -19.404   2.402   0.166  1.00  0.00    -0.125 S 
BRANCH   3   7
ATOM      7  C   UNL     1     -15.855   1.727  -1.499  1.00  0.00     0.271 C 
ATOM      8  N   UNL     1     -15.380   0.636  -0.813  1.00  0.00    -0.341 N 
ATOM      9  O   UNL     1     -15.205   2.377  -2.308  1.00  0.00    -0.267 OA
ATOM     10  H   UNL     1     -16.047   0.184  -0.189  1.00  0.00     0.164 HD
BRANCH   8  11
ATOM     11  C   UNL     1     -13.996   0.193  -0.841  1.00  0.00     0.140 C 
BRANCH  11  12
ATOM     12  C   UNL     1     -13.604  -0.029  -2.304  1.00  0.00     0.091 C 
ATOM     13  S   UNL     1     -12.254   0.835  -3.002  1.00  0.00    -0.106 SA
ATOM     14  C   UNL     1     -12.301  -0.238  -4.453  1.00  0.00     0.113 C 
ATOM     15  N   UNL     1     -14.290  -0.797  -3.091  1.00  0.00    -0.267 NA
ATOM     16  C   UNL     1     -13.737  -0.736  -4.481  1.00  0.00     0.205 CG0
ATOM     17  G   UNL     1     -14.606   0.160  -5.378  1.00  0.00     0.000 G0
ENDBRANCH  11  12
BRANCH  11  18
ATOM     18  C   UNL     1     -13.037   1.068   0.005  1.00  0.00     0.015 C 
ATOM     19  C   UNL     1     -13.774   1.653   1.217  1.00  0.00     0.010 C 
BRANCH  18  20
ATOM     20  C   UNL     1     -11.728   0.369   0.425  1.00  0.00     0.002 C 
ATOM     21  C   UNL     1     -10.512   1.287   0.350  1.00  0.00     0.004 C 
ENDBRANCH  18  20
ENDBRANCH  11  18
ENDBRANCH   8  11
ENDBRANCH   3   7
ENDBRANCH   1   2
BRANCH   1  22
ATOM     22  N   UNL     1     -20.507   2.001  -3.564  1.00  0.00    -0.348 N 
ATOM     23  C   UNL     1     -20.576   0.637  -3.649  1.00  0.00     0.249 C 
ATOM     24  O   UNL     1     -20.830  -0.085  -2.691  1.00  0.00    -0.272 OA
ATOM     25  H   UNL     1     -20.273   2.501  -4.420  1.00  0.00     0.163 HD
BRANCH  23  26
ATOM     26  C   UNL     1     -20.364   0.118  -5.080  1.00  0.00     0.238 C 
ATOM     27  N   UNL     1     -19.290   0.915  -5.736  1.00  0.00    -0.236 NA
ATOM     28  C   UNL     1     -19.872  -1.319  -5.096  1.00  0.00     0.206 C 
ATOM     29  C   UNL     1     -18.313   0.065  -5.844  1.00  0.00     0.208 C 
ATOM     30  O   UNL     1     -18.483  -1.206  -5.405  1.00  0.00    -0.474 OA
ATOM     31  C   UNL     1     -20.544  -2.154  -6.178  1.00  0.00     0.056 C 
BRANCH  29  32
ATOM     32  C   UNL     1     -16.916   0.356  -6.386  1.00  0.00     0.171 C 
BRANCH  32  33
ATOM     33  N   UNL     1     -15.904  -0.363  -5.627  1.00  0.00    -0.342 N 
ATOM     34  C   UNL     1     -14.655   0.155  -5.382  1.00  0.00     0.246 CG0
ATOM     35  O   UNL     1     -14.288   1.249  -5.804  1.00  0.00    -0.273 OA
ATOM     36  H   UNL     1     -16.077  -1.300  -5.281  1.00  0.00     0.164 HD
ATOM     37  G   UNL     1     -13.755  -0.738  -4.512  1.00  0.00     0.000 G0
ENDBRANCH  32  33
BRANCH  32  38
ATOM     38  C   UNL     1     -16.848   0.051  -7.905  1.00  0.00     0.017 C 
ATOM     39  C   UNL     1     -15.651   0.774  -8.535  1.00  0.00     0.010 C 
BRANCH  38  40
ATOM     40  C   UNL     1     -16.828  -1.463  -8.216  1.00  0.00     0.002 C 
ATOM     41  C   UNL     1     -17.243  -1.798  -9.642  1.00  0.00     0.004 C 
ENDBRANCH  38  40
ENDBRANCH  32  38
ENDBRANCH  29  32
ENDBRANCH  23  26
ENDBRANCH   1  22
TORSDOF 4
ENDMDL
MODEL 46
REMARK VINA RESULT:    -5.356      8.243     12.065
REMARK INTER + INTRA:         -10.324
REMARK INTER:                  -8.900
REMARK INTRA:                  -1.425
REMARK UNBOUND:                -1.210
REMARK SMILES CC[C@H](C)[C@@H]1NC(=O)[C@H]2CSC(=N2)[C@@H]([C@@H](C)CC)NC(=O)c2csc(n2)CNC(=O)[C@H]2N=C1O[C@@H]2C
REMARK SMILES IDX 27 1 25 2 22 3 26 4 23 5 24 6 20 7 19 8 21 9 14 11 12 12
REMARK SMILES IDX 11 13 10 14 13 15 9 16 15 18 16 19 17 20 18 21 28 22 29 23
REMARK SMILES IDX 30 24 31 26 32 27 35 28 33 29 34 30 36 31 5 32 6 33 7 34
REMARK SMILES IDX 8 35 3 38 4 39 2 40 1 41
REMARK H PARENT 19 10 28 25 6 36
REMARK Flexibility Score:   91.900
ROOT
ATOM      1  C   UNL     1     -17.966   3.221  -0.708  1.00  0.00     0.183 C 
ENDROOT
BRANCH   1   2
ATOM      2  C   UNL     1     -19.241   3.136  -1.498  1.00  0.00     0.113 A 
ATOM      3  C   UNL     1     -20.616   2.702  -3.197  1.00  0.00     0.139 A 
ATOM      4  N   UNL     1     -19.344   2.509  -2.655  1.00  0.00    -0.234 NA
ATOM      5  C   UNL     1     -21.474   3.431  -2.396  1.00  0.00     0.101 A 
ATOM      6  S   UNL     1     -20.675   3.907  -0.954  1.00  0.00    -0.125 S 
BRANCH   3   7
ATOM      7  C   UNL     1     -20.933   2.181  -4.529  1.00  0.00     0.271 C 
ATOM      8  N   UNL     1     -20.161   1.089  -4.841  1.00  0.00    -0.341 N 
ATOM      9  O   UNL     1     -21.760   2.686  -5.277  1.00  0.00    -0.267 OA
ATOM     10  H   UNL     1     -19.531   0.770  -4.106  1.00  0.00     0.164 HD
BRANCH   8  11
ATOM     11  C   UNL     1     -20.114   0.472  -6.157  1.00  0.00     0.140 C 
BRANCH  11  12
ATOM     12  C   UNL     1     -18.679   0.589  -6.679  1.00  0.00     0.091 C 
ATOM     13  S   UNL     1     -18.194  -0.249  -8.134  1.00  0.00    -0.106 SA
ATOM     14  C   UNL     1     -16.651   0.688  -8.174  1.00  0.00     0.113 C 
ATOM     15  N   UNL     1     -17.765   1.242  -6.034  1.00  0.00    -0.267 NA
ATOM     16  C   UNL     1     -16.444   1.094  -6.723  1.00  0.00     0.205 CG0
ATOM     17  G   UNL     1     -15.556   0.072  -5.994  1.00  0.00     0.000 G0
ENDBRANCH  11  12
BRANCH  11  18
ATOM     18  C   UNL     1     -20.756  -0.938  -6.214  1.00  0.00     0.015 C 
ATOM     19  C   UNL     1     -21.296  -1.337  -4.835  1.00  0.00     0.010 C 
BRANCH  18  20
ATOM     20  C   UNL     1     -21.825  -1.115  -7.311  1.00  0.00     0.002 C 
ATOM     21  C   UNL     1     -22.098   0.167  -8.090  1.00  0.00     0.004 C 
ENDBRANCH  18  20
ENDBRANCH  11  18
ENDBRANCH   8  11
ENDBRANCH   3   7
ENDBRANCH   1   2
BRANCH   1  22
ATOM     22  N   UNL     1     -17.325   1.928  -0.782  1.00  0.00    -0.348 N 
ATOM     23  C   UNL     1     -16.159   1.598  -0.145  1.00  0.00     0.249 C 
ATOM     24  O   UNL     1     -15.581   2.351   0.631  1.00  0.00    -0.272 OA
ATOM     25  H   UNL     1     -17.711   1.231  -1.417  1.00  0.00     0.163 HD
BRANCH  23  26
ATOM     26  C   UNL     1     -15.693   0.168  -0.458  1.00  0.00     0.238 C 
ATOM     27  N   UNL     1     -15.918  -0.116  -1.902  1.00  0.00    -0.236 NA
ATOM     28  C   UNL     1     -14.201  -0.005  -0.236  1.00  0.00     0.206 C 
ATOM     29  C   UNL     1     -14.712  -0.180  -2.384  1.00  0.00     0.208 C 
ATOM     30  O   UNL     1     -13.653  -0.013  -1.554  1.00  0.00    -0.474 OA
ATOM     31  C   UNL     1     -13.859  -1.326   0.440  1.00  0.00     0.056 C 
BRANCH  29  32
ATOM     32  C   UNL     1     -14.333  -0.379  -3.848  1.00  0.00     0.171 C 
BRANCH  32  33
ATOM     33  N   UNL     1     -15.140   0.466  -4.714  1.00  0.00    -0.342 N 
ATOM     34  C   UNL     1     -15.515   0.086  -5.981  1.00  0.00     0.246 CG0
ATOM     35  O   UNL     1     -15.177  -0.981  -6.488  1.00  0.00    -0.273 OA
ATOM     36  H   UNL     1     -15.427   1.394  -4.421  1.00  0.00     0.164 HD
ATOM     37  G   UNL     1     -16.416   1.097  -6.708  1.00  0.00     0.000 G0
ENDBRANCH  32  33
BRANCH  32  38
ATOM     38  C   UNL     1     -12.811  -0.155  -4.050  1.00  0.00     0.017 C 
ATOM     39  C   UNL     1     -12.088  -1.504  -4.146  1.00  0.00     0.010 C 
BRANCH  38  40
ATOM     40  C   UNL     1     -12.490   0.749  -5.262  1.00  0.00     0.002 C 
ATOM     41  C   UNL     1     -11.012   0.777  -5.627  1.00  0.00     0.004 C 
ENDBRANCH  38  40
ENDBRANCH  32  38
ENDBRANCH  29  32
ENDBRANCH  23  26
ENDBRANCH   1  22
TORSDOF 4
ENDMDL
MODEL 47
REMARK VINA RESULT:    -5.187      7.273     12.277
REMARK INTER + INTRA:         -10.036
REMARK INTER:                  -9.562
REMARK INTRA:                  -0.475
REMARK UNBOUND:                -1.210
REMARK SMILES CC[C@H](C)[C@@H]1NC(=O)[C@H]2CSC(=N2)[C@@H]([C@@H](C)CC)NC(=O)c2csc(n2)CNC(=O)[C@H]2N=C1O[C@@H]2C
REMARK SMILES IDX 27 1 25 2 22 3 26 4 23 5 24 6 20 7 19 8 21 9 14 11 12 12
REMARK SMILES IDX 11 13 10 14 13 15 9 16 15 18 16 19 17 20 18 21 28 22 29 23
REMARK SMILES IDX 30 24 31 26 32 27 35 28 33 29 34 30 36 31 5 32 6 33 7 34
REMARK SMILES IDX 8 35 3 38 4 39 2 40 1 41
REMARK H PARENT 19 10 28 25 6 36
REMARK Flexibility Score:   91.900
ROOT
ATOM      1  C   UNL     1     -11.597  -0.503  -4.742  1.00  0.00     0.183 C 
ENDROOT
BRANCH   1   2
ATOM      2  C   UNL     1     -12.177  -0.105  -3.415  1.00  0.00     0.113 A 
ATOM      3  C   UNL     1     -13.707   0.393  -1.873  1.00  0.00     0.139 A 
ATOM      4  N   UNL     1     -13.467  -0.144  -3.140  1.00  0.00    -0.234 NA
ATOM      5  C   UNL     1     -12.570   0.777  -1.190  1.00  0.00     0.101 A 
ATOM      6  S   UNL     1     -11.177   0.487  -2.151  1.00  0.00    -0.125 S 
BRANCH   3   7
ATOM      7  C   UNL     1     -15.081   0.545  -1.390  1.00  0.00     0.271 C 
ATOM      8  N   UNL     1     -15.286   1.782  -0.829  1.00  0.00    -0.341 N 
ATOM      9  O   UNL     1     -15.926  -0.339  -1.451  1.00  0.00    -0.267 OA
ATOM     10  H   UNL     1     -14.493   2.422  -0.872  1.00  0.00     0.164 HD
BRANCH   8  11
ATOM     11  C   UNL     1     -16.485   2.160  -0.100  1.00  0.00     0.140 C 
BRANCH  11  12
ATOM     12  C   UNL     1     -17.682   1.982  -1.039  1.00  0.00     0.091 C 
ATOM     13  S   UNL     1     -19.125   1.161  -0.491  1.00  0.00    -0.106 SA
ATOM     14  C   UNL     1     -20.015   1.719  -1.959  1.00  0.00     0.113 C 
ATOM     15  N   UNL     1     -17.645   2.359  -2.278  1.00  0.00    -0.267 NA
ATOM     16  C   UNL     1     -18.909   1.962  -2.974  1.00  0.00     0.205 CG0
ATOM     17  G   UNL     1     -18.686   0.714  -3.845  1.00  0.00     0.000 G0
ENDBRANCH  11  12
BRANCH  11  18
ATOM     18  C   UNL     1     -16.604   1.506   1.300  1.00  0.00     0.015 C 
ATOM     19  C   UNL     1     -15.215   1.328   1.927  1.00  0.00     0.010 C 
BRANCH  18  20
ATOM     20  C   UNL     1     -17.570   2.221   2.266  1.00  0.00     0.002 C 
ATOM     21  C   UNL     1     -17.653   1.549   3.632  1.00  0.00     0.004 C 
ENDBRANCH  18  20
ENDBRANCH  11  18
ENDBRANCH   8  11
ENDBRANCH   3   7
ENDBRANCH   1   2
BRANCH   1  22
ATOM     22  N   UNL     1     -12.660  -0.432  -5.718  1.00  0.00    -0.348 N 
ATOM     23  C   UNL     1     -12.826   0.587  -6.617  1.00  0.00     0.249 C 
ATOM     24  O   UNL     1     -12.030   1.511  -6.741  1.00  0.00    -0.272 OA
ATOM     25  H   UNL     1     -13.393  -1.140  -5.689  1.00  0.00     0.163 HD
BRANCH  23  26
ATOM     26  C   UNL     1     -14.079   0.414  -7.489  1.00  0.00     0.238 C 
ATOM     27  N   UNL     1     -15.020  -0.524  -6.815  1.00  0.00    -0.236 NA
ATOM     28  C   UNL     1     -14.846   1.715  -7.648  1.00  0.00     0.206 C 
ATOM     29  C   UNL     1     -16.009   0.245  -6.469  1.00  0.00     0.208 C 
ATOM     30  O   UNL     1     -15.969   1.564  -6.782  1.00  0.00    -0.474 OA
ATOM     31  C   UNL     1     -15.352   1.926  -9.069  1.00  0.00     0.056 C 
BRANCH  29  32
ATOM     32  C   UNL     1     -17.242  -0.171  -5.671  1.00  0.00     0.171 C 
BRANCH  32  33
ATOM     33  N   UNL     1     -17.661   0.892  -4.771  1.00  0.00    -0.342 N 
ATOM     34  C   UNL     1     -18.683   0.736  -3.865  1.00  0.00     0.246 CG0
ATOM     35  O   UNL     1     -19.336  -0.299  -3.763  1.00  0.00    -0.273 OA
ATOM     36  H   UNL     1     -17.231   1.810  -4.807  1.00  0.00     0.164 HD
ATOM     37  G   UNL     1     -18.930   1.959  -2.966  1.00  0.00     0.000 G0
ENDBRANCH  32  33
BRANCH  32  38
ATOM     38  C   UNL     1     -18.378  -0.625  -6.625  1.00  0.00     0.017 C 
ATOM     39  C   UNL     1     -18.502   0.354  -7.799  1.00  0.00     0.010 C 
BRANCH  38  40
ATOM     40  C   UNL     1     -18.209  -2.082  -7.113  1.00  0.00     0.002 C 
ATOM     41  C   UNL     1     -17.842  -2.192  -8.586  1.00  0.00     0.004 C 
ENDBRANCH  38  40
ENDBRANCH  32  38
ENDBRANCH  29  32
ENDBRANCH  23  26
ENDBRANCH   1  22
TORSDOF 4
ENDMDL
MODEL 48
REMARK VINA RESULT:    -5.175      9.434     13.033
REMARK INTER + INTRA:         -10.016
REMARK INTER:                  -9.210
REMARK INTRA:                  -0.806
REMARK UNBOUND:                -1.210
REMARK SMILES CC[C@H](C)[C@@H]1NC(=O)[C@H]2CSC(=N2)[C@@H]([C@@H](C)CC)NC(=O)c2csc(n2)CNC(=O)[C@H]2N=C1O[C@@H]2C
REMARK SMILES IDX 27 1 25 2 22 3 26 4 23 5 24 6 20 7 19 8 21 9 14 11 12 12
REMARK SMILES IDX 11 13 10 14 13 15 9 16 15 18 16 19 17 20 18 21 28 22 29 23
REMARK SMILES IDX 30 24 31 26 32 27 35 28 33 29 34 30 36 31 5 32 6 33 7 34
REMARK SMILES IDX 8 35 3 38 4 39 2 40 1 41
REMARK H PARENT 19 10 28 25 6 36
REMARK Flexibility Score:   91.900
ROOT
ATOM      1  C   UNL     1     -13.306   1.195   0.285  1.00  0.00     0.183 C 
ENDROOT
BRANCH   1   2
ATOM      2  C   UNL     1     -14.124   0.982  -0.956  1.00  0.00     0.113 A 
ATOM      3  C   UNL     1     -15.793   0.287  -2.260  1.00  0.00     0.139 A 
ATOM      4  N   UNL     1     -15.338   0.463  -0.952  1.00  0.00    -0.234 NA
ATOM      5  C   UNL     1     -14.922   0.737  -3.233  1.00  0.00     0.101 A 
ATOM      6  S   UNL     1     -13.500   1.369  -2.508  1.00  0.00    -0.125 S 
BRANCH   3   7
ATOM      7  C   UNL     1     -17.079  -0.368  -2.507  1.00  0.00     0.271 C 
ATOM      8  N   UNL     1     -17.955   0.466  -3.157  1.00  0.00    -0.341 N 
ATOM      9  O   UNL     1     -17.343  -1.507  -2.145  1.00  0.00    -0.267 OA
ATOM     10  H   UNL     1     -17.584   1.380  -3.416  1.00  0.00     0.164 HD
BRANCH   8  11
ATOM     11  C   UNL     1     -19.361   0.167  -3.373  1.00  0.00     0.140 C 
BRANCH  11  12
ATOM     12  C   UNL     1     -20.184   1.290  -2.733  1.00  0.00     0.091 C 
ATOM     13  S   UNL     1     -20.927   2.522  -3.725  1.00  0.00    -0.106 SA
ATOM     14  C   UNL     1     -21.889   3.099  -2.310  1.00  0.00     0.113 C 
ATOM     15  N   UNL     1     -20.297   1.411  -1.447  1.00  0.00    -0.267 NA
ATOM     16  C   UNL     1     -21.063   2.653  -1.114  1.00  0.00     0.205 CG0
ATOM     17  G   UNL     1     -20.117   3.775  -0.657  1.00  0.00     0.000 G0
ENDBRANCH  11  12
BRANCH  11  18
ATOM     18  C   UNL     1     -19.711  -0.193  -4.839  1.00  0.00     0.015 C 
ATOM     19  C   UNL     1     -18.834  -1.353  -5.329  1.00  0.00     0.010 C 
BRANCH  18  20
ATOM     20  C   UNL     1     -21.207  -0.470  -5.095  1.00  0.00     0.002 C 
ATOM     21  C   UNL     1     -21.466  -1.862  -5.663  1.00  0.00     0.004 C 
ENDBRANCH  18  20
ENDBRANCH  11  18
ENDBRANCH   8  11
ENDBRANCH   3   7
ENDBRANCH   1   2
BRANCH   1  22
ATOM     22  N   UNL     1     -14.079   2.032   1.175  1.00  0.00    -0.348 N 
ATOM     23  C   UNL     1     -14.915   1.566   2.152  1.00  0.00     0.249 C 
ATOM     24  O   UNL     1     -15.030   0.377   2.429  1.00  0.00    -0.272 OA
ATOM     25  H   UNL     1     -14.075   3.039   1.018  1.00  0.00     0.163 HD
BRANCH  23  26
ATOM     26  C   UNL     1     -15.644   2.693   2.900  1.00  0.00     0.238 C 
ATOM     27  N   UNL     1     -16.089   3.723   1.921  1.00  0.00    -0.236 NA
ATOM     28  C   UNL     1     -16.911   2.200   3.576  1.00  0.00     0.206 C 
ATOM     29  C   UNL     1     -17.382   3.598   1.925  1.00  0.00     0.208 C 
ATOM     30  O   UNL     1     -17.961   2.680   2.738  1.00  0.00    -0.474 OA
ATOM     31  C   UNL     1     -17.095   2.786   4.970  1.00  0.00     0.056 C 
BRANCH  29  32
ATOM     32  C   UNL     1     -18.368   4.362   1.044  1.00  0.00     0.171 C 
BRANCH  32  33
ATOM     33  N   UNL     1     -19.366   3.465   0.483  1.00  0.00    -0.342 N 
ATOM     34  C   UNL     1     -20.094   3.778  -0.641  1.00  0.00     0.246 CG0
ATOM     35  O   UNL     1     -19.977   4.844  -1.240  1.00  0.00    -0.273 OA
ATOM     36  H   UNL     1     -19.587   2.582   0.929  1.00  0.00     0.164 HD
ATOM     37  G   UNL     1     -21.054   2.670  -1.105  1.00  0.00     0.000 G0
ENDBRANCH  32  33
BRANCH  32  38
ATOM     38  C   UNL     1     -19.002   5.538   1.834  1.00  0.00     0.017 C 
ATOM     39  C   UNL     1     -19.637   5.020   3.130  1.00  0.00     0.010 C 
BRANCH  38  40
ATOM     40  C   UNL     1     -18.004   6.687   2.108  1.00  0.00     0.002 C 
ATOM     41  C   UNL     1     -17.434   6.674   3.520  1.00  0.00     0.004 C 
ENDBRANCH  38  40
ENDBRANCH  32  38
ENDBRANCH  29  32
ENDBRANCH  23  26
ENDBRANCH   1  22
TORSDOF 4
ENDMDL
MODEL 49
REMARK VINA RESULT:    -5.118      7.875     11.818
REMARK INTER + INTRA:          -9.919
REMARK INTER:                  -9.843
REMARK INTRA:                  -0.076
REMARK UNBOUND:                -1.210
REMARK SMILES CC[C@H](C)[C@@H]1NC(=O)[C@H]2CSC(=N2)[C@@H]([C@@H](C)CC)NC(=O)c2csc(n2)CNC(=O)[C@H]2N=C1O[C@@H]2C
REMARK SMILES IDX 27 1 25 2 22 3 26 4 23 5 24 6 20 7 19 8 21 9 14 11 12 12
REMARK SMILES IDX 11 13 10 14 13 15 9 16 15 18 16 19 17 20 18 21 28 22 29 23
REMARK SMILES IDX 30 24 31 26 32 27 35 28 33 29 34 30 36 31 5 32 6 33 7 34
REMARK SMILES IDX 8 35 3 38 4 39 2 40 1 41
REMARK H PARENT 19 10 28 25 6 36
REMARK Flexibility Score:   91.900
ROOT
ATOM      1  C   UNL     1     -17.477   1.384  -1.666  1.00  0.00     0.183 C 
ENDROOT
BRANCH   1   2
ATOM      2  C   UNL     1     -18.736   1.101  -2.435  1.00  0.00     0.113 A 
ATOM      3  C   UNL     1     -20.067   0.671  -4.170  1.00  0.00     0.139 A 
ATOM      4  N   UNL     1     -18.752   0.752  -3.709  1.00  0.00    -0.234 NA
ATOM      5  C   UNL     1     -21.027   0.907  -3.205  1.00  0.00     0.101 A 
ATOM      6  S   UNL     1     -20.279   1.262  -1.701  1.00  0.00    -0.125 S 
BRANCH   3   7
ATOM      7  C   UNL     1     -20.333   0.395  -5.583  1.00  0.00     0.271 C 
ATOM      8  N   UNL     1     -19.398  -0.458  -6.116  1.00  0.00    -0.341 N 
ATOM      9  O   UNL     1     -21.257   0.895  -6.212  1.00  0.00    -0.267 OA
ATOM     10  H   UNL     1     -18.701  -0.812  -5.463  1.00  0.00     0.164 HD
BRANCH   8  11
ATOM     11  C   UNL     1     -19.288  -0.768  -7.533  1.00  0.00     0.140 C 
BRANCH  11  12
ATOM     12  C   UNL     1     -18.218   0.148  -8.132  1.00  0.00     0.091 C 
ATOM     13  S   UNL     1     -17.294  -0.361  -9.527  1.00  0.00    -0.106 SA
ATOM     14  C   UNL     1     -16.650   1.314  -9.727  1.00  0.00     0.113 C 
ATOM     15  N   UNL     1     -17.907   1.285  -7.594  1.00  0.00    -0.267 NA
ATOM     16  C   UNL     1     -16.761   1.906  -8.330  1.00  0.00     0.205 CG0
ATOM     17  G   UNL     1     -15.446   1.721  -7.555  1.00  0.00     0.000 G0
ENDBRANCH  11  12
BRANCH  11  18
ATOM     18  C   UNL     1     -19.150  -2.282  -7.837  1.00  0.00     0.015 C 
ATOM     19  C   UNL     1     -19.286  -3.102  -6.548  1.00  0.00     0.010 C 
BRANCH  18  20
ATOM     20  C   UNL     1     -20.093  -2.806  -8.940  1.00  0.00     0.002 C 
ATOM     21  C   UNL     1     -21.483  -2.183  -8.880  1.00  0.00     0.004 C 
ENDBRANCH  18  20
ENDBRANCH  11  18
ENDBRANCH   8  11
ENDBRANCH   3   7
ENDBRANCH   1   2
BRANCH   1  22
ATOM     22  N   UNL     1     -16.428   0.573  -2.240  1.00  0.00    -0.348 N 
ATOM     23  C   UNL     1     -15.333   1.064  -2.898  1.00  0.00     0.249 C 
ATOM     24  O   UNL     1     -15.087   2.262  -2.992  1.00  0.00    -0.272 OA
ATOM     25  H   UNL     1     -16.542  -0.440  -2.237  1.00  0.00     0.163 HD
BRANCH  23  26
ATOM     26  C   UNL     1     -14.420  -0.043  -3.446  1.00  0.00     0.238 C 
ATOM     27  N   UNL     1     -14.766  -0.304  -4.870  1.00  0.00    -0.236 NA
ATOM     28  C   UNL     1     -12.960   0.375  -3.452  1.00  0.00     0.206 C 
ATOM     29  C   UNL     1     -13.730   0.143  -5.515  1.00  0.00     0.208 C 
ATOM     30  O   UNL     1     -12.688   0.664  -4.823  1.00  0.00    -0.474 OA
ATOM     31  C   UNL     1     -12.030  -0.742  -2.997  1.00  0.00     0.056 C 
BRANCH  29  32
ATOM     32  C   UNL     1     -13.564   0.199  -7.031  1.00  0.00     0.171 C 
BRANCH  32  33
ATOM     33  N   UNL     1     -14.825   0.520  -7.681  1.00  0.00    -0.342 N 
ATOM     34  C   UNL     1     -15.449   1.735  -7.529  1.00  0.00     0.246 CG0
ATOM     35  O   UNL     1     -15.005   2.631  -6.816  1.00  0.00    -0.273 OA
ATOM     36  H   UNL     1     -15.312  -0.167  -8.247  1.00  0.00     0.164 HD
ATOM     37  G   UNL     1     -16.741   1.894  -8.347  1.00  0.00     0.000 G0
ENDBRANCH  32  33
BRANCH  32  38
ATOM     38  C   UNL     1     -12.429   1.185  -7.416  1.00  0.00     0.017 C 
ATOM     39  C   UNL     1     -11.068   0.604  -7.014  1.00  0.00     0.010 C 
BRANCH  38  40
ATOM     40  C   UNL     1     -12.459   1.584  -8.909  1.00  0.00     0.002 C 
ATOM     41  C   UNL     1     -12.330   3.084  -9.142  1.00  0.00     0.004 C 
ENDBRANCH  38  40
ENDBRANCH  32  38
ENDBRANCH  29  32
ENDBRANCH  23  26
ENDBRANCH   1  22
TORSDOF 4
ENDMDL
MODEL 50
REMARK VINA RESULT:    -4.930      2.638      8.329
REMARK INTER + INTRA:          -9.599
REMARK INTER:                 -10.055
REMARK INTRA:                   0.456
REMARK UNBOUND:                -1.210
REMARK SMILES CC[C@H](C)[C@@H]1NC(=O)[C@H]2CSC(=N2)[C@@H]([C@@H](C)CC)NC(=O)c2csc(n2)CNC(=O)[C@H]2N=C1O[C@@H]2C
REMARK SMILES IDX 27 1 25 2 22 3 26 4 23 5 24 6 20 7 19 8 21 9 14 11 12 12
REMARK SMILES IDX 11 13 10 14 13 15 9 16 15 18 16 19 17 20 18 21 28 22 29 23
REMARK SMILES IDX 30 24 31 26 32 27 35 28 33 29 34 30 36 31 5 32 6 33 7 34
REMARK SMILES IDX 8 35 3 38 4 39 2 40 1 41
REMARK H PARENT 19 10 28 25 6 36
REMARK Flexibility Score:   91.900
ROOT
ATOM      1  C   UNL     1      -2.729   1.985  -3.431  1.00  0.00     0.183 C 
ENDROOT
BRANCH   1   2
ATOM      2  C   UNL     1      -3.574   1.732  -2.215  1.00  0.00     0.113 A 
ATOM      3  C   UNL     1      -5.389   1.350  -0.980  1.00  0.00     0.139 A 
ATOM      4  N   UNL     1      -4.853   1.407  -2.268  1.00  0.00    -0.234 NA
ATOM      5  C   UNL     1      -4.476   1.578   0.031  1.00  0.00     0.101 A 
ATOM      6  S   UNL     1      -2.926   1.896  -0.634  1.00  0.00    -0.125 S 
BRANCH   3   7
ATOM      7  C   UNL     1      -6.821   1.104  -0.793  1.00  0.00     0.271 C 
ATOM      8  N   UNL     1      -7.340   1.881   0.213  1.00  0.00    -0.341 N 
ATOM      9  O   UNL     1      -7.460   0.281  -1.437  1.00  0.00    -0.267 OA
ATOM     10  H   UNL     1      -6.690   2.538   0.643  1.00  0.00     0.164 HD
BRANCH   8  11
ATOM     11  C   UNL     1      -8.681   1.728   0.754  1.00  0.00     0.140 C 
BRANCH  11  12
ATOM     12  C   UNL     1      -9.673   1.856  -0.406  1.00  0.00     0.091 C 
ATOM     13  S   UNL     1     -11.163   0.943  -0.405  1.00  0.00    -0.106 SA
ATOM     14  C   UNL     1     -11.780   1.923  -1.790  1.00  0.00     0.113 C 
ATOM     15  N   UNL     1      -9.416   2.577  -1.453  1.00  0.00    -0.267 NA
ATOM     16  C   UNL     1     -10.512   2.426  -2.461  1.00  0.00     0.205 CG0
ATOM     17  G   UNL     1     -10.086   1.481  -3.597  1.00  0.00     0.000 G0
ENDBRANCH  11  12
BRANCH  11  18
ATOM     18  C   UNL     1      -8.853   0.493   1.674  1.00  0.00     0.015 C 
ATOM     19  C   UNL     1      -7.495  -0.172   1.937  1.00  0.00     0.010 C 
BRANCH  18  20
ATOM     20  C   UNL     1      -9.609   0.769   2.990  1.00  0.00     0.002 C 
ATOM     21  C   UNL     1      -9.474  -0.362   4.003  1.00  0.00     0.004 C 
ENDBRANCH  18  20
ENDBRANCH  11  18
ENDBRANCH   8  11
ENDBRANCH   3   7
ENDBRANCH   1   2
BRANCH   1  22
ATOM     22  N   UNL     1      -3.560   1.755  -4.591  1.00  0.00    -0.348 N 
ATOM     23  C   UNL     1      -4.569   2.582  -5.004  1.00  0.00     0.249 C 
ATOM     24  O   UNL     1      -4.817   3.658  -4.471  1.00  0.00    -0.272 OA
ATOM     25  H   UNL     1      -3.454   0.876  -5.096  1.00  0.00     0.163 HD
BRANCH  23  26
ATOM     26  C   UNL     1      -5.312   2.045  -6.237  1.00  0.00     0.238 C 
ATOM     27  N   UNL     1      -6.403   1.133  -5.794  1.00  0.00    -0.236 NA
ATOM     28  C   UNL     1      -6.000   3.155  -7.014  1.00  0.00     0.206 C 
ATOM     29  C   UNL     1      -7.482   1.797  -6.085  1.00  0.00     0.208 C 
ATOM     30  O   UNL     1      -7.378   3.014  -6.673  1.00  0.00    -0.474 OA
ATOM     31  C   UNL     1      -5.852   2.991  -8.521  1.00  0.00     0.056 C 
BRANCH  29  32
ATOM     32  C   UNL     1      -8.916   1.370  -5.782  1.00  0.00     0.171 C 
BRANCH  32  33
ATOM     33  N   UNL     1      -9.447   2.104  -4.645  1.00  0.00    -0.342 N 
ATOM     34  C   UNL     1     -10.079   1.486  -3.593  1.00  0.00     0.246 CG0
ATOM     35  O   UNL     1     -10.267   0.273  -3.544  1.00  0.00    -0.273 OA
ATOM     36  H   UNL     1      -9.401   3.117  -4.607  1.00  0.00     0.164 HD
ATOM     37  G   UNL     1     -10.515   2.434  -2.464  1.00  0.00     0.000 G0
ENDBRANCH  32  33
BRANCH  32  38
ATOM     38  C   UNL     1      -9.802   1.510  -7.048  1.00  0.00     0.017 C 
ATOM     39  C   UNL     1      -9.135   0.810  -8.239  1.00  0.00     0.010 C 
BRANCH  38  40
ATOM     40  C   UNL     1     -11.248   1.008  -6.830  1.00  0.00     0.002 C 
ATOM     41  C   UNL     1     -11.825   0.269  -8.030  1.00  0.00     0.004 C 
ENDBRANCH  38  40
ENDBRANCH  32  38
ENDBRANCH  29  32
ENDBRANCH  23  26
ENDBRANCH   1  22
TORSDOF 4
ENDMDL
