MODEL 1
REMARK VINA RESULT:    -7.135      0.000      0.000
REMARK INTER + INTRA:         -17.630
REMARK INTER:                 -14.435
REMARK INTRA:                  -3.195
REMARK UNBOUND:                -3.195
REMARK SMILES CC[C@@H](C)[C@@H](NC(=O)[C@@H](O)Cc1ccc(O)c(Cl)c1)C(=O)N1[C@H](C(=O)NCCCCN=C(N)N)C[C@H]2CC[C@H](OS(=O)(=O)O)C[C@@H]21
REMARK SMILES IDX 22 1 36 2 46 3 35 4 23 5 45 6 37 7 39 8 38 9 20 10 21 11
REMARK SMILES IDX 5 12 6 13 7 14 8 15 9 17 11 18 12 19 17 20 19 21 15 22 14 23
REMARK SMILES IDX 13 24 18 25 16 26 10 28 3 30 4 31 2 32 1 33 24 34 25 35
REMARK SMILES IDX 26 36 27 38 28 39 29 40 30 41 31 42 32 43 33 44 34 45 40 50
REMARK SMILES IDX 41 51 42 52 43 53 44 54
REMARK H PARENT 6 16 16 27 10 29 26 37 33 46 33 47 34 48 34 49 44 55
ROOT
ATOM      1  N   UNL     1     -10.775  -4.724   2.449  1.00  0.00    -0.326 N 
ATOM      2  C   UNL     1      -9.514  -6.460   1.479  1.00  0.00     0.014 C 
ATOM      3  C   UNL     1     -10.881  -6.142   2.091  1.00  0.00     0.091 C 
ATOM      4  C   UNL     1      -8.571  -5.589   2.295  1.00  0.00     0.041 C 
ATOM      5  C   UNL     1      -9.368  -4.272   2.318  1.00  0.00     0.175 C 
ATOM      6  C   UNL     1     -11.964  -6.558   1.097  1.00  0.00     0.059 C 
ATOM      7  C   UNL     1      -9.281  -7.956   1.420  1.00  0.00     0.008 C 
ATOM      8  C   UNL     1     -11.578  -7.777   0.232  1.00  0.00     0.143 C 
ATOM      9  C   UNL     1     -10.552  -8.687   0.938  1.00  0.00     0.034 C 
ENDROOT
BRANCH   1  10
ATOM     10  C   UNL     1     -11.698  -3.891   3.057  1.00  0.00     0.246 C 
ATOM     11  O   UNL     1     -12.294  -3.053   2.373  1.00  0.00    -0.272 OA
BRANCH  10  12
ATOM     12  C   UNL     1     -11.995  -4.054   4.576  1.00  0.00     0.174 C 
BRANCH  12  13
ATOM     13  N   UNL     1     -10.820  -3.672   5.358  1.00  0.00    -0.342 N 
ATOM     14  C   UNL     1     -10.850  -2.930   6.517  1.00  0.00     0.249 C 
ATOM     15  O   UNL     1     -11.880  -2.525   7.042  1.00  0.00    -0.272 OA
ATOM     16  H   UNL     1      -9.890  -3.801   4.966  1.00  0.00     0.164 HD
BRANCH  14  17
ATOM     17  C   UNL     1      -9.442  -2.677   7.099  1.00  0.00     0.207 C 
BRANCH  17  18
ATOM     18  C   UNL     1      -8.978  -1.253   6.779  1.00  0.00     0.077 C 
BRANCH  18  19
ATOM     19  C   UNL     1      -8.190  -1.195   5.490  1.00  0.00    -0.043 A 
ATOM     20  C   UNL     1      -6.066  -1.259   4.319  1.00  0.00     0.083 A 
ATOM     21  C   UNL     1      -6.796  -1.362   5.504  1.00  0.00     0.028 A 
ATOM     22  C   UNL     1      -6.720  -0.988   3.117  1.00  0.00     0.134 A 
ATOM     23  C   UNL     1      -8.100  -0.821   3.088  1.00  0.00     0.048 A 
ATOM     24  C   UNL     1      -8.833  -0.922   4.273  1.00  0.00     0.008 A 
ATOM     25  Cl  UNL     1      -4.354  -1.466   4.356  1.00  0.00    -0.080 Cl
BRANCH  22  26
ATOM     26  O   UNL     1      -6.046  -0.868   1.932  1.00  0.00    -0.506 OA
ATOM     27  H   UNL     1      -6.458  -1.496   1.310  1.00  0.00     0.293 HD
ENDBRANCH  22  26
ENDBRANCH  18  19
ENDBRANCH  17  18
BRANCH  17  28
ATOM     28  O   UNL     1      -8.490  -3.618   6.576  1.00  0.00    -0.383 OA
ATOM     29  H   UNL     1      -7.642  -3.433   7.041  1.00  0.00     0.211 HD
ENDBRANCH  17  28
ENDBRANCH  14  17
ENDBRANCH  12  13
BRANCH  12  30
ATOM     30  C   UNL     1     -12.511  -5.474   4.937  1.00  0.00     0.018 C 
ATOM     31  C   UNL     1     -13.915  -5.403   5.558  1.00  0.00     0.010 C 
BRANCH  30  32
ATOM     32  C   UNL     1     -11.557  -6.264   5.865  1.00  0.00     0.002 C 
ATOM     33  C   UNL     1     -12.004  -6.373   7.317  1.00  0.00     0.004 C 
ENDBRANCH  30  32
ENDBRANCH  12  30
ENDBRANCH  10  12
ENDBRANCH   1  10
BRANCH   5  34
ATOM     34  C   UNL     1      -9.170  -3.461   1.009  1.00  0.00     0.242 C 
ATOM     35  O   UNL     1      -8.070  -3.035   0.659  1.00  0.00    -0.273 OA
ATOM     36  N   UNL     1     -10.322  -3.208   0.298  1.00  0.00    -0.354 N 
ATOM     37  H   UNL     1     -11.219  -3.483   0.700  1.00  0.00     0.163 HD
BRANCH  36  38
ATOM     38  C   UNL     1     -10.298  -2.658  -1.042  1.00  0.00     0.116 C 
BRANCH  38  39
ATOM     39  C   UNL     1     -10.844  -3.684  -2.033  1.00  0.00     0.023 C 
BRANCH  39  40
ATOM     40  C   UNL     1     -12.364  -3.797  -1.977  1.00  0.00     0.026 C 
BRANCH  40  41
ATOM     41  C   UNL     1     -13.022  -2.539  -2.545  1.00  0.00     0.146 C 
BRANCH  41  42
ATOM     42  N   UNL     1     -13.777  -1.863  -1.499  1.00  0.00    -0.254 NA
ATOM     43  C   UNL     1     -13.494  -0.651  -1.197  1.00  0.00     0.185 C 
ATOM     44  N   UNL     1     -12.561   0.173  -1.707  1.00  0.00    -0.370 N 
ATOM     45  N   UNL     1     -14.199  -0.047  -0.227  1.00  0.00    -0.370 N 
ATOM     46  H   UNL     1     -12.288   1.006  -1.214  1.00  0.00     0.159 HD
ATOM     47  H   UNL     1     -11.946  -0.120  -2.461  1.00  0.00     0.159 HD
ATOM     48  H   UNL     1     -14.930  -0.596   0.205  1.00  0.00     0.159 HD
ATOM     49  H   UNL     1     -14.203   0.949  -0.097  1.00  0.00     0.159 HD
ENDBRANCH  41  42
ENDBRANCH  40  41
ENDBRANCH  39  40
ENDBRANCH  38  39
ENDBRANCH  36  38
ENDBRANCH   5  34
BRANCH   8  50
ATOM     50  O   UNL     1     -11.020  -7.341  -1.008  1.00  0.00    -0.245 OA
BRANCH  50  51
ATOM     51  S   UNL     1     -11.751  -7.744  -2.404  1.00  0.00     0.397 S 
ATOM     52  O   UNL     1     -13.033  -7.077  -2.444  1.00  0.00    -0.169 OA
ATOM     53  O   UNL     1     -11.630  -9.170  -2.622  1.00  0.00    -0.169 OA
BRANCH  51  54
ATOM     54  O   UNL     1     -10.834  -6.996  -3.492  1.00  0.00    -0.264 OA
ATOM     55  H   UNL     1     -10.121  -7.613  -3.756  1.00  0.00     0.236 HD
ENDBRANCH  51  54
ENDBRANCH  50  51
ENDBRANCH   8  50
TORSDOF 19
ENDMDL
MODEL 2
REMARK VINA RESULT:    -7.062      3.627      7.949
REMARK INTER + INTRA:         -17.482
REMARK INTER:                 -14.572
REMARK INTRA:                  -2.911
REMARK UNBOUND:                -3.195
REMARK SMILES CC[C@@H](C)[C@@H](NC(=O)[C@@H](O)Cc1ccc(O)c(Cl)c1)C(=O)N1[C@H](C(=O)NCCCCN=C(N)N)C[C@H]2CC[C@H](OS(=O)(=O)O)C[C@@H]21
REMARK SMILES IDX 22 1 36 2 46 3 35 4 23 5 45 6 37 7 39 8 38 9 20 10 21 11
REMARK SMILES IDX 5 12 6 13 7 14 8 15 9 17 11 18 12 19 17 20 19 21 15 22 14 23
REMARK SMILES IDX 13 24 18 25 16 26 10 28 3 30 4 31 2 32 1 33 24 34 25 35
REMARK SMILES IDX 26 36 27 38 28 39 29 40 30 41 31 42 32 43 33 44 34 45 40 50
REMARK SMILES IDX 41 51 42 52 43 53 44 54
REMARK H PARENT 6 16 16 27 10 29 26 37 33 46 33 47 34 48 34 49 44 55
ROOT
ATOM      1  N   UNL     1     -12.105  -3.706   6.330  1.00  0.00    -0.326 N 
ATOM      2  C   UNL     1     -11.942  -4.043   8.654  1.00  0.00     0.014 C 
ATOM      3  C   UNL     1     -12.622  -4.576   7.390  1.00  0.00     0.091 C 
ATOM      4  C   UNL     1     -11.862  -2.548   8.386  1.00  0.00     0.041 C 
ATOM      5  C   UNL     1     -11.376  -2.559   6.925  1.00  0.00     0.175 C 
ATOM      6  C   UNL     1     -12.350  -6.077   7.292  1.00  0.00     0.059 C 
ATOM      7  C   UNL     1     -12.649  -4.539   9.900  1.00  0.00     0.008 C 
ATOM      8  C   UNL     1     -12.224  -6.776   8.662  1.00  0.00     0.143 C 
ATOM      9  C   UNL     1     -13.004  -6.034   9.766  1.00  0.00     0.034 C 
ENDROOT
BRANCH   1  10
ATOM     10  C   UNL     1     -12.382  -3.699   4.974  1.00  0.00     0.246 C 
ATOM     11  O   UNL     1     -13.417  -3.154   4.574  1.00  0.00    -0.272 OA
BRANCH  10  12
ATOM     12  C   UNL     1     -11.368  -4.336   3.980  1.00  0.00     0.174 C 
BRANCH  12  13
ATOM     13  N   UNL     1     -11.573  -3.790   2.639  1.00  0.00    -0.342 N 
ATOM     14  C   UNL     1     -11.019  -2.620   2.169  1.00  0.00     0.249 C 
ATOM     15  O   UNL     1     -10.261  -1.914   2.821  1.00  0.00    -0.272 OA
ATOM     16  H   UNL     1     -12.297  -4.181   2.042  1.00  0.00     0.164 HD
BRANCH  14  17
ATOM     17  C   UNL     1     -11.439  -2.304   0.718  1.00  0.00     0.207 C 
BRANCH  17  18
ATOM     18  C   UNL     1     -12.846  -2.842   0.438  1.00  0.00     0.077 C 
BRANCH  18  19
ATOM     19  C   UNL     1     -12.879  -3.713  -0.798  1.00  0.00    -0.043 A 
ATOM     20  C   UNL     1     -12.470  -5.846  -1.879  1.00  0.00     0.083 A 
ATOM     21  C   UNL     1     -12.486  -5.059  -0.727  1.00  0.00     0.028 A 
ATOM     22  C   UNL     1     -12.845  -5.296  -3.105  1.00  0.00     0.134 A 
ATOM     23  C   UNL     1     -13.237  -3.965  -3.190  1.00  0.00     0.048 A 
ATOM     24  C   UNL     1     -13.251  -3.174  -2.039  1.00  0.00     0.008 A 
ATOM     25  Cl  UNL     1     -11.983  -7.497  -1.771  1.00  0.00    -0.080 Cl
BRANCH  22  26
ATOM     26  O   UNL     1     -12.835  -6.026  -4.263  1.00  0.00    -0.506 OA
ATOM     27  H   UNL     1     -12.416  -5.467  -4.943  1.00  0.00     0.293 HD
ENDBRANCH  22  26
ENDBRANCH  18  19
ENDBRANCH  17  18
BRANCH  17  28
ATOM     28  O   UNL     1     -10.515  -2.872  -0.224  1.00  0.00    -0.383 OA
ATOM     29  H   UNL     1     -11.057  -3.409  -0.847  1.00  0.00     0.211 HD
ENDBRANCH  17  28
ENDBRANCH  14  17
ENDBRANCH  12  13
BRANCH  12  30
ATOM     30  C   UNL     1     -11.403  -5.888   4.000  1.00  0.00     0.018 C 
ATOM     31  C   UNL     1     -10.037  -6.460   4.412  1.00  0.00     0.010 C 
BRANCH  30  32
ATOM     32  C   UNL     1     -11.861  -6.516   2.661  1.00  0.00     0.002 C 
ATOM     33  C   UNL     1     -10.766  -7.206   1.857  1.00  0.00     0.004 C 
ENDBRANCH  30  32
ENDBRANCH  12  30
ENDBRANCH  10  12
ENDBRANCH   1  10
BRANCH   5  34
ATOM     34  C   UNL     1      -9.842  -2.775   6.834  1.00  0.00     0.242 C 
ATOM     35  O   UNL     1      -9.341  -3.893   6.726  1.00  0.00    -0.273 OA
ATOM     36  N   UNL     1      -9.082  -1.631   6.937  1.00  0.00    -0.354 N 
ATOM     37  H   UNL     1      -9.550  -0.748   7.146  1.00  0.00     0.163 HD
BRANCH  36  38
ATOM     38  C   UNL     1      -7.661  -1.619   6.659  1.00  0.00     0.116 C 
BRANCH  38  39
ATOM     39  C   UNL     1      -7.427  -1.709   5.153  1.00  0.00     0.023 C 
BRANCH  39  40
ATOM     40  C   UNL     1      -5.960  -1.519   4.779  1.00  0.00     0.026 C 
BRANCH  40  41
ATOM     41  C   UNL     1      -5.752  -1.728   3.279  1.00  0.00     0.146 C 
BRANCH  41  42
ATOM     42  N   UNL     1      -6.027  -0.488   2.567  1.00  0.00    -0.254 NA
ATOM     43  C   UNL     1      -6.943  -0.461   1.672  1.00  0.00     0.185 C 
ATOM     44  N   UNL     1      -7.758  -1.440   1.239  1.00  0.00    -0.370 N 
ATOM     45  N   UNL     1      -7.178   0.691   1.023  1.00  0.00    -0.370 N 
ATOM     46  H   UNL     1      -8.255  -1.346   0.370  1.00  0.00     0.159 HD
ATOM     47  H   UNL     1      -7.724  -2.375   1.633  1.00  0.00     0.159 HD
ATOM     48  H   UNL     1      -6.612   1.483   1.296  1.00  0.00     0.159 HD
ATOM     49  H   UNL     1      -8.016   0.856   0.494  1.00  0.00     0.159 HD
ENDBRANCH  41  42
ENDBRANCH  40  41
ENDBRANCH  39  40
ENDBRANCH  38  39
ENDBRANCH  36  38
ENDBRANCH   5  34
BRANCH   8  50
ATOM     50  O   UNL     1     -10.852  -6.851   9.049  1.00  0.00    -0.245 OA
BRANCH  50  51
ATOM     51  S   UNL     1     -10.234  -8.271   9.547  1.00  0.00     0.397 S 
ATOM     52  O   UNL     1      -9.257  -8.699   8.571  1.00  0.00    -0.169 OA
ATOM     53  O   UNL     1     -11.306  -9.142   9.981  1.00  0.00    -0.169 OA
BRANCH  51  54
ATOM     54  O   UNL     1      -9.392  -7.834  10.846  1.00  0.00    -0.264 OA
ATOM     55  H   UNL     1      -8.461  -8.102  10.702  1.00  0.00     0.236 HD
ENDBRANCH  51  54
ENDBRANCH  50  51
ENDBRANCH   8  50
TORSDOF 19
ENDMDL
MODEL 3
REMARK VINA RESULT:    -7.019      2.932      4.606
REMARK INTER + INTRA:         -17.395
REMARK INTER:                 -13.107
REMARK INTRA:                  -4.288
REMARK UNBOUND:                -3.195
REMARK SMILES CC[C@@H](C)[C@@H](NC(=O)[C@@H](O)Cc1ccc(O)c(Cl)c1)C(=O)N1[C@H](C(=O)NCCCCN=C(N)N)C[C@H]2CC[C@H](OS(=O)(=O)O)C[C@@H]21
REMARK SMILES IDX 22 1 36 2 46 3 35 4 23 5 45 6 37 7 39 8 38 9 20 10 21 11
REMARK SMILES IDX 5 12 6 13 7 14 8 15 9 17 11 18 12 19 17 20 19 21 15 22 14 23
REMARK SMILES IDX 13 24 18 25 16 26 10 28 3 30 4 31 2 32 1 33 24 34 25 35
REMARK SMILES IDX 26 36 27 38 28 39 29 40 30 41 31 42 32 43 33 44 34 45 40 50
REMARK SMILES IDX 41 51 42 52 43 53 44 54
REMARK H PARENT 6 16 16 27 10 29 26 37 33 46 33 47 34 48 34 49 44 55
ROOT
ATOM      1  N   UNL     1     -10.060  -5.996   1.449  1.00  0.00    -0.326 N 
ATOM      2  C   UNL     1     -10.110  -5.412  -0.831  1.00  0.00     0.014 C 
ATOM      3  C   UNL     1     -11.003  -5.839   0.338  1.00  0.00     0.091 C 
ATOM      4  C   UNL     1      -8.824  -6.179  -0.567  1.00  0.00     0.041 C 
ATOM      5  C   UNL     1      -8.666  -5.934   0.945  1.00  0.00     0.175 C 
ATOM      6  C   UNL     1     -12.130  -4.818   0.482  1.00  0.00     0.059 C 
ATOM      7  C   UNL     1     -10.826  -5.595  -2.155  1.00  0.00     0.008 C 
ATOM      8  C   UNL     1     -12.566  -4.180  -0.854  1.00  0.00     0.143 C 
ATOM      9  C   UNL     1     -12.286  -5.105  -2.056  1.00  0.00     0.034 C 
ENDROOT
BRANCH   1  10
ATOM     10  C   UNL     1     -10.288  -6.386   2.758  1.00  0.00     0.246 C 
ATOM     11  O   UNL     1      -9.858  -7.478   3.143  1.00  0.00    -0.272 OA
BRANCH  10  12
ATOM     12  C   UNL     1     -11.040  -5.425   3.725  1.00  0.00     0.174 C 
BRANCH  12  13
ATOM     13  N   UNL     1     -10.091  -4.503   4.349  1.00  0.00    -0.342 N 
ATOM     14  C   UNL     1     -10.235  -3.135   4.399  1.00  0.00     0.249 C 
ATOM     15  O   UNL     1     -11.200  -2.534   3.943  1.00  0.00    -0.272 OA
ATOM     16  H   UNL     1      -9.173  -4.839   4.629  1.00  0.00     0.164 HD
BRANCH  14  17
ATOM     17  C   UNL     1      -9.057  -2.438   5.111  1.00  0.00     0.207 C 
BRANCH  17  18
ATOM     18  C   UNL     1      -8.903  -2.971   6.539  1.00  0.00     0.077 C 
BRANCH  18  19
ATOM     19  C   UNL     1      -9.395  -1.977   7.567  1.00  0.00    -0.043 A 
ATOM     20  C   UNL     1      -8.944  -0.424   9.375  1.00  0.00     0.083 A 
ATOM     21  C   UNL     1      -8.483  -1.304   8.394  1.00  0.00     0.028 A 
ATOM     22  C   UNL     1     -10.314  -0.214   9.536  1.00  0.00     0.134 A 
ATOM     23  C   UNL     1     -11.228  -0.874   8.723  1.00  0.00     0.048 A 
ATOM     24  C   UNL     1     -10.770  -1.756   7.742  1.00  0.00     0.008 A 
ATOM     25  Cl  UNL     1      -7.808   0.394  10.382  1.00  0.00    -0.080 Cl
BRANCH  22  26
ATOM     26  O   UNL     1     -10.813   0.631  10.490  1.00  0.00    -0.506 OA
ATOM     27  H   UNL     1     -11.440   1.226  10.038  1.00  0.00     0.293 HD
ENDBRANCH  22  26
ENDBRANCH  18  19
ENDBRANCH  17  18
BRANCH  17  28
ATOM     28  O   UNL     1      -9.247  -1.014   5.152  1.00  0.00    -0.383 OA
ATOM     29  H   UNL     1      -8.468  -0.650   5.631  1.00  0.00     0.211 HD
ENDBRANCH  17  28
ENDBRANCH  14  17
ENDBRANCH  12  13
BRANCH  12  30
ATOM     30  C   UNL     1     -11.906  -6.181   4.768  1.00  0.00     0.018 C 
ATOM     31  C   UNL     1     -13.276  -5.506   4.933  1.00  0.00     0.010 C 
BRANCH  30  32
ATOM     32  C   UNL     1     -11.221  -6.338   6.148  1.00  0.00     0.002 C 
ATOM     33  C   UNL     1     -11.840  -5.527   7.278  1.00  0.00     0.004 C 
ENDBRANCH  30  32
ENDBRANCH  12  30
ENDBRANCH  10  12
ENDBRANCH   1  10
BRANCH   5  34
ATOM     34  C   UNL     1      -8.036  -4.546   1.237  1.00  0.00     0.242 C 
ATOM     35  O   UNL     1      -8.675  -3.629   1.754  1.00  0.00    -0.273 OA
ATOM     36  N   UNL     1      -6.730  -4.398   0.828  1.00  0.00    -0.354 N 
ATOM     37  H   UNL     1      -6.292  -5.153   0.298  1.00  0.00     0.163 HD
BRANCH  36  38
ATOM     38  C   UNL     1      -5.924  -3.256   1.210  1.00  0.00     0.116 C 
BRANCH  38  39
ATOM     39  C   UNL     1      -6.379  -2.020   0.437  1.00  0.00     0.023 C 
BRANCH  39  40
ATOM     40  C   UNL     1      -6.028  -0.722   1.156  1.00  0.00     0.026 C 
BRANCH  40  41
ATOM     41  C   UNL     1      -7.291   0.072   1.489  1.00  0.00     0.146 C 
BRANCH  41  42
ATOM     42  N   UNL     1      -8.468  -0.675   1.064  1.00  0.00    -0.254 NA
ATOM     43  C   UNL     1      -9.575  -0.519   1.687  1.00  0.00     0.185 C 
ATOM     44  N   UNL     1      -9.874   0.267   2.738  1.00  0.00    -0.370 N 
ATOM     45  N   UNL     1     -10.648  -1.220   1.283  1.00  0.00    -0.370 N 
ATOM     46  H   UNL     1     -10.710   0.109   3.275  1.00  0.00     0.159 HD
ATOM     47  H   UNL     1      -9.181   0.875   3.163  1.00  0.00     0.159 HD
ATOM     48  H   UNL     1     -10.511  -1.831   0.489  1.00  0.00     0.159 HD
ATOM     49  H   UNL     1     -11.586  -0.984   1.555  1.00  0.00     0.159 HD
ENDBRANCH  41  42
ENDBRANCH  40  41
ENDBRANCH  39  40
ENDBRANCH  38  39
ENDBRANCH  36  38
ENDBRANCH   5  34
BRANCH   8  50
ATOM     50  O   UNL     1     -11.873  -2.949  -1.059  1.00  0.00    -0.245 OA
BRANCH  50  51
ATOM     51  S   UNL     1     -12.658  -1.684  -1.715  1.00  0.00     0.397 S 
ATOM     52  O   UNL     1     -12.275  -1.593  -3.106  1.00  0.00    -0.169 OA
ATOM     53  O   UNL     1     -12.570  -0.544  -0.827  1.00  0.00    -0.169 OA
BRANCH  51  54
ATOM     54  O   UNL     1     -14.182  -2.198  -1.712  1.00  0.00    -0.264 OA
ATOM     55  H   UNL     1     -14.513  -2.147  -0.793  1.00  0.00     0.236 HD
ENDBRANCH  51  54
ENDBRANCH  50  51
ENDBRANCH   8  50
TORSDOF 19
ENDMDL
MODEL 4
REMARK VINA RESULT:    -7.003      3.667      8.726
REMARK INTER + INTRA:         -17.362
REMARK INTER:                 -13.165
REMARK INTRA:                  -4.197
REMARK UNBOUND:                -3.195
REMARK SMILES CC[C@@H](C)[C@@H](NC(=O)[C@@H](O)Cc1ccc(O)c(Cl)c1)C(=O)N1[C@H](C(=O)NCCCCN=C(N)N)C[C@H]2CC[C@H](OS(=O)(=O)O)C[C@@H]21
REMARK SMILES IDX 22 1 36 2 46 3 35 4 23 5 45 6 37 7 39 8 38 9 20 10 21 11
REMARK SMILES IDX 5 12 6 13 7 14 8 15 9 17 11 18 12 19 17 20 19 21 15 22 14 23
REMARK SMILES IDX 13 24 18 25 16 26 10 28 3 30 4 31 2 32 1 33 24 34 25 35
REMARK SMILES IDX 26 36 27 38 28 39 29 40 30 41 31 42 32 43 33 44 34 45 40 50
REMARK SMILES IDX 41 51 42 52 43 53 44 54
REMARK H PARENT 6 16 16 27 10 29 26 37 33 46 33 47 34 48 34 49 44 55
ROOT
ATOM      1  N   UNL     1     -12.159  -4.425   5.956  1.00  0.00    -0.326 N 
ATOM      2  C   UNL     1     -11.728  -3.649   8.136  1.00  0.00     0.014 C 
ATOM      3  C   UNL     1     -12.419  -4.771   7.356  1.00  0.00     0.091 C 
ATOM      4  C   UNL     1     -11.931  -2.440   7.236  1.00  0.00     0.041 C 
ATOM      5  C   UNL     1     -11.587  -3.059   5.868  1.00  0.00     0.175 C 
ATOM      6  C   UNL     1     -11.904  -6.111   7.878  1.00  0.00     0.059 C 
ATOM      7  C   UNL     1     -12.222  -3.601   9.569  1.00  0.00     0.008 C 
ATOM      8  C   UNL     1     -11.534  -6.093   9.377  1.00  0.00     0.143 C 
ATOM      9  C   UNL     1     -12.327  -5.024  10.157  1.00  0.00     0.034 C 
ENDROOT
BRANCH   1  10
ATOM     10  C   UNL     1     -12.556  -5.066   4.794  1.00  0.00     0.246 C 
ATOM     11  O   UNL     1     -13.648  -5.642   4.769  1.00  0.00    -0.272 OA
BRANCH  10  12
ATOM     12  C   UNL     1     -11.641  -5.010   3.537  1.00  0.00     0.174 C 
BRANCH  12  13
ATOM     13  N   UNL     1     -12.371  -4.424   2.414  1.00  0.00    -0.342 N 
ATOM     14  C   UNL     1     -12.256  -3.119   1.991  1.00  0.00     0.249 C 
ATOM     15  O   UNL     1     -11.498  -2.302   2.498  1.00  0.00    -0.272 OA
ATOM     16  H   UNL     1     -13.148  -4.933   1.998  1.00  0.00     0.164 HD
BRANCH  14  17
ATOM     17  C   UNL     1     -13.172  -2.799   0.790  1.00  0.00     0.207 C 
BRANCH  17  18
ATOM     18  C   UNL     1     -12.336  -2.519  -0.462  1.00  0.00     0.077 C 
BRANCH  18  19
ATOM     19  C   UNL     1     -12.573  -3.554  -1.540  1.00  0.00    -0.043 A 
ATOM     20  C   UNL     1     -12.182  -5.767  -2.451  1.00  0.00     0.083 A 
ATOM     21  C   UNL     1     -12.002  -4.832  -1.432  1.00  0.00     0.028 A 
ATOM     22  C   UNL     1     -12.929  -5.434  -3.582  1.00  0.00     0.134 A 
ATOM     23  C   UNL     1     -13.500  -4.172  -3.701  1.00  0.00     0.048 A 
ATOM     24  C   UNL     1     -13.320  -3.232  -2.683  1.00  0.00     0.008 A 
ATOM     25  Cl  UNL     1     -11.473  -7.332  -2.301  1.00  0.00    -0.080 Cl
BRANCH  22  26
ATOM     26  O   UNL     1     -13.124  -6.314  -4.611  1.00  0.00    -0.506 OA
ATOM     27  H   UNL     1     -13.250  -7.193  -4.208  1.00  0.00     0.293 HD
ENDBRANCH  22  26
ENDBRANCH  18  19
ENDBRANCH  17  18
BRANCH  17  28
ATOM     28  O   UNL     1     -14.010  -1.666   1.067  1.00  0.00    -0.383 OA
ATOM     29  H   UNL     1     -13.679  -0.936   0.495  1.00  0.00     0.211 HD
ENDBRANCH  17  28
ENDBRANCH  14  17
ENDBRANCH  12  13
BRANCH  12  30
ATOM     30  C   UNL     1     -11.020  -6.389   3.185  1.00  0.00     0.018 C 
ATOM     31  C   UNL     1      -9.597  -6.509   3.753  1.00  0.00     0.010 C 
BRANCH  30  32
ATOM     32  C   UNL     1     -11.015  -6.700   1.668  1.00  0.00     0.002 C 
ATOM     33  C   UNL     1     -12.027  -7.744   1.214  1.00  0.00     0.004 C 
ENDBRANCH  30  32
ENDBRANCH  12  30
ENDBRANCH  10  12
ENDBRANCH   1  10
BRANCH   5  34
ATOM     34  C   UNL     1     -10.053  -3.118   5.638  1.00  0.00     0.242 C 
ATOM     35  O   UNL     1      -9.346  -3.995   6.136  1.00  0.00    -0.273 OA
ATOM     36  N   UNL     1      -9.534  -2.091   4.882  1.00  0.00    -0.354 N 
ATOM     37  H   UNL     1     -10.151  -1.329   4.598  1.00  0.00     0.163 HD
BRANCH  36  38
ATOM     38  C   UNL     1      -8.171  -2.104   4.391  1.00  0.00     0.116 C 
BRANCH  38  39
ATOM     39  C   UNL     1      -7.302  -1.187   5.248  1.00  0.00     0.023 C 
BRANCH  39  40
ATOM     40  C   UNL     1      -6.107  -1.916   5.853  1.00  0.00     0.026 C 
BRANCH  40  41
ATOM     41  C   UNL     1      -6.427  -2.401   7.267  1.00  0.00     0.146 C 
BRANCH  41  42
ATOM     42  N   UNL     1      -7.411  -1.519   7.880  1.00  0.00    -0.254 NA
ATOM     43  C   UNL     1      -8.256  -1.996   8.716  1.00  0.00     0.185 C 
ATOM     44  N   UNL     1      -8.411  -3.254   9.166  1.00  0.00    -0.370 N 
ATOM     45  N   UNL     1      -9.158  -1.167   9.266  1.00  0.00    -0.370 N 
ATOM     46  H   UNL     1      -9.261  -3.532   9.627  1.00  0.00     0.159 HD
ATOM     47  H   UNL     1      -7.803  -4.008   8.862  1.00  0.00     0.159 HD
ATOM     48  H   UNL     1      -9.105  -0.197   8.986  1.00  0.00     0.159 HD
ATOM     49  H   UNL     1      -9.685  -1.404  10.087  1.00  0.00     0.159 HD
ENDBRANCH  41  42
ENDBRANCH  40  41
ENDBRANCH  39  40
ENDBRANCH  38  39
ENDBRANCH  36  38
ENDBRANCH   5  34
BRANCH   8  50
ATOM     50  O   UNL     1     -10.140  -5.828   9.535  1.00  0.00    -0.245 OA
BRANCH  50  51
ATOM     51  S   UNL     1      -9.352  -6.421  10.829  1.00  0.00     0.397 S 
ATOM     52  O   UNL     1      -8.040  -6.848  10.395  1.00  0.00    -0.169 OA
ATOM     53  O   UNL     1     -10.230  -7.301  11.572  1.00  0.00    -0.169 OA
BRANCH  51  54
ATOM     54  O   UNL     1      -9.112  -5.099  11.711  1.00  0.00    -0.264 OA
ATOM     55  H   UNL     1      -9.181  -4.325  11.114  1.00  0.00     0.236 HD
ENDBRANCH  51  54
ENDBRANCH  50  51
ENDBRANCH   8  50
TORSDOF 19
ENDMDL
MODEL 5
REMARK VINA RESULT:    -6.940      3.053      5.796
REMARK INTER + INTRA:         -17.235
REMARK INTER:                 -13.799
REMARK INTRA:                  -3.436
REMARK UNBOUND:                -3.195
REMARK SMILES CC[C@@H](C)[C@@H](NC(=O)[C@@H](O)Cc1ccc(O)c(Cl)c1)C(=O)N1[C@H](C(=O)NCCCCN=C(N)N)C[C@H]2CC[C@H](OS(=O)(=O)O)C[C@@H]21
REMARK SMILES IDX 22 1 36 2 46 3 35 4 23 5 45 6 37 7 39 8 38 9 20 10 21 11
REMARK SMILES IDX 5 12 6 13 7 14 8 15 9 17 11 18 12 19 17 20 19 21 15 22 14 23
REMARK SMILES IDX 13 24 18 25 16 26 10 28 3 30 4 31 2 32 1 33 24 34 25 35
REMARK SMILES IDX 26 36 27 38 28 39 29 40 30 41 31 42 32 43 33 44 34 45 40 50
REMARK SMILES IDX 41 51 42 52 43 53 44 54
REMARK H PARENT 6 16 16 27 10 29 26 37 33 46 33 47 34 48 34 49 44 55
ROOT
ATOM      1  N   UNL     1      -9.764  -1.895   1.243  1.00  0.00    -0.326 N 
ATOM      2  C   UNL     1      -9.754  -3.170  -0.736  1.00  0.00     0.014 C 
ATOM      3  C   UNL     1      -8.832  -2.492   0.282  1.00  0.00     0.091 C 
ATOM      4  C   UNL     1     -10.948  -2.229  -0.786  1.00  0.00     0.041 C 
ATOM      5  C   UNL     1     -11.150  -1.966   0.718  1.00  0.00     0.175 C 
ATOM      6  C   UNL     1      -7.831  -3.527   0.791  1.00  0.00     0.059 C 
ATOM      7  C   UNL     1      -9.006  -3.490  -2.016  1.00  0.00     0.008 C 
ATOM      8  C   UNL     1      -7.455  -4.596  -0.258  1.00  0.00     0.143 C 
ATOM      9  C   UNL     1      -7.613  -4.074  -1.700  1.00  0.00     0.034 C 
ENDROOT
BRANCH   1  10
ATOM     10  C   UNL     1      -9.509  -1.138   2.374  1.00  0.00     0.246 C 
ATOM     11  O   UNL     1      -9.650   0.088   2.321  1.00  0.00    -0.272 OA
BRANCH  10  12
ATOM     12  C   UNL     1      -9.095  -1.849   3.695  1.00  0.00     0.174 C 
BRANCH  12  13
ATOM     13  N   UNL     1     -10.285  -2.193   4.471  1.00  0.00    -0.342 N 
ATOM     14  C   UNL     1     -10.731  -3.473   4.709  1.00  0.00     0.249 C 
ATOM     15  O   UNL     1     -10.156  -4.480   4.315  1.00  0.00    -0.272 OA
ATOM     16  H   UNL     1     -10.947  -1.464   4.728  1.00  0.00     0.164 HD
BRANCH  14  17
ATOM     17  C   UNL     1     -12.027  -3.507   5.548  1.00  0.00     0.207 C 
BRANCH  17  18
ATOM     18  C   UNL     1     -11.944  -4.600   6.618  1.00  0.00     0.077 C 
BRANCH  18  19
ATOM     19  C   UNL     1     -12.105  -4.036   8.012  1.00  0.00    -0.043 A 
ATOM     20  C   UNL     1     -11.951  -2.172   9.556  1.00  0.00     0.083 A 
ATOM     21  C   UNL     1     -11.849  -2.678   8.260  1.00  0.00     0.028 A 
ATOM     22  C   UNL     1     -12.307  -3.015  10.609  1.00  0.00     0.134 A 
ATOM     23  C   UNL     1     -12.563  -4.361  10.377  1.00  0.00     0.048 A 
ATOM     24  C   UNL     1     -12.461  -4.872   9.081  1.00  0.00     0.008 A 
ATOM     25  Cl  UNL     1     -11.632  -0.501   9.842  1.00  0.00    -0.080 Cl
BRANCH  22  26
ATOM     26  O   UNL     1     -12.409  -2.566  11.898  1.00  0.00    -0.506 OA
ATOM     27  H   UNL     1     -11.562  -2.772  12.335  1.00  0.00     0.293 HD
ENDBRANCH  22  26
ENDBRANCH  18  19
ENDBRANCH  17  18
BRANCH  17  28
ATOM     28  O   UNL     1     -13.175  -3.739   4.717  1.00  0.00    -0.383 OA
ATOM     29  H   UNL     1     -12.857  -4.283   3.960  1.00  0.00     0.211 HD
ENDBRANCH  17  28
ENDBRANCH  14  17
ENDBRANCH  12  13
BRANCH  12  30
ATOM     30  C   UNL     1      -8.066  -1.030   4.519  1.00  0.00     0.018 C 
ATOM     31  C   UNL     1      -6.656  -1.162   3.921  1.00  0.00     0.010 C 
BRANCH  30  32
ATOM     32  C   UNL     1      -8.041  -1.396   6.023  1.00  0.00     0.002 C 
ATOM     33  C   UNL     1      -6.667  -1.722   6.592  1.00  0.00     0.004 C 
ENDBRANCH  30  32
ENDBRANCH  12  30
ENDBRANCH  10  12
ENDBRANCH   1  10
BRANCH   5  34
ATOM     34  C   UNL     1     -11.938  -3.117   1.398  1.00  0.00     0.242 C 
ATOM     35  O   UNL     1     -13.006  -2.929   1.981  1.00  0.00    -0.273 OA
ATOM     36  N   UNL     1     -11.331  -4.352   1.349  1.00  0.00    -0.354 N 
ATOM     37  H   UNL     1     -10.391  -4.422   0.957  1.00  0.00     0.163 HD
BRANCH  36  38
ATOM     38  C   UNL     1     -12.016  -5.567   1.738  1.00  0.00     0.116 C 
BRANCH  38  39
ATOM     39  C   UNL     1     -11.785  -6.651   0.689  1.00  0.00     0.023 C 
BRANCH  39  40
ATOM     40  C   UNL     1     -12.828  -6.618  -0.423  1.00  0.00     0.026 C 
BRANCH  40  41
ATOM     41  C   UNL     1     -12.420  -5.638  -1.522  1.00  0.00     0.146 C 
BRANCH  41  42
ATOM     42  N   UNL     1     -11.377  -6.231  -2.349  1.00  0.00    -0.254 NA
ATOM     43  C   UNL     1     -11.613  -6.480  -3.582  1.00  0.00     0.185 C 
ATOM     44  N   UNL     1     -12.728  -6.279  -4.308  1.00  0.00    -0.370 N 
ATOM     45  N   UNL     1     -10.641  -7.032  -4.327  1.00  0.00    -0.370 N 
ATOM     46  H   UNL     1     -12.856  -6.742  -5.192  1.00  0.00     0.159 HD
ATOM     47  H   UNL     1     -13.558  -5.856  -3.904  1.00  0.00     0.159 HD
ATOM     48  H   UNL     1      -9.763  -7.209  -3.858  1.00  0.00     0.159 HD
ATOM     49  H   UNL     1     -10.662  -7.037  -5.331  1.00  0.00     0.159 HD
ENDBRANCH  41  42
ENDBRANCH  40  41
ENDBRANCH  39  40
ENDBRANCH  38  39
ENDBRANCH  36  38
ENDBRANCH   5  34
BRANCH   8  50
ATOM     50  O   UNL     1      -8.282  -5.750  -0.101  1.00  0.00    -0.245 OA
BRANCH  50  51
ATOM     51  S   UNL     1      -7.831  -6.927   0.928  1.00  0.00     0.397 S 
ATOM     52  O   UNL     1      -8.565  -6.747   2.160  1.00  0.00    -0.169 OA
ATOM     53  O   UNL     1      -6.389  -7.058   0.914  1.00  0.00    -0.169 OA
BRANCH  51  54
ATOM     54  O   UNL     1      -8.455  -8.236   0.233  1.00  0.00    -0.264 OA
ATOM     55  H   UNL     1      -9.430  -8.179   0.309  1.00  0.00     0.236 HD
ENDBRANCH  51  54
ENDBRANCH  50  51
ENDBRANCH   8  50
TORSDOF 19
ENDMDL
MODEL 6
REMARK VINA RESULT:    -6.939      3.877      8.388
REMARK INTER + INTRA:         -17.233
REMARK INTER:                 -12.516
REMARK INTRA:                  -4.716
REMARK UNBOUND:                -3.195
REMARK SMILES CC[C@@H](C)[C@@H](NC(=O)[C@@H](O)Cc1ccc(O)c(Cl)c1)C(=O)N1[C@H](C(=O)NCCCCN=C(N)N)C[C@H]2CC[C@H](OS(=O)(=O)O)C[C@@H]21
REMARK SMILES IDX 22 1 36 2 46 3 35 4 23 5 45 6 37 7 39 8 38 9 20 10 21 11
REMARK SMILES IDX 5 12 6 13 7 14 8 15 9 17 11 18 12 19 17 20 19 21 15 22 14 23
REMARK SMILES IDX 13 24 18 25 16 26 10 28 3 30 4 31 2 32 1 33 24 34 25 35
REMARK SMILES IDX 26 36 27 38 28 39 29 40 30 41 31 42 32 43 33 44 34 45 40 50
REMARK SMILES IDX 41 51 42 52 43 53 44 54
REMARK H PARENT 6 16 16 27 10 29 26 37 33 46 33 47 34 48 34 49 44 55
ROOT
ATOM      1  N   UNL     1     -11.806  -5.688   5.984  1.00  0.00    -0.326 N 
ATOM      2  C   UNL     1     -10.928  -6.158   8.117  1.00  0.00     0.014 C 
ATOM      3  C   UNL     1     -10.988  -6.685   6.680  1.00  0.00     0.091 C 
ATOM      4  C   UNL     1     -12.299  -5.525   8.299  1.00  0.00     0.041 C 
ATOM      5  C   UNL     1     -12.426  -4.764   6.966  1.00  0.00     0.175 C 
ATOM      6  C   UNL     1      -9.560  -6.919   6.191  1.00  0.00     0.059 C 
ATOM      7  C   UNL     1     -10.478  -7.244   9.074  1.00  0.00     0.008 C 
ATOM      8  C   UNL     1      -8.581  -7.337   7.310  1.00  0.00     0.143 C 
ATOM      9  C   UNL     1      -9.301  -8.044   8.476  1.00  0.00     0.034 C 
ENDROOT
BRANCH   1  10
ATOM     10  C   UNL     1     -12.218  -5.644   4.662  1.00  0.00     0.246 C 
ATOM     11  O   UNL     1     -13.427  -5.673   4.408  1.00  0.00    -0.272 OA
BRANCH  10  12
ATOM     12  C   UNL     1     -11.156  -5.515   3.532  1.00  0.00     0.174 C 
BRANCH  12  13
ATOM     13  N   UNL     1     -11.415  -4.314   2.739  1.00  0.00    -0.342 N 
ATOM     14  C   UNL     1     -10.491  -3.329   2.472  1.00  0.00     0.249 C 
ATOM     15  O   UNL     1      -9.327  -3.364   2.853  1.00  0.00    -0.272 OA
ATOM     16  H   UNL     1     -12.370  -4.071   2.490  1.00  0.00     0.164 HD
BRANCH  14  17
ATOM     17  C   UNL     1     -11.073  -2.180   1.622  1.00  0.00     0.207 C 
BRANCH  17  18
ATOM     18  C   UNL     1     -10.444  -2.175   0.225  1.00  0.00     0.077 C 
BRANCH  18  19
ATOM     19  C   UNL     1     -11.448  -2.543  -0.845  1.00  0.00    -0.043 A 
ATOM     20  C   UNL     1     -12.590  -4.225  -2.166  1.00  0.00     0.083 A 
ATOM     21  C   UNL     1     -11.701  -3.890  -1.145  1.00  0.00     0.028 A 
ATOM     22  C   UNL     1     -13.230  -3.220  -2.893  1.00  0.00     0.134 A 
ATOM     23  C   UNL     1     -12.988  -1.882  -2.606  1.00  0.00     0.048 A 
ATOM     24  C   UNL     1     -12.097  -1.543  -1.586  1.00  0.00     0.008 A 
ATOM     25  Cl  UNL     1     -12.888  -5.887  -2.521  1.00  0.00    -0.080 Cl
BRANCH  22  26
ATOM     26  O   UNL     1     -14.102  -3.500  -3.910  1.00  0.00    -0.506 OA
ATOM     27  H   UNL     1     -14.831  -4.017  -3.520  1.00  0.00     0.293 HD
ENDBRANCH  22  26
ENDBRANCH  18  19
ENDBRANCH  17  18
BRANCH  17  28
ATOM     28  O   UNL     1     -10.851  -0.907   2.250  1.00  0.00    -0.383 OA
ATOM     29  H   UNL     1      -9.924  -0.926   2.582  1.00  0.00     0.211 HD
ENDBRANCH  17  28
ENDBRANCH  14  17
ENDBRANCH  12  13
BRANCH  12  30
ATOM     30  C   UNL     1     -11.054  -6.793   2.657  1.00  0.00     0.018 C 
ATOM     31  C   UNL     1      -9.587  -7.116   2.330  1.00  0.00     0.010 C 
BRANCH  30  32
ATOM     32  C   UNL     1     -11.886  -6.721   1.353  1.00  0.00     0.002 C 
ATOM     33  C   UNL     1     -11.655  -7.861   0.369  1.00  0.00     0.004 C 
ENDBRANCH  30  32
ENDBRANCH  12  30
ENDBRANCH  10  12
ENDBRANCH   1  10
BRANCH   5  34
ATOM     34  C   UNL     1     -11.667  -3.411   7.004  1.00  0.00     0.242 C 
ATOM     35  O   UNL     1     -10.761  -3.143   6.215  1.00  0.00    -0.273 OA
ATOM     36  N   UNL     1     -12.043  -2.557   8.016  1.00  0.00    -0.354 N 
ATOM     37  H   UNL     1     -12.715  -2.884   8.711  1.00  0.00     0.163 HD
BRANCH  36  38
ATOM     38  C   UNL     1     -11.597  -1.180   8.071  1.00  0.00     0.116 C 
BRANCH  38  39
ATOM     39  C   UNL     1     -11.622  -0.685   9.515  1.00  0.00     0.023 C 
BRANCH  39  40
ATOM     40  C   UNL     1     -10.353   0.071   9.894  1.00  0.00     0.026 C 
BRANCH  40  41
ATOM     41  C   UNL     1      -9.116  -0.635   9.338  1.00  0.00     0.146 C 
BRANCH  41  42
ATOM     42  N   UNL     1      -8.931  -1.911  10.015  1.00  0.00    -0.254 NA
ATOM     43  C   UNL     1      -8.564  -2.937   9.342  1.00  0.00     0.185 C 
ATOM     44  N   UNL     1      -8.298  -3.061   8.029  1.00  0.00    -0.370 N 
ATOM     45  N   UNL     1      -8.403  -4.106   9.984  1.00  0.00    -0.370 N 
ATOM     46  H   UNL     1      -8.260  -3.969   7.597  1.00  0.00     0.159 HD
ATOM     47  H   UNL     1      -8.357  -2.270   7.396  1.00  0.00     0.159 HD
ATOM     48  H   UNL     1      -8.576  -4.098  10.980  1.00  0.00     0.159 HD
ATOM     49  H   UNL     1      -7.900  -4.880   9.587  1.00  0.00     0.159 HD
ENDBRANCH  41  42
ENDBRANCH  40  41
ENDBRANCH  39  40
ENDBRANCH  38  39
ENDBRANCH  36  38
ENDBRANCH   5  34
BRANCH   8  50
ATOM     50  O   UNL     1      -7.905  -6.190   7.823  1.00  0.00    -0.245 OA
BRANCH  50  51
ATOM     51  S   UNL     1      -6.400  -5.847   7.309  1.00  0.00     0.397 S 
ATOM     52  O   UNL     1      -6.505  -4.916   6.209  1.00  0.00    -0.169 OA
ATOM     53  O   UNL     1      -5.634  -7.071   7.198  1.00  0.00    -0.169 OA
BRANCH  51  54
ATOM     54  O   UNL     1      -5.808  -5.003   8.543  1.00  0.00    -0.264 OA
ATOM     55  H   UNL     1      -5.366  -4.210   8.177  1.00  0.00     0.236 HD
ENDBRANCH  51  54
ENDBRANCH  50  51
ENDBRANCH   8  50
TORSDOF 19
ENDMDL
MODEL 7
REMARK VINA RESULT:    -6.930      3.355      7.401
REMARK INTER + INTRA:         -17.214
REMARK INTER:                 -13.338
REMARK INTRA:                  -3.876
REMARK UNBOUND:                -3.195
REMARK SMILES CC[C@@H](C)[C@@H](NC(=O)[C@@H](O)Cc1ccc(O)c(Cl)c1)C(=O)N1[C@H](C(=O)NCCCCN=C(N)N)C[C@H]2CC[C@H](OS(=O)(=O)O)C[C@@H]21
REMARK SMILES IDX 22 1 36 2 46 3 35 4 23 5 45 6 37 7 39 8 38 9 20 10 21 11
REMARK SMILES IDX 5 12 6 13 7 14 8 15 9 17 11 18 12 19 17 20 19 21 15 22 14 23
REMARK SMILES IDX 13 24 18 25 16 26 10 28 3 30 4 31 2 32 1 33 24 34 25 35
REMARK SMILES IDX 26 36 27 38 28 39 29 40 30 41 31 42 32 43 33 44 34 45 40 50
REMARK SMILES IDX 41 51 42 52 43 53 44 54
REMARK H PARENT 6 16 16 27 10 29 26 37 33 46 33 47 34 48 34 49 44 55
ROOT
ATOM      1  N   UNL     1     -10.225  -5.008   2.938  1.00  0.00    -0.326 N 
ATOM      2  C   UNL     1     -10.831  -7.114   2.077  1.00  0.00     0.014 C 
ATOM      3  C   UNL     1      -9.761  -6.022   1.986  1.00  0.00     0.091 C 
ATOM      4  C   UNL     1     -12.104  -6.317   2.318  1.00  0.00     0.041 C 
ATOM      5  C   UNL     1     -11.605  -5.322   3.383  1.00  0.00     0.175 C 
ATOM      6  C   UNL     1      -8.395  -6.663   2.218  1.00  0.00     0.059 C 
ATOM      7  C   UNL     1     -10.754  -8.049   0.887  1.00  0.00     0.008 C 
ATOM      8  C   UNL     1      -8.300  -8.121   1.719  1.00  0.00     0.143 C 
ATOM      9  C   UNL     1      -9.286  -8.406   0.569  1.00  0.00     0.034 C 
ENDROOT
BRANCH   1  10
ATOM     10  C   UNL     1      -9.671  -3.783   3.270  1.00  0.00     0.246 C 
ATOM     11  O   UNL     1      -8.783  -3.738   4.127  1.00  0.00    -0.272 OA
BRANCH  10  12
ATOM     12  C   UNL     1     -10.147  -2.501   2.528  1.00  0.00     0.174 C 
BRANCH  12  13
ATOM     13  N   UNL     1     -10.559  -2.836   1.166  1.00  0.00    -0.342 N 
ATOM     14  C   UNL     1     -11.833  -2.687   0.666  1.00  0.00     0.249 C 
ATOM     15  O   UNL     1     -12.768  -2.224   1.308  1.00  0.00    -0.272 OA
ATOM     16  H   UNL     1      -9.935  -3.373   0.568  1.00  0.00     0.164 HD
BRANCH  14  17
ATOM     17  C   UNL     1     -11.955  -3.146  -0.803  1.00  0.00     0.207 C 
BRANCH  17  18
ATOM     18  C   UNL     1     -10.628  -3.737  -1.291  1.00  0.00     0.077 C 
BRANCH  18  19
ATOM     19  C   UNL     1     -10.793  -5.157  -1.783  1.00  0.00    -0.043 A 
ATOM     20  C   UNL     1      -9.850  -7.166  -2.763  1.00  0.00     0.083 A 
ATOM     21  C   UNL     1      -9.686  -5.873  -2.263  1.00  0.00     0.028 A 
ATOM     22  C   UNL     1     -11.117  -7.749  -2.789  1.00  0.00     0.134 A 
ATOM     23  C   UNL     1     -12.223  -7.051  -2.316  1.00  0.00     0.048 A 
ATOM     24  C   UNL     1     -12.062  -5.756  -1.817  1.00  0.00     0.008 A 
ATOM     25  Cl  UNL     1      -8.477  -8.030  -3.349  1.00  0.00    -0.080 Cl
BRANCH  22  26
ATOM     26  O   UNL     1     -11.329  -9.009  -3.279  1.00  0.00    -0.506 OA
ATOM     27  H   UNL     1     -11.830  -9.494  -2.597  1.00  0.00     0.293 HD
ENDBRANCH  22  26
ENDBRANCH  18  19
ENDBRANCH  17  18
BRANCH  17  28
ATOM     28  O   UNL     1     -12.333  -2.055  -1.657  1.00  0.00    -0.383 OA
ATOM     29  H   UNL     1     -12.010  -2.288  -2.556  1.00  0.00     0.211 HD
ENDBRANCH  17  28
ENDBRANCH  14  17
ENDBRANCH  12  13
BRANCH  12  30
ATOM     30  C   UNL     1      -9.093  -1.361   2.564  1.00  0.00     0.018 C 
ATOM     31  C   UNL     1      -9.776   0.016   2.530  1.00  0.00     0.010 C 
BRANCH  30  32
ATOM     32  C   UNL     1      -8.034  -1.458   1.440  1.00  0.00     0.002 C 
ATOM     33  C   UNL     1      -7.105  -0.257   1.315  1.00  0.00     0.004 C 
ENDBRANCH  30  32
ENDBRANCH  12  30
ENDBRANCH  10  12
ENDBRANCH   1  10
BRANCH   5  34
ATOM     34  C   UNL     1     -11.595  -5.957   4.799  1.00  0.00     0.242 C 
ATOM     35  O   UNL     1     -10.694  -6.704   5.179  1.00  0.00    -0.273 OA
ATOM     36  N   UNL     1     -12.694  -5.668   5.577  1.00  0.00    -0.354 N 
ATOM     37  H   UNL     1     -13.465  -5.142   5.164  1.00  0.00     0.163 HD
BRANCH  36  38
ATOM     38  C   UNL     1     -12.749  -5.995   6.987  1.00  0.00     0.116 C 
BRANCH  38  39
ATOM     39  C   UNL     1     -12.600  -4.723   7.820  1.00  0.00     0.023 C 
BRANCH  39  40
ATOM     40  C   UNL     1     -11.203  -4.120   7.717  1.00  0.00     0.026 C 
BRANCH  40  41
ATOM     41  C   UNL     1     -11.260  -2.721   7.104  1.00  0.00     0.146 C 
BRANCH  41  42
ATOM     42  N   UNL     1     -11.769  -1.773   8.087  1.00  0.00    -0.254 NA
ATOM     43  C   UNL     1     -11.287  -0.588   8.130  1.00  0.00     0.185 C 
ATOM     44  N   UNL     1     -10.329  -0.014   7.380  1.00  0.00    -0.370 N 
ATOM     45  N   UNL     1     -11.766   0.270   9.047  1.00  0.00    -0.370 N 
ATOM     46  H   UNL     1      -9.882   0.835   7.680  1.00  0.00     0.159 HD
ATOM     47  H   UNL     1      -9.868  -0.518   6.629  1.00  0.00     0.159 HD
ATOM     48  H   UNL     1     -12.499  -0.080   9.649  1.00  0.00     0.159 HD
ATOM     49  H   UNL     1     -11.619   1.262   8.993  1.00  0.00     0.159 HD
ENDBRANCH  41  42
ENDBRANCH  40  41
ENDBRANCH  39  40
ENDBRANCH  38  39
ENDBRANCH  36  38
ENDBRANCH   5  34
BRANCH   8  50
ATOM     50  O   UNL     1      -8.579  -9.025   2.790  1.00  0.00    -0.245 OA
BRANCH  50  51
ATOM     51  S   UNL     1      -7.784 -10.441   2.873  1.00  0.00     0.397 S 
ATOM     52  O   UNL     1      -7.596 -10.766   4.269  1.00  0.00    -0.169 OA
ATOM     53  O   UNL     1      -6.677 -10.433   1.939  1.00  0.00    -0.169 OA
BRANCH  51  54
ATOM     54  O   UNL     1      -8.886 -11.477   2.327  1.00  0.00    -0.264 OA
ATOM     55  H   UNL     1      -9.596 -11.539   2.998  1.00  0.00     0.236 HD
ENDBRANCH  51  54
ENDBRANCH  50  51
ENDBRANCH   8  50
TORSDOF 19
ENDMDL
MODEL 8
REMARK VINA RESULT:    -6.837      2.881      5.163
REMARK INTER + INTRA:         -17.026
REMARK INTER:                 -12.407
REMARK INTRA:                  -4.620
REMARK UNBOUND:                -3.195
REMARK SMILES CC[C@@H](C)[C@@H](NC(=O)[C@@H](O)Cc1ccc(O)c(Cl)c1)C(=O)N1[C@H](C(=O)NCCCCN=C(N)N)C[C@H]2CC[C@H](OS(=O)(=O)O)C[C@@H]21
REMARK SMILES IDX 22 1 36 2 46 3 35 4 23 5 45 6 37 7 39 8 38 9 20 10 21 11
REMARK SMILES IDX 5 12 6 13 7 14 8 15 9 17 11 18 12 19 17 20 19 21 15 22 14 23
REMARK SMILES IDX 13 24 18 25 16 26 10 28 3 30 4 31 2 32 1 33 24 34 25 35
REMARK SMILES IDX 26 36 27 38 28 39 29 40 30 41 31 42 32 43 33 44 34 45 40 50
REMARK SMILES IDX 41 51 42 52 43 53 44 54
REMARK H PARENT 6 16 16 27 10 29 26 37 33 46 33 47 34 48 34 49 44 55
ROOT
ATOM      1  N   UNL     1      -9.391  -2.178   1.868  1.00  0.00    -0.326 N 
ATOM      2  C   UNL     1      -9.234  -3.596  -0.004  1.00  0.00     0.014 C 
ATOM      3  C   UNL     1      -8.392  -2.876   1.053  1.00  0.00     0.091 C 
ATOM      4  C   UNL     1     -10.377  -2.622  -0.243  1.00  0.00     0.041 C 
ATOM      5  C   UNL     1     -10.719  -2.242   1.209  1.00  0.00     0.175 C 
ATOM      6  C   UNL     1      -7.491  -3.903   1.735  1.00  0.00     0.059 C 
ATOM      7  C   UNL     1      -8.374  -4.035  -1.174  1.00  0.00     0.008 C 
ATOM      8  C   UNL     1      -7.055  -5.059   0.809  1.00  0.00     0.143 C 
ATOM      9  C   UNL     1      -7.045  -4.640  -0.675  1.00  0.00     0.034 C 
ENDROOT
BRANCH   1  10
ATOM     10  C   UNL     1      -9.221  -1.348   2.963  1.00  0.00     0.246 C 
ATOM     11  O   UNL     1      -9.301  -0.125   2.809  1.00  0.00    -0.272 OA
BRANCH  10  12
ATOM     12  C   UNL     1      -8.975  -1.972   4.368  1.00  0.00     0.174 C 
BRANCH  12  13
ATOM     13  N   UNL     1     -10.254  -2.251   5.020  1.00  0.00    -0.342 N 
ATOM     14  C   UNL     1     -10.745  -3.508   5.291  1.00  0.00     0.249 C 
ATOM     15  O   UNL     1     -10.144  -4.545   5.036  1.00  0.00    -0.272 OA
ATOM     16  H   UNL     1     -10.929  -1.501   5.147  1.00  0.00     0.164 HD
BRANCH  14  17
ATOM     17  C   UNL     1     -12.130  -3.473   5.971  1.00  0.00     0.207 C 
BRANCH  17  18
ATOM     18  C   UNL     1     -12.012  -3.869   7.446  1.00  0.00     0.077 C 
BRANCH  18  19
ATOM     19  C   UNL     1     -11.473  -2.737   8.291  1.00  0.00    -0.043 A 
ATOM     20  C   UNL     1     -10.117  -1.958  10.145  1.00  0.00     0.083 A 
ATOM     21  C   UNL     1     -10.574  -2.999   9.337  1.00  0.00     0.028 A 
ATOM     22  C   UNL     1     -10.555  -0.653   9.917  1.00  0.00     0.134 A 
ATOM     23  C   UNL     1     -11.445  -0.379   8.886  1.00  0.00     0.048 A 
ATOM     24  C   UNL     1     -11.906  -1.419   8.075  1.00  0.00     0.008 A 
ATOM     25  Cl  UNL     1      -9.013  -2.300  11.425  1.00  0.00    -0.080 Cl
BRANCH  22  26
ATOM     26  O   UNL     1     -10.143   0.399  10.691  1.00  0.00    -0.506 OA
ATOM     27  H   UNL     1     -10.942   0.912  10.915  1.00  0.00     0.293 HD
ENDBRANCH  22  26
ENDBRANCH  18  19
ENDBRANCH  17  18
BRANCH  17  28
ATOM     28  O   UNL     1     -13.052  -4.356   5.313  1.00  0.00    -0.383 OA
ATOM     29  H   UNL     1     -13.952  -4.033   5.547  1.00  0.00     0.211 HD
ENDBRANCH  17  28
ENDBRANCH  14  17
ENDBRANCH  12  13
BRANCH  12  30
ATOM     30  C   UNL     1      -8.035  -1.108   5.251  1.00  0.00     0.018 C 
ATOM     31  C   UNL     1      -6.563  -1.478   5.007  1.00  0.00     0.010 C 
BRANCH  30  32
ATOM     32  C   UNL     1      -8.359  -1.186   6.763  1.00  0.00     0.002 C 
ATOM     33  C   UNL     1      -7.301  -1.867   7.622  1.00  0.00     0.004 C 
ENDBRANCH  30  32
ENDBRANCH  12  30
ENDBRANCH  10  12
ENDBRANCH   1  10
BRANCH   5  34
ATOM     34  C   UNL     1     -11.618  -3.312   1.884  1.00  0.00     0.242 C 
ATOM     35  O   UNL     1     -12.679  -3.026   2.438  1.00  0.00    -0.273 OA
ATOM     36  N   UNL     1     -11.116  -4.594   1.865  1.00  0.00    -0.354 N 
ATOM     37  H   UNL     1     -10.177  -4.749   1.497  1.00  0.00     0.163 HD
BRANCH  36  38
ATOM     38  C   UNL     1     -11.911  -5.741   2.253  1.00  0.00     0.116 C 
BRANCH  38  39
ATOM     39  C   UNL     1     -11.828  -6.818   1.173  1.00  0.00     0.023 C 
BRANCH  39  40
ATOM     40  C   UNL     1     -11.424  -6.253  -0.184  1.00  0.00     0.026 C 
BRANCH  40  41
ATOM     41  C   UNL     1     -12.654  -6.023  -1.063  1.00  0.00     0.146 C 
BRANCH  41  42
ATOM     42  N   UNL     1     -13.299  -4.770  -0.690  1.00  0.00    -0.254 NA
ATOM     43  C   UNL     1     -13.437  -3.845  -1.564  1.00  0.00     0.185 C 
ATOM     44  N   UNL     1     -13.072  -3.816  -2.858  1.00  0.00    -0.370 N 
ATOM     45  N   UNL     1     -14.030  -2.696  -1.199  1.00  0.00    -0.370 N 
ATOM     46  H   UNL     1     -13.021  -2.944  -3.357  1.00  0.00     0.159 HD
ATOM     47  H   UNL     1     -12.621  -4.610  -3.303  1.00  0.00     0.159 HD
ATOM     48  H   UNL     1     -14.344  -2.639  -0.240  1.00  0.00     0.159 HD
ATOM     49  H   UNL     1     -14.385  -2.032  -1.864  1.00  0.00     0.159 HD
ENDBRANCH  41  42
ENDBRANCH  40  41
ENDBRANCH  39  40
ENDBRANCH  38  39
ENDBRANCH  36  38
ENDBRANCH   5  34
BRANCH   8  50
ATOM     50  O   UNL     1      -7.939  -6.169   0.961  1.00  0.00    -0.245 OA
BRANCH  50  51
ATOM     51  S   UNL     1      -7.806  -7.129   2.268  1.00  0.00     0.397 S 
ATOM     52  O   UNL     1      -6.466  -6.988   2.791  1.00  0.00    -0.169 OA
ATOM     53  O   UNL     1      -8.375  -8.429   1.976  1.00  0.00    -0.169 OA
BRANCH  51  54
ATOM     54  O   UNL     1      -8.769  -6.393   3.325  1.00  0.00    -0.264 OA
ATOM     55  H   UNL     1      -8.356  -5.536   3.557  1.00  0.00     0.236 HD
ENDBRANCH  51  54
ENDBRANCH  50  51
ENDBRANCH   8  50
TORSDOF 19
ENDMDL
MODEL 9
REMARK VINA RESULT:    -6.813      3.214      4.267
REMARK INTER + INTRA:         -16.977
REMARK INTER:                 -13.957
REMARK INTRA:                  -3.020
REMARK UNBOUND:                -3.195
REMARK SMILES CC[C@@H](C)[C@@H](NC(=O)[C@@H](O)Cc1ccc(O)c(Cl)c1)C(=O)N1[C@H](C(=O)NCCCCN=C(N)N)C[C@H]2CC[C@H](OS(=O)(=O)O)C[C@@H]21
REMARK SMILES IDX 22 1 36 2 46 3 35 4 23 5 45 6 37 7 39 8 38 9 20 10 21 11
REMARK SMILES IDX 5 12 6 13 7 14 8 15 9 17 11 18 12 19 17 20 19 21 15 22 14 23
REMARK SMILES IDX 13 24 18 25 16 26 10 28 3 30 4 31 2 32 1 33 24 34 25 35
REMARK SMILES IDX 26 36 27 38 28 39 29 40 30 41 31 42 32 43 33 44 34 45 40 50
REMARK SMILES IDX 41 51 42 52 43 53 44 54
REMARK H PARENT 6 16 16 27 10 29 26 37 33 46 33 47 34 48 34 49 44 55
ROOT
ATOM      1  N   UNL     1     -10.999  -3.695   4.405  1.00  0.00    -0.326 N 
ATOM      2  C   UNL     1      -9.134  -4.522   3.231  1.00  0.00     0.014 C 
ATOM      3  C   UNL     1     -10.251  -4.938   4.192  1.00  0.00     0.091 C 
ATOM      4  C   UNL     1      -8.822  -3.101   3.674  1.00  0.00     0.041 C 
ATOM      5  C   UNL     1     -10.249  -2.548   3.838  1.00  0.00     0.175 C 
ATOM      6  C   UNL     1     -10.988  -6.132   3.589  1.00  0.00     0.059 C 
ATOM      7  C   UNL     1      -8.024  -5.555   3.210  1.00  0.00     0.008 C 
ATOM      8  C   UNL     1     -10.088  -7.051   2.734  1.00  0.00     0.143 C 
ATOM      9  C   UNL     1      -8.610  -6.983   3.171  1.00  0.00     0.034 C 
ENDROOT
BRANCH   1  10
ATOM     10  C   UNL     1     -12.108  -3.452   5.198  1.00  0.00     0.246 C 
ATOM     11  O   UNL     1     -13.214  -3.329   4.662  1.00  0.00    -0.272 OA
BRANCH  10  12
ATOM     12  C   UNL     1     -11.945  -3.380   6.744  1.00  0.00     0.174 C 
BRANCH  12  13
ATOM     13  N   UNL     1     -10.972  -2.346   7.095  1.00  0.00    -0.342 N 
ATOM     14  C   UNL     1     -11.116  -1.442   8.124  1.00  0.00     0.249 C 
ATOM     15  O   UNL     1     -12.075  -1.423   8.885  1.00  0.00    -0.272 OA
ATOM     16  H   UNL     1     -10.205  -2.140   6.460  1.00  0.00     0.164 HD
BRANCH  14  17
ATOM     17  C   UNL     1      -9.925  -0.466   8.230  1.00  0.00     0.207 C 
BRANCH  17  18
ATOM     18  C   UNL     1      -9.684  -0.071   9.690  1.00  0.00     0.077 C 
BRANCH  18  19
ATOM     19  C   UNL     1      -8.228  -0.204  10.075  1.00  0.00    -0.043 A 
ATOM     20  C   UNL     1      -6.314   0.556  11.357  1.00  0.00     0.083 A 
ATOM     21  C   UNL     1      -7.669   0.649  11.040  1.00  0.00     0.028 A 
ATOM     22  C   UNL     1      -5.509  -0.384  10.713  1.00  0.00     0.134 A 
ATOM     23  C   UNL     1      -6.049  -1.235   9.756  1.00  0.00     0.048 A 
ATOM     24  C   UNL     1      -7.405  -1.144   9.435  1.00  0.00     0.008 A 
ATOM     25  Cl  UNL     1      -5.646   1.613  12.544  1.00  0.00    -0.080 Cl
BRANCH  22  26
ATOM     26  O   UNL     1      -4.172  -0.505  10.983  1.00  0.00    -0.506 OA
ATOM     27  H   UNL     1      -3.774   0.371  10.824  1.00  0.00     0.293 HD
ENDBRANCH  22  26
ENDBRANCH  18  19
ENDBRANCH  17  18
BRANCH  17  28
ATOM     28  O   UNL     1     -10.156   0.718   7.449  1.00  0.00    -0.383 OA
ATOM     29  H   UNL     1     -11.114   0.923   7.542  1.00  0.00     0.211 HD
ENDBRANCH  17  28
ENDBRANCH  14  17
ENDBRANCH  12  13
BRANCH  12  30
ATOM     30  C   UNL     1     -11.601  -4.756   7.375  1.00  0.00     0.018 C 
ATOM     31  C   UNL     1     -12.643  -5.814   6.980  1.00  0.00     0.010 C 
BRANCH  30  32
ATOM     32  C   UNL     1     -11.446  -4.712   8.915  1.00  0.00     0.002 C 
ATOM     33  C   UNL     1     -12.741  -4.845   9.704  1.00  0.00     0.004 C 
ENDBRANCH  30  32
ENDBRANCH  12  30
ENDBRANCH  10  12
ENDBRANCH   1  10
BRANCH   5  34
ATOM     34  C   UNL     1     -10.854  -2.114   2.476  1.00  0.00     0.242 C 
ATOM     35  O   UNL     1     -10.550  -1.054   1.928  1.00  0.00    -0.273 OA
ATOM     36  N   UNL     1     -11.795  -2.973   1.953  1.00  0.00    -0.354 N 
ATOM     37  H   UNL     1     -12.093  -3.774   2.511  1.00  0.00     0.163 HD
BRANCH  36  38
ATOM     38  C   UNL     1     -12.299  -2.838   0.602  1.00  0.00     0.116 C 
BRANCH  38  39
ATOM     39  C   UNL     1     -11.345  -3.517  -0.377  1.00  0.00     0.023 C 
BRANCH  39  40
ATOM     40  C   UNL     1     -11.624  -3.130  -1.826  1.00  0.00     0.026 C 
BRANCH  40  41
ATOM     41  C   UNL     1     -12.602  -4.113  -2.470  1.00  0.00     0.146 C 
BRANCH  41  42
ATOM     42  N   UNL     1     -12.068  -5.465  -2.386  1.00  0.00    -0.254 NA
ATOM     43  C   UNL     1     -12.394  -6.332  -3.270  1.00  0.00     0.185 C 
ATOM     44  N   UNL     1     -13.198  -6.213  -4.342  1.00  0.00    -0.370 N 
ATOM     45  N   UNL     1     -11.895  -7.575  -3.171  1.00  0.00    -0.370 N 
ATOM     46  H   UNL     1     -13.558  -7.030  -4.806  1.00  0.00     0.159 HD
ATOM     47  H   UNL     1     -13.650  -5.334  -4.574  1.00  0.00     0.159 HD
ATOM     48  H   UNL     1     -11.271  -7.747  -2.394  1.00  0.00     0.159 HD
ATOM     49  H   UNL     1     -11.908  -8.228  -3.934  1.00  0.00     0.159 HD
ENDBRANCH  41  42
ENDBRANCH  40  41
ENDBRANCH  39  40
ENDBRANCH  38  39
ENDBRANCH  36  38
ENDBRANCH   5  34
BRANCH   8  50
ATOM     50  O   UNL     1     -10.172  -6.678   1.359  1.00  0.00    -0.245 OA
BRANCH  50  51
ATOM     51  S   UNL     1     -10.435  -7.821   0.231  1.00  0.00     0.397 S 
ATOM     52  O   UNL     1     -11.857  -7.879  -0.022  1.00  0.00    -0.169 OA
ATOM     53  O   UNL     1      -9.671  -9.008   0.556  1.00  0.00    -0.169 OA
BRANCH  51  54
ATOM     54  O   UNL     1      -9.784  -7.155  -1.079  1.00  0.00    -0.264 OA
ATOM     55  H   UNL     1     -10.504  -6.995  -1.722  1.00  0.00     0.236 HD
ENDBRANCH  51  54
ENDBRANCH  50  51
ENDBRANCH   8  50
TORSDOF 19
ENDMDL
MODEL 10
REMARK VINA RESULT:    -6.803      2.013      2.740
REMARK INTER + INTRA:         -16.957
REMARK INTER:                 -12.932
REMARK INTRA:                  -4.026
REMARK UNBOUND:                -3.195
REMARK SMILES CC[C@@H](C)[C@@H](NC(=O)[C@@H](O)Cc1ccc(O)c(Cl)c1)C(=O)N1[C@H](C(=O)NCCCCN=C(N)N)C[C@H]2CC[C@H](OS(=O)(=O)O)C[C@@H]21
REMARK SMILES IDX 22 1 36 2 46 3 35 4 23 5 45 6 37 7 39 8 38 9 20 10 21 11
REMARK SMILES IDX 5 12 6 13 7 14 8 15 9 17 11 18 12 19 17 20 19 21 15 22 14 23
REMARK SMILES IDX 13 24 18 25 16 26 10 28 3 30 4 31 2 32 1 33 24 34 25 35
REMARK SMILES IDX 26 36 27 38 28 39 29 40 30 41 31 42 32 43 33 44 34 45 40 50
REMARK SMILES IDX 41 51 42 52 43 53 44 54
REMARK H PARENT 6 16 16 27 10 29 26 37 33 46 33 47 34 48 34 49 44 55
ROOT
ATOM      1  N   UNL     1     -10.926  -4.214   4.090  1.00  0.00    -0.326 N 
ATOM      2  C   UNL     1      -9.541  -5.637   2.825  1.00  0.00     0.014 C 
ATOM      3  C   UNL     1     -10.937  -5.531   3.446  1.00  0.00     0.091 C 
ATOM      4  C   UNL     1      -8.670  -4.902   3.832  1.00  0.00     0.041 C 
ATOM      5  C   UNL     1      -9.548  -3.665   4.099  1.00  0.00     0.175 C 
ATOM      6  C   UNL     1     -11.972  -5.794   2.354  1.00  0.00     0.059 C 
ATOM      7  C   UNL     1      -9.214  -7.074   2.469  1.00  0.00     0.008 C 
ATOM      8  C   UNL     1     -11.494  -6.785   1.270  1.00  0.00     0.143 C 
ATOM      9  C   UNL     1     -10.427  -7.760   1.807  1.00  0.00     0.034 C 
ENDROOT
BRANCH   1  10
ATOM     10  C   UNL     1     -11.911  -3.578   4.827  1.00  0.00     0.246 C 
ATOM     11  O   UNL     1     -12.900  -3.125   4.242  1.00  0.00    -0.272 OA
BRANCH  10  12
ATOM     12  C   UNL     1     -11.773  -3.487   6.374  1.00  0.00     0.174 C 
BRANCH  12  13
ATOM     13  N   UNL     1     -10.761  -2.491   6.726  1.00  0.00    -0.342 N 
ATOM     14  C   UNL     1     -10.950  -1.450   7.607  1.00  0.00     0.249 C 
ATOM     15  O   UNL     1     -11.991  -1.257   8.222  1.00  0.00    -0.272 OA
ATOM     16  H   UNL     1      -9.904  -2.430   6.182  1.00  0.00     0.164 HD
BRANCH  14  17
ATOM     17  C   UNL     1      -9.697  -0.560   7.755  1.00  0.00     0.207 C 
BRANCH  17  18
ATOM     18  C   UNL     1      -8.689  -1.209   8.709  1.00  0.00     0.077 C 
BRANCH  18  19
ATOM     19  C   UNL     1      -7.475  -1.730   7.974  1.00  0.00    -0.043 A 
ATOM     20  C   UNL     1      -6.141  -1.872   5.953  1.00  0.00     0.083 A 
ATOM     21  C   UNL     1      -7.235  -1.350   6.644  1.00  0.00     0.028 A 
ATOM     22  C   UNL     1      -5.283  -2.775   6.582  1.00  0.00     0.134 A 
ATOM     23  C   UNL     1      -5.508  -3.159   7.899  1.00  0.00     0.048 A 
ATOM     24  C   UNL     1      -6.604  -2.640   8.593  1.00  0.00     0.008 A 
ATOM     25  Cl  UNL     1      -5.863  -1.394   4.319  1.00  0.00    -0.080 Cl
BRANCH  22  26
ATOM     26  O   UNL     1      -4.203  -3.321   5.942  1.00  0.00    -0.506 OA
ATOM     27  H   UNL     1      -4.302  -3.108   4.995  1.00  0.00     0.293 HD
ENDBRANCH  22  26
ENDBRANCH  18  19
ENDBRANCH  17  18
BRANCH  17  28
ATOM     28  O   UNL     1     -10.045   0.745   8.244  1.00  0.00    -0.383 OA
ATOM     29  H   UNL     1      -9.925   0.710   9.220  1.00  0.00     0.211 HD
ENDBRANCH  17  28
ENDBRANCH  14  17
ENDBRANCH  12  13
BRANCH  12  30
ATOM     30  C   UNL     1     -11.503  -4.865   7.035  1.00  0.00     0.018 C 
ATOM     31  C   UNL     1     -12.663  -5.837   6.765  1.00  0.00     0.010 C 
BRANCH  30  32
ATOM     32  C   UNL     1     -11.222  -4.781   8.555  1.00  0.00     0.002 C 
ATOM     33  C   UNL     1     -12.432  -4.469   9.425  1.00  0.00     0.004 C 
ENDBRANCH  30  32
ENDBRANCH  12  30
ENDBRANCH  10  12
ENDBRANCH   1  10
BRANCH   5  34
ATOM     34  C   UNL     1      -9.376  -2.592   2.991  1.00  0.00     0.242 C 
ATOM     35  O   UNL     1      -8.321  -2.445   2.375  1.00  0.00    -0.273 OA
ATOM     36  N   UNL     1     -10.471  -1.782   2.786  1.00  0.00    -0.354 N 
ATOM     37  H   UNL     1     -11.274  -1.874   3.409  1.00  0.00     0.163 HD
BRANCH  36  38
ATOM     38  C   UNL     1     -10.564  -0.879   1.657  1.00  0.00     0.116 C 
BRANCH  38  39
ATOM     39  C   UNL     1     -11.102  -1.626   0.439  1.00  0.00     0.023 C 
BRANCH  39  40
ATOM     40  C   UNL     1     -12.314  -2.489   0.773  1.00  0.00     0.026 C 
BRANCH  40  41
ATOM     41  C   UNL     1     -13.517  -2.089  -0.082  1.00  0.00     0.146 C 
BRANCH  41  42
ATOM     42  N   UNL     1     -13.687  -3.044  -1.169  1.00  0.00    -0.254 NA
ATOM     43  C   UNL     1     -13.347  -2.715  -2.359  1.00  0.00     0.185 C 
ATOM     44  N   UNL     1     -12.822  -1.567  -2.823  1.00  0.00    -0.370 N 
ATOM     45  N   UNL     1     -13.517  -3.608  -3.348  1.00  0.00    -0.370 N 
ATOM     46  H   UNL     1     -12.833  -1.359  -3.807  1.00  0.00     0.159 HD
ATOM     47  H   UNL     1     -12.616  -0.788  -2.206  1.00  0.00     0.159 HD
ATOM     48  H   UNL     1     -13.900  -4.505  -3.082  1.00  0.00     0.159 HD
ATOM     49  H   UNL     1     -13.066  -3.522  -4.242  1.00  0.00     0.159 HD
ENDBRANCH  41  42
ENDBRANCH  40  41
ENDBRANCH  39  40
ENDBRANCH  38  39
ENDBRANCH  36  38
ENDBRANCH   5  34
BRANCH   8  50
ATOM     50  O   UNL     1     -10.940  -6.071   0.164  1.00  0.00    -0.245 OA
BRANCH  50  51
ATOM     51  S   UNL     1     -11.566  -6.282  -1.322  1.00  0.00     0.397 S 
ATOM     52  O   UNL     1     -11.508  -7.692  -1.635  1.00  0.00    -0.169 OA
ATOM     53  O   UNL     1     -11.031  -5.281  -2.222  1.00  0.00    -0.169 OA
BRANCH  51  54
ATOM     54  O   UNL     1     -13.121  -5.951  -1.081  1.00  0.00    -0.264 OA
ATOM     55  H   UNL     1     -13.647  -6.655  -1.514  1.00  0.00     0.236 HD
ENDBRANCH  51  54
ENDBRANCH  50  51
ENDBRANCH   8  50
TORSDOF 19
ENDMDL
MODEL 11
REMARK VINA RESULT:    -6.782      2.517      3.476
REMARK INTER + INTRA:         -16.916
REMARK INTER:                 -13.301
REMARK INTRA:                  -3.615
REMARK UNBOUND:                -3.195
REMARK SMILES CC[C@@H](C)[C@@H](NC(=O)[C@@H](O)Cc1ccc(O)c(Cl)c1)C(=O)N1[C@H](C(=O)NCCCCN=C(N)N)C[C@H]2CC[C@H](OS(=O)(=O)O)C[C@@H]21
REMARK SMILES IDX 22 1 36 2 46 3 35 4 23 5 45 6 37 7 39 8 38 9 20 10 21 11
REMARK SMILES IDX 5 12 6 13 7 14 8 15 9 17 11 18 12 19 17 20 19 21 15 22 14 23
REMARK SMILES IDX 13 24 18 25 16 26 10 28 3 30 4 31 2 32 1 33 24 34 25 35
REMARK SMILES IDX 26 36 27 38 28 39 29 40 30 41 31 42 32 43 33 44 34 45 40 50
REMARK SMILES IDX 41 51 42 52 43 53 44 54
REMARK H PARENT 6 16 16 27 10 29 26 37 33 46 33 47 34 48 34 49 44 55
ROOT
ATOM      1  N   UNL     1     -11.086  -3.588   4.047  1.00  0.00    -0.326 N 
ATOM      2  C   UNL     1      -9.161  -4.411   2.970  1.00  0.00     0.014 C 
ATOM      3  C   UNL     1     -10.222  -4.772   4.014  1.00  0.00     0.091 C 
ATOM      4  C   UNL     1      -8.985  -2.914   3.175  1.00  0.00     0.041 C 
ATOM      5  C   UNL     1     -10.459  -2.480   3.286  1.00  0.00     0.175 C 
ATOM      6  C   UNL     1     -10.844  -6.112   3.627  1.00  0.00     0.059 C 
ATOM      7  C   UNL     1      -7.955  -5.323   3.085  1.00  0.00     0.008 C 
ATOM      8  C   UNL     1      -9.866  -7.066   2.905  1.00  0.00     0.143 C 
ATOM      9  C   UNL     1      -8.399  -6.788   3.287  1.00  0.00     0.034 C 
ENDROOT
BRANCH   1  10
ATOM     10  C   UNL     1     -12.205  -3.328   4.819  1.00  0.00     0.246 C 
ATOM     11  O   UNL     1     -13.303  -3.207   4.265  1.00  0.00    -0.272 OA
BRANCH  10  12
ATOM     12  C   UNL     1     -12.065  -3.236   6.366  1.00  0.00     0.174 C 
BRANCH  12  13
ATOM     13  N   UNL     1     -10.898  -2.427   6.714  1.00  0.00    -0.342 N 
ATOM     14  C   UNL     1     -10.886  -1.420   7.653  1.00  0.00     0.249 C 
ATOM     15  O   UNL     1     -11.858  -1.106   8.328  1.00  0.00    -0.272 OA
ATOM     16  H   UNL     1     -10.066  -2.466   6.131  1.00  0.00     0.164 HD
BRANCH  14  17
ATOM     17  C   UNL     1      -9.506  -0.739   7.779  1.00  0.00     0.207 C 
BRANCH  17  18
ATOM     18  C   UNL     1      -8.476  -1.720   8.348  1.00  0.00     0.077 C 
BRANCH  18  19
ATOM     19  C   UNL     1      -7.189  -1.707   7.553  1.00  0.00    -0.043 A 
ATOM     20  C   UNL     1      -6.029  -1.484   5.435  1.00  0.00     0.083 A 
ATOM     21  C   UNL     1      -7.212  -1.447   6.174  1.00  0.00     0.028 A 
ATOM     22  C   UNL     1      -4.820  -1.781   6.066  1.00  0.00     0.134 A 
ATOM     23  C   UNL     1      -4.784  -2.040   7.431  1.00  0.00     0.048 A 
ATOM     24  C   UNL     1      -5.966  -2.005   8.173  1.00  0.00     0.008 A 
ATOM     25  Cl  UNL     1      -6.076  -1.163   3.741  1.00  0.00    -0.080 Cl
BRANCH  22  26
ATOM     26  O   UNL     1      -3.636  -1.840   5.381  1.00  0.00    -0.506 OA
ATOM     27  H   UNL     1      -3.861  -2.008   4.447  1.00  0.00     0.293 HD
ENDBRANCH  22  26
ENDBRANCH  18  19
ENDBRANCH  17  18
BRANCH  17  28
ATOM     28  O   UNL     1      -9.577   0.421   8.624  1.00  0.00    -0.383 OA
ATOM     29  H   UNL     1      -8.646   0.699   8.783  1.00  0.00     0.211 HD
ENDBRANCH  17  28
ENDBRANCH  14  17
ENDBRANCH  12  13
BRANCH  12  30
ATOM     30  C   UNL     1     -12.045  -4.630   7.050  1.00  0.00     0.018 C 
ATOM     31  C   UNL     1     -13.099  -5.559   6.428  1.00  0.00     0.010 C 
BRANCH  30  32
ATOM     32  C   UNL     1     -12.228  -4.571   8.586  1.00  0.00     0.002 C 
ATOM     33  C   UNL     1     -12.798  -5.831   9.223  1.00  0.00     0.004 C 
ENDBRANCH  30  32
ENDBRANCH  12  30
ENDBRANCH  10  12
ENDBRANCH   1  10
BRANCH   5  34
ATOM     34  C   UNL     1     -11.118  -2.330   1.888  1.00  0.00     0.242 C 
ATOM     35  O   UNL     1     -10.791  -1.444   1.099  1.00  0.00    -0.273 OA
ATOM     36  N   UNL     1     -12.129  -3.224   1.619  1.00  0.00    -0.354 N 
ATOM     37  H   UNL     1     -12.436  -3.857   2.359  1.00  0.00     0.163 HD
BRANCH  36  38
ATOM     38  C   UNL     1     -12.702  -3.368   0.297  1.00  0.00     0.116 C 
BRANCH  38  39
ATOM     39  C   UNL     1     -11.978  -4.475  -0.465  1.00  0.00     0.023 C 
BRANCH  39  40
ATOM     40  C   UNL     1     -11.805  -4.149  -1.944  1.00  0.00     0.026 C 
BRANCH  40  41
ATOM     41  C   UNL     1     -12.760  -4.981  -2.798  1.00  0.00     0.146 C 
BRANCH  41  42
ATOM     42  N   UNL     1     -12.594  -6.395  -2.487  1.00  0.00    -0.254 NA
ATOM     43  C   UNL     1     -11.798  -7.109  -3.191  1.00  0.00     0.185 C 
ATOM     44  N   UNL     1     -11.030  -6.768  -4.242  1.00  0.00    -0.370 N 
ATOM     45  N   UNL     1     -11.663  -8.411  -2.891  1.00  0.00    -0.370 N 
ATOM     46  H   UNL     1     -10.646  -7.474  -4.847  1.00  0.00     0.159 HD
ATOM     47  H   UNL     1     -11.001  -5.816  -4.595  1.00  0.00     0.159 HD
ATOM     48  H   UNL     1     -12.201  -8.749  -2.105  1.00  0.00     0.159 HD
ATOM     49  H   UNL     1     -10.900  -8.971  -3.230  1.00  0.00     0.159 HD
ENDBRANCH  41  42
ENDBRANCH  40  41
ENDBRANCH  39  40
ENDBRANCH  38  39
ENDBRANCH  36  38
ENDBRANCH   5  34
BRANCH   8  50
ATOM     50  O   UNL     1     -10.001  -6.928   1.491  1.00  0.00    -0.245 OA
BRANCH  50  51
ATOM     51  S   UNL     1     -10.242  -8.250   0.574  1.00  0.00     0.397 S 
ATOM     52  O   UNL     1     -11.644  -8.299   0.223  1.00  0.00    -0.169 OA
ATOM     53  O   UNL     1      -9.568  -9.384   1.170  1.00  0.00    -0.169 OA
BRANCH  51  54
ATOM     54  O   UNL     1      -9.464  -7.866  -0.780  1.00  0.00    -0.264 OA
ATOM     55  H   UNL     1      -8.931  -7.065  -0.600  1.00  0.00     0.236 HD
ENDBRANCH  51  54
ENDBRANCH  50  51
ENDBRANCH   8  50
TORSDOF 19
ENDMDL
MODEL 12
REMARK VINA RESULT:    -6.774      2.888      5.652
REMARK INTER + INTRA:         -16.900
REMARK INTER:                 -12.483
REMARK INTRA:                  -4.417
REMARK UNBOUND:                -3.195
REMARK SMILES CC[C@@H](C)[C@@H](NC(=O)[C@@H](O)Cc1ccc(O)c(Cl)c1)C(=O)N1[C@H](C(=O)NCCCCN=C(N)N)C[C@H]2CC[C@H](OS(=O)(=O)O)C[C@@H]21
REMARK SMILES IDX 22 1 36 2 46 3 35 4 23 5 45 6 37 7 39 8 38 9 20 10 21 11
REMARK SMILES IDX 5 12 6 13 7 14 8 15 9 17 11 18 12 19 17 20 19 21 15 22 14 23
REMARK SMILES IDX 13 24 18 25 16 26 10 28 3 30 4 31 2 32 1 33 24 34 25 35
REMARK SMILES IDX 26 36 27 38 28 39 29 40 30 41 31 42 32 43 33 44 34 45 40 50
REMARK SMILES IDX 41 51 42 52 43 53 44 54
REMARK H PARENT 6 16 16 27 10 29 26 37 33 46 33 47 34 48 34 49 44 55
ROOT
ATOM      1  N   UNL     1      -9.019  -2.467   1.649  1.00  0.00    -0.326 N 
ATOM      2  C   UNL     1      -8.780  -4.098  -0.031  1.00  0.00     0.014 C 
ATOM      3  C   UNL     1      -8.029  -3.403   1.108  1.00  0.00     0.091 C 
ATOM      4  C   UNL     1      -9.671  -2.989  -0.571  1.00  0.00     0.041 C 
ATOM      5  C   UNL     1     -10.196  -2.395   0.749  1.00  0.00     0.175 C 
ATOM      6  C   UNL     1      -7.462  -4.475   2.037  1.00  0.00     0.059 C 
ATOM      7  C   UNL     1      -7.816  -4.800  -0.968  1.00  0.00     0.008 C 
ATOM      8  C   UNL     1      -7.078  -5.784   1.314  1.00  0.00     0.143 C 
ATOM      9  C   UNL     1      -6.727  -5.546  -0.169  1.00  0.00     0.034 C 
ENDROOT
BRANCH   1  10
ATOM     10  C   UNL     1      -8.904  -1.554   2.683  1.00  0.00     0.246 C 
ATOM     11  O   UNL     1      -8.863  -0.347   2.419  1.00  0.00    -0.272 OA
BRANCH  10  12
ATOM     12  C   UNL     1      -8.871  -2.061   4.154  1.00  0.00     0.174 C 
BRANCH  12  13
ATOM     13  N   UNL     1     -10.232  -2.325   4.621  1.00  0.00    -0.342 N 
ATOM     14  C   UNL     1     -10.753  -3.574   4.872  1.00  0.00     0.249 C 
ATOM     15  O   UNL     1     -10.116  -4.614   4.758  1.00  0.00    -0.272 OA
ATOM     16  H   UNL     1     -10.921  -1.577   4.612  1.00  0.00     0.164 HD
BRANCH  14  17
ATOM     17  C   UNL     1     -12.224  -3.524   5.337  1.00  0.00     0.207 C 
BRANCH  17  18
ATOM     18  C   UNL     1     -12.710  -4.922   5.730  1.00  0.00     0.077 C 
BRANCH  18  19
ATOM     19  C   UNL     1     -12.718  -5.113   7.230  1.00  0.00    -0.043 A 
ATOM     20  C   UNL     1     -12.342  -4.241   9.463  1.00  0.00     0.083 A 
ATOM     21  C   UNL     1     -12.381  -4.049   8.081  1.00  0.00     0.028 A 
ATOM     22  C   UNL     1     -12.636  -5.495  10.002  1.00  0.00     0.134 A 
ATOM     23  C   UNL     1     -12.971  -6.557   9.170  1.00  0.00     0.048 A 
ATOM     24  C   UNL     1     -13.009  -6.368   7.787  1.00  0.00     0.008 A 
ATOM     25  Cl  UNL     1     -11.925  -2.922  10.492  1.00  0.00    -0.080 Cl
BRANCH  22  26
ATOM     26  O   UNL     1     -12.600  -5.734  11.349  1.00  0.00    -0.506 OA
ATOM     27  H   UNL     1     -13.281  -5.166  11.753  1.00  0.00     0.293 HD
ENDBRANCH  22  26
ENDBRANCH  18  19
ENDBRANCH  17  18
BRANCH  17  28
ATOM     28  O   UNL     1     -13.074  -2.997   4.305  1.00  0.00    -0.383 OA
ATOM     29  H   UNL     1     -13.098  -3.679   3.597  1.00  0.00     0.211 HD
ENDBRANCH  17  28
ENDBRANCH  14  17
ENDBRANCH  12  13
BRANCH  12  30
ATOM     30  C   UNL     1      -8.095  -1.107   5.101  1.00  0.00     0.018 C 
ATOM     31  C   UNL     1      -6.595  -1.443   5.107  1.00  0.00     0.010 C 
BRANCH  30  32
ATOM     32  C   UNL     1      -8.641  -1.088   6.549  1.00  0.00     0.002 C 
ATOM     33  C   UNL     1      -7.993  -2.083   7.503  1.00  0.00     0.004 C 
ENDBRANCH  30  32
ENDBRANCH  12  30
ENDBRANCH  10  12
ENDBRANCH   1  10
BRANCH   5  34
ATOM     34  C   UNL     1     -11.377  -3.224   1.320  1.00  0.00     0.242 C 
ATOM     35  O   UNL     1     -12.487  -2.734   1.525  1.00  0.00    -0.273 OA
ATOM     36  N   UNL     1     -11.078  -4.532   1.630  1.00  0.00    -0.354 N 
ATOM     37  H   UNL     1     -10.110  -4.847   1.550  1.00  0.00     0.163 HD
BRANCH  36  38
ATOM     38  C   UNL     1     -12.101  -5.500   1.966  1.00  0.00     0.116 C 
BRANCH  38  39
ATOM     39  C   UNL     1     -11.995  -6.709   1.039  1.00  0.00     0.023 C 
BRANCH  39  40
ATOM     40  C   UNL     1     -11.768  -6.310  -0.415  1.00  0.00     0.026 C 
BRANCH  40  41
ATOM     41  C   UNL     1     -13.031  -5.687  -1.010  1.00  0.00     0.146 C 
BRANCH  41  42
ATOM     42  N   UNL     1     -12.665  -4.637  -1.951  1.00  0.00    -0.254 NA
ATOM     43  C   UNL     1     -13.226  -3.489  -1.869  1.00  0.00     0.185 C 
ATOM     44  N   UNL     1     -14.158  -3.042  -1.008  1.00  0.00    -0.370 N 
ATOM     45  N   UNL     1     -12.878  -2.536  -2.749  1.00  0.00    -0.370 N 
ATOM     46  H   UNL     1     -14.683  -2.208  -1.209  1.00  0.00     0.159 HD
ATOM     47  H   UNL     1     -14.525  -3.630  -0.267  1.00  0.00     0.159 HD
ATOM     48  H   UNL     1     -12.172  -2.788  -3.428  1.00  0.00     0.159 HD
ATOM     49  H   UNL     1     -13.086  -1.563  -2.608  1.00  0.00     0.159 HD
ENDBRANCH  41  42
ENDBRANCH  40  41
ENDBRANCH  39  40
ENDBRANCH  38  39
ENDBRANCH  36  38
ENDBRANCH   5  34
BRANCH   8  50
ATOM     50  O   UNL     1      -8.159  -6.715   1.380  1.00  0.00    -0.245 OA
BRANCH  50  51
ATOM     51  S   UNL     1      -8.235  -7.770   2.616  1.00  0.00     0.397 S 
ATOM     52  O   UNL     1      -6.987  -7.700   3.341  1.00  0.00    -0.169 OA
ATOM     53  O   UNL     1      -8.772  -9.031   2.147  1.00  0.00    -0.169 OA
BRANCH  51  54
ATOM     54  O   UNL     1      -9.335  -7.088   3.571  1.00  0.00    -0.264 OA
ATOM     55  H   UNL     1      -9.931  -7.796   3.892  1.00  0.00     0.236 HD
ENDBRANCH  51  54
ENDBRANCH  50  51
ENDBRANCH   8  50
TORSDOF 19
ENDMDL
MODEL 13
REMARK VINA RESULT:    -6.769     16.780     20.848
REMARK INTER + INTRA:         -16.889
REMARK INTER:                 -12.357
REMARK INTRA:                  -4.532
REMARK UNBOUND:                -3.195
REMARK SMILES CC[C@@H](C)[C@@H](NC(=O)[C@@H](O)Cc1ccc(O)c(Cl)c1)C(=O)N1[C@H](C(=O)NCCCCN=C(N)N)C[C@H]2CC[C@H](OS(=O)(=O)O)C[C@@H]21
REMARK SMILES IDX 22 1 36 2 46 3 35 4 23 5 45 6 37 7 39 8 38 9 20 10 21 11
REMARK SMILES IDX 5 12 6 13 7 14 8 15 9 17 11 18 12 19 17 20 19 21 15 22 14 23
REMARK SMILES IDX 13 24 18 25 16 26 10 28 3 30 4 31 2 32 1 33 24 34 25 35
REMARK SMILES IDX 26 36 27 38 28 39 29 40 30 41 31 42 32 43 33 44 34 45 40 50
REMARK SMILES IDX 41 51 42 52 43 53 44 54
REMARK H PARENT 6 16 16 27 10 29 26 37 33 46 33 47 34 48 34 49 44 55
ROOT
ATOM      1  N   UNL     1       8.188   4.269   6.897  1.00  0.00    -0.326 N 
ATOM      2  C   UNL     1       6.741   5.681   8.103  1.00  0.00     0.014 C 
ATOM      3  C   UNL     1       8.059   5.666   7.323  1.00  0.00     0.091 C 
ATOM      4  C   UNL     1       6.728   4.313   8.766  1.00  0.00     0.041 C 
ATOM      5  C   UNL     1       7.173   3.433   7.584  1.00  0.00     0.175 C 
ATOM      6  C   UNL     1       7.996   6.748   6.247  1.00  0.00     0.059 C 
ATOM      7  C   UNL     1       6.634   6.925   8.962  1.00  0.00     0.008 C 
ATOM      8  C   UNL     1       7.152   7.977   6.650  1.00  0.00     0.143 C 
ATOM      9  C   UNL     1       7.103   8.170   8.179  1.00  0.00     0.034 C 
ENDROOT
BRANCH   1  10
ATOM     10  C   UNL     1       9.194   3.652   6.173  1.00  0.00     0.246 C 
ATOM     11  O   UNL     1       9.735   2.642   6.636  1.00  0.00    -0.272 OA
BRANCH  10  12
ATOM     12  C   UNL     1       9.591   4.215   4.778  1.00  0.00     0.174 C 
BRANCH  12  13
ATOM     13  N   UNL     1       8.568   3.869   3.791  1.00  0.00    -0.342 N 
ATOM     14  C   UNL     1       8.057   4.732   2.847  1.00  0.00     0.249 C 
ATOM     15  O   UNL     1       8.428   5.891   2.711  1.00  0.00    -0.272 OA
ATOM     16  H   UNL     1       8.055   2.996   3.882  1.00  0.00     0.164 HD
BRANCH  14  17
ATOM     17  C   UNL     1       6.977   4.074   1.962  1.00  0.00     0.207 C 
BRANCH  17  18
ATOM     18  C   UNL     1       7.565   3.685   0.601  1.00  0.00     0.077 C 
BRANCH  18  19
ATOM     19  C   UNL     1       7.512   2.191   0.373  1.00  0.00    -0.043 A 
ATOM     20  C   UNL     1       7.675   0.284  -1.117  1.00  0.00     0.083 A 
ATOM     21  C   UNL     1       7.773   1.659  -0.899  1.00  0.00     0.028 A 
ATOM     22  C   UNL     1       7.315  -0.565  -0.071  1.00  0.00     0.134 A 
ATOM     23  C   UNL     1       7.054  -0.052   1.195  1.00  0.00     0.048 A 
ATOM     24  C   UNL     1       7.150   1.324   1.416  1.00  0.00     0.008 A 
ATOM     25  Cl  UNL     1       7.998  -0.351  -2.688  1.00  0.00    -0.080 Cl
BRANCH  22  26
ATOM     26  O   UNL     1       7.196  -1.918  -0.239  1.00  0.00    -0.506 OA
ATOM     27  H   UNL     1       6.277  -2.086  -0.518  1.00  0.00     0.293 HD
ENDBRANCH  22  26
ENDBRANCH  18  19
ENDBRANCH  17  18
BRANCH  17  28
ATOM     28  O   UNL     1       5.862   4.958   1.764  1.00  0.00    -0.383 OA
ATOM     29  H   UNL     1       6.225   5.871   1.820  1.00  0.00     0.211 HD
ENDBRANCH  17  28
ENDBRANCH  14  17
ENDBRANCH  12  13
BRANCH  12  30
ATOM     30  C   UNL     1      11.013   3.775   4.336  1.00  0.00     0.018 C 
ATOM     31  C   UNL     1      11.823   4.978   3.828  1.00  0.00     0.010 C 
BRANCH  30  32
ATOM     32  C   UNL     1      11.013   2.648   3.275  1.00  0.00     0.002 C 
ATOM     33  C   UNL     1      11.405   3.078   1.867  1.00  0.00     0.004 C 
ENDBRANCH  30  32
ENDBRANCH  12  30
ENDBRANCH  10  12
ENDBRANCH   1  10
BRANCH   5  34
ATOM     34  C   UNL     1       5.990   3.111   6.633  1.00  0.00     0.242 C 
ATOM     35  O   UNL     1       6.016   3.388   5.434  1.00  0.00    -0.273 OA
ATOM     36  N   UNL     1       4.890   2.544   7.236  1.00  0.00    -0.354 N 
ATOM     37  H   UNL     1       4.882   2.448   8.253  1.00  0.00     0.163 HD
BRANCH  36  38
ATOM     38  C   UNL     1       3.792   1.985   6.475  1.00  0.00     0.116 C 
BRANCH  38  39
ATOM     39  C   UNL     1       2.477   2.621   6.920  1.00  0.00     0.023 C 
BRANCH  39  40
ATOM     40  C   UNL     1       2.665   3.602   8.072  1.00  0.00     0.026 C 
BRANCH  40  41
ATOM     41  C   UNL     1       2.847   5.026   7.547  1.00  0.00     0.146 C 
BRANCH  41  42
ATOM     42  N   UNL     1       3.021   5.945   8.665  1.00  0.00    -0.254 NA
ATOM     43  C   UNL     1       3.022   7.207   8.452  1.00  0.00     0.185 C 
ATOM     44  N   UNL     1       2.881   7.892   7.303  1.00  0.00    -0.370 N 
ATOM     45  N   UNL     1       3.189   8.037   9.496  1.00  0.00    -0.370 N 
ATOM     46  H   UNL     1       3.145   8.860   7.247  1.00  0.00     0.159 HD
ATOM     47  H   UNL     1       2.731   7.419   6.416  1.00  0.00     0.159 HD
ATOM     48  H   UNL     1       3.294   7.602  10.402  1.00  0.00     0.159 HD
ATOM     49  H   UNL     1       2.968   9.016   9.453  1.00  0.00     0.159 HD
ENDBRANCH  41  42
ENDBRANCH  40  41
ENDBRANCH  39  40
ENDBRANCH  38  39
ENDBRANCH  36  38
ENDBRANCH   5  34
BRANCH   8  50
ATOM     50  O   UNL     1       5.816   7.833   6.168  1.00  0.00    -0.245 OA
BRANCH  50  51
ATOM     51  S   UNL     1       5.490   8.135   4.604  1.00  0.00     0.397 S 
ATOM     52  O   UNL     1       5.452   6.871   3.904  1.00  0.00    -0.169 OA
ATOM     53  O   UNL     1       6.308   9.236   4.140  1.00  0.00    -0.169 OA
BRANCH  51  54
ATOM     54  O   UNL     1       3.966   8.644   4.671  1.00  0.00    -0.264 OA
ATOM     55  H   UNL     1       3.473   8.033   5.255  1.00  0.00     0.236 HD
ENDBRANCH  51  54
ENDBRANCH  50  51
ENDBRANCH   8  50
TORSDOF 19
ENDMDL
MODEL 14
REMARK VINA RESULT:    -6.754      3.955      8.655
REMARK INTER + INTRA:         -16.858
REMARK INTER:                 -13.086
REMARK INTRA:                  -3.772
REMARK UNBOUND:                -3.195
REMARK SMILES CC[C@@H](C)[C@@H](NC(=O)[C@@H](O)Cc1ccc(O)c(Cl)c1)C(=O)N1[C@H](C(=O)NCCCCN=C(N)N)C[C@H]2CC[C@H](OS(=O)(=O)O)C[C@@H]21
REMARK SMILES IDX 22 1 36 2 46 3 35 4 23 5 45 6 37 7 39 8 38 9 20 10 21 11
REMARK SMILES IDX 5 12 6 13 7 14 8 15 9 17 11 18 12 19 17 20 19 21 15 22 14 23
REMARK SMILES IDX 13 24 18 25 16 26 10 28 3 30 4 31 2 32 1 33 24 34 25 35
REMARK SMILES IDX 26 36 27 38 28 39 29 40 30 41 31 42 32 43 33 44 34 45 40 50
REMARK SMILES IDX 41 51 42 52 43 53 44 54
REMARK H PARENT 6 16 16 27 10 29 26 37 33 46 33 47 34 48 34 49 44 55
ROOT
ATOM      1  N   UNL     1     -12.195  -4.432   6.573  1.00  0.00    -0.326 N 
ATOM      2  C   UNL     1     -11.949  -3.970   8.868  1.00  0.00     0.014 C 
ATOM      3  C   UNL     1     -12.641  -4.916   7.883  1.00  0.00     0.091 C 
ATOM      4  C   UNL     1     -11.944  -2.648   8.116  1.00  0.00     0.041 C 
ATOM      5  C   UNL     1     -11.501  -3.129   6.722  1.00  0.00     0.175 C 
ATOM      6  C   UNL     1     -12.306  -6.353   8.276  1.00  0.00     0.059 C 
ATOM      7  C   UNL     1     -12.596  -4.045  10.237  1.00  0.00     0.008 C 
ATOM      8  C   UNL     1     -12.108  -6.552   9.794  1.00  0.00     0.143 C 
ATOM      9  C   UNL     1     -12.889  -5.510  10.621  1.00  0.00     0.034 C 
ENDROOT
BRANCH   1  10
ATOM     10  C   UNL     1     -12.511  -4.886   5.304  1.00  0.00     0.246 C 
ATOM     11  O   UNL     1     -13.684  -5.174   5.044  1.00  0.00    -0.272 OA
BRANCH  10  12
ATOM     12  C   UNL     1     -11.395  -4.983   4.224  1.00  0.00     0.174 C 
BRANCH  12  13
ATOM     13  N   UNL     1     -11.556  -3.910   3.243  1.00  0.00    -0.342 N 
ATOM     14  C   UNL     1     -10.552  -3.069   2.819  1.00  0.00     0.249 C 
ATOM     15  O   UNL     1      -9.391  -3.147   3.202  1.00  0.00    -0.272 OA
ATOM     16  H   UNL     1     -12.490  -3.626   2.956  1.00  0.00     0.164 HD
BRANCH  14  17
ATOM     17  C   UNL     1     -11.041  -2.028   1.790  1.00  0.00     0.207 C 
BRANCH  17  18
ATOM     18  C   UNL     1     -10.424  -2.303   0.415  1.00  0.00     0.077 C 
BRANCH  18  19
ATOM     19  C   UNL     1     -11.114  -3.447  -0.293  1.00  0.00    -0.043 A 
ATOM     20  C   UNL     1     -11.012  -5.400  -1.728  1.00  0.00     0.083 A 
ATOM     21  C   UNL     1     -10.367  -4.374  -1.036  1.00  0.00     0.028 A 
ATOM     22  C   UNL     1     -12.403  -5.505  -1.684  1.00  0.00     0.134 A 
ATOM     23  C   UNL     1     -13.155  -4.594  -0.951  1.00  0.00     0.048 A 
ATOM     24  C   UNL     1     -12.512  -3.565  -0.259  1.00  0.00     0.008 A 
ATOM     25  Cl  UNL     1     -10.077  -6.529  -2.636  1.00  0.00    -0.080 Cl
BRANCH  22  26
ATOM     26  O   UNL     1     -13.080  -6.487  -2.354  1.00  0.00    -0.506 OA
ATOM     27  H   UNL     1     -13.598  -6.976  -1.688  1.00  0.00     0.293 HD
ENDBRANCH  22  26
ENDBRANCH  18  19
ENDBRANCH  17  18
BRANCH  17  28
ATOM     28  O   UNL     1     -10.706  -0.694   2.205  1.00  0.00    -0.383 OA
ATOM     29  H   UNL     1     -10.876  -0.660   3.174  1.00  0.00     0.211 HD
ENDBRANCH  17  28
ENDBRANCH  14  17
ENDBRANCH  12  13
BRANCH  12  30
ATOM     30  C   UNL     1     -11.321  -6.385   3.561  1.00  0.00     0.018 C 
ATOM     31  C   UNL     1      -9.871  -6.889   3.508  1.00  0.00     0.010 C 
BRANCH  30  32
ATOM     32  C   UNL     1     -11.955  -6.440   2.150  1.00  0.00     0.002 C 
ATOM     33  C   UNL     1     -11.495  -7.598   1.274  1.00  0.00     0.004 C 
ENDBRANCH  30  32
ENDBRANCH  12  30
ENDBRANCH  10  12
ENDBRANCH   1  10
BRANCH   5  34
ATOM     34  C   UNL     1      -9.962  -3.313   6.643  1.00  0.00     0.242 C 
ATOM     35  O   UNL     1      -9.418  -4.398   6.850  1.00  0.00    -0.273 OA
ATOM     36  N   UNL     1      -9.248  -2.166   6.379  1.00  0.00    -0.354 N 
ATOM     37  H   UNL     1      -9.745  -1.276   6.337  1.00  0.00     0.163 HD
BRANCH  36  38
ATOM     38  C   UNL     1      -7.835  -2.191   6.059  1.00  0.00     0.116 C 
BRANCH  38  39
ATOM     39  C   UNL     1      -7.040  -1.504   7.167  1.00  0.00     0.023 C 
BRANCH  39  40
ATOM     40  C   UNL     1      -7.063  -2.290   8.474  1.00  0.00     0.026 C 
BRANCH  40  41
ATOM     41  C   UNL     1      -7.530  -1.406   9.630  1.00  0.00     0.146 C 
BRANCH  41  42
ATOM     42  N   UNL     1      -8.898  -0.963   9.391  1.00  0.00    -0.254 NA
ATOM     43  C   UNL     1      -9.452  -0.149  10.208  1.00  0.00     0.185 C 
ATOM     44  N   UNL     1      -8.967   0.416  11.329  1.00  0.00    -0.370 N 
ATOM     45  N   UNL     1     -10.715   0.243   9.972  1.00  0.00    -0.370 N 
ATOM     46  H   UNL     1      -9.587   0.838  12.000  1.00  0.00     0.159 HD
ATOM     47  H   UNL     1      -8.020   0.238  11.649  1.00  0.00     0.159 HD
ATOM     48  H   UNL     1     -11.152  -0.130   9.140  1.00  0.00     0.159 HD
ATOM     49  H   UNL     1     -11.128   1.043  10.418  1.00  0.00     0.159 HD
ENDBRANCH  41  42
ENDBRANCH  40  41
ENDBRANCH  39  40
ENDBRANCH  38  39
ENDBRANCH  36  38
ENDBRANCH   5  34
BRANCH   8  50
ATOM     50  O   UNL     1     -10.724  -6.449  10.126  1.00  0.00    -0.245 OA
BRANCH  50  51
ATOM     51  S   UNL     1      -9.953  -7.731  10.764  1.00  0.00     0.397 S 
ATOM     52  O   UNL     1     -10.711  -8.183  11.909  1.00  0.00    -0.169 OA
ATOM     53  O   UNL     1      -8.535  -7.451  10.854  1.00  0.00    -0.169 OA
BRANCH  51  54
ATOM     54  O   UNL     1     -10.166  -8.850   9.629  1.00  0.00    -0.264 OA
ATOM     55  H   UNL     1      -9.316  -9.320   9.510  1.00  0.00     0.236 HD
ENDBRANCH  51  54
ENDBRANCH  50  51
ENDBRANCH   8  50
TORSDOF 19
ENDMDL
MODEL 15
REMARK VINA RESULT:    -6.569     20.169     24.501
REMARK INTER + INTRA:         -16.484
REMARK INTER:                 -12.925
REMARK INTRA:                  -3.558
REMARK UNBOUND:                -3.195
REMARK SMILES CC[C@@H](C)[C@@H](NC(=O)[C@@H](O)Cc1ccc(O)c(Cl)c1)C(=O)N1[C@H](C(=O)NCCCCN=C(N)N)C[C@H]2CC[C@H](OS(=O)(=O)O)C[C@@H]21
REMARK SMILES IDX 22 1 36 2 46 3 35 4 23 5 45 6 37 7 39 8 38 9 20 10 21 11
REMARK SMILES IDX 5 12 6 13 7 14 8 15 9 17 11 18 12 19 17 20 19 21 15 22 14 23
REMARK SMILES IDX 13 24 18 25 16 26 10 28 3 30 4 31 2 32 1 33 24 34 25 35
REMARK SMILES IDX 26 36 27 38 28 39 29 40 30 41 31 42 32 43 33 44 34 45 40 50
REMARK SMILES IDX 41 51 42 52 43 53 44 54
REMARK H PARENT 6 16 16 27 10 29 26 37 33 46 33 47 34 48 34 49 44 55
ROOT
ATOM      1  N   UNL     1       8.963   7.465   9.897  1.00  0.00    -0.326 N 
ATOM      2  C   UNL     1       7.264   5.836   9.861  1.00  0.00     0.014 C 
ATOM      3  C   UNL     1       7.656   7.175  10.493  1.00  0.00     0.091 C 
ATOM      4  C   UNL     1       8.602   5.127   9.721  1.00  0.00     0.041 C 
ATOM      5  C   UNL     1       9.462   6.276   9.163  1.00  0.00     0.175 C 
ATOM      6  C   UNL     1       6.519   8.169  10.265  1.00  0.00     0.059 C 
ATOM      7  C   UNL     1       6.149   5.172  10.645  1.00  0.00     0.008 C 
ATOM      8  C   UNL     1       5.120   7.515  10.229  1.00  0.00     0.143 C 
ATOM      9  C   UNL     1       5.072   6.205  11.040  1.00  0.00     0.034 C 
ENDROOT
BRANCH   1  10
ATOM     10  C   UNL     1       9.815   8.537  10.105  1.00  0.00     0.246 C 
ATOM     11  O   UNL     1      10.109   9.266   9.152  1.00  0.00    -0.272 OA
BRANCH  10  12
ATOM     12  C   UNL     1      10.350   8.824  11.538  1.00  0.00     0.174 C 
BRANCH  12  13
ATOM     13  N   UNL     1      11.265   9.965  11.509  1.00  0.00    -0.342 N 
ATOM     14  C   UNL     1      11.199  11.052  12.351  1.00  0.00     0.249 C 
ATOM     15  O   UNL     1      10.372  11.173  13.246  1.00  0.00    -0.272 OA
ATOM     16  H   UNL     1      11.902  10.080  10.725  1.00  0.00     0.164 HD
BRANCH  14  17
ATOM     17  C   UNL     1      12.296  12.099  12.059  1.00  0.00     0.207 C 
BRANCH  17  18
ATOM     18  C   UNL     1      13.582  11.410  11.592  1.00  0.00     0.077 C 
BRANCH  18  19
ATOM     19  C   UNL     1      13.634  11.277  10.086  1.00  0.00    -0.043 A 
ATOM     20  C   UNL     1      13.253  12.209   7.879  1.00  0.00     0.083 A 
ATOM     21  C   UNL     1      13.252  12.351   9.267  1.00  0.00     0.028 A 
ATOM     22  C   UNL     1      13.633  10.996   7.302  1.00  0.00     0.134 A 
ATOM     23  C   UNL     1      14.014   9.925   8.101  1.00  0.00     0.048 A 
ATOM     24  C   UNL     1      14.012  10.064   9.491  1.00  0.00     0.008 A 
ATOM     25  Cl  UNL     1      12.780  13.539   6.889  1.00  0.00    -0.080 Cl
BRANCH  22  26
ATOM     26  O   UNL     1      13.640  10.806   5.946  1.00  0.00    -0.506 OA
ATOM     27  H   UNL     1      12.939  11.377   5.580  1.00  0.00     0.293 HD
ENDBRANCH  22  26
ENDBRANCH  18  19
ENDBRANCH  17  18
BRANCH  17  28
ATOM     28  O   UNL     1      12.576  12.893  13.223  1.00  0.00    -0.383 OA
ATOM     29  H   UNL     1      11.702  13.124  13.611  1.00  0.00     0.211 HD
ENDBRANCH  17  28
ENDBRANCH  14  17
ENDBRANCH  12  13
BRANCH  12  30
ATOM     30  C   UNL     1      10.983   7.573  12.205  1.00  0.00     0.018 C 
ATOM     31  C   UNL     1      10.683   7.547  13.712  1.00  0.00     0.010 C 
BRANCH  30  32
ATOM     32  C   UNL     1      12.507   7.444  11.963  1.00  0.00     0.002 C 
ATOM     33  C   UNL     1      12.907   6.584  10.772  1.00  0.00     0.004 C 
ENDBRANCH  30  32
ENDBRANCH  12  30
ENDBRANCH  10  12
ENDBRANCH   1  10
BRANCH   5  34
ATOM     34  C   UNL     1       9.262   6.450   7.634  1.00  0.00     0.242 C 
ATOM     35  O   UNL     1       8.719   7.443   7.150  1.00  0.00    -0.273 OA
ATOM     36  N   UNL     1       9.688   5.391   6.863  1.00  0.00    -0.354 N 
ATOM     37  H   UNL     1      10.020   4.546   7.330  1.00  0.00     0.163 HD
BRANCH  36  38
ATOM     38  C   UNL     1       9.777   5.471   5.420  1.00  0.00     0.116 C 
BRANCH  38  39
ATOM     39  C   UNL     1       8.877   4.413   4.786  1.00  0.00     0.023 C 
BRANCH  39  40
ATOM     40  C   UNL     1       7.477   4.942   4.488  1.00  0.00     0.026 C 
BRANCH  40  41
ATOM     41  C   UNL     1       7.533   6.403   4.045  1.00  0.00     0.146 C 
BRANCH  41  42
ATOM     42  N   UNL     1       6.181   6.932   3.920  1.00  0.00    -0.254 NA
ATOM     43  C   UNL     1       5.858   7.999   4.548  1.00  0.00     0.185 C 
ATOM     44  N   UNL     1       6.592   8.781   5.361  1.00  0.00    -0.370 N 
ATOM     45  N   UNL     1       4.605   8.468   4.423  1.00  0.00    -0.370 N 
ATOM     46  H   UNL     1       6.147   9.442   5.975  1.00  0.00     0.159 HD
ATOM     47  H   UNL     1       7.568   8.579   5.556  1.00  0.00     0.159 HD
ATOM     48  H   UNL     1       3.988   7.941   3.820  1.00  0.00     0.159 HD
ATOM     49  H   UNL     1       4.346   9.403   4.682  1.00  0.00     0.159 HD
ENDBRANCH  41  42
ENDBRANCH  40  41
ENDBRANCH  39  40
ENDBRANCH  38  39
ENDBRANCH  36  38
ENDBRANCH   5  34
BRANCH   8  50
ATOM     50  O   UNL     1       4.748   7.228   8.881  1.00  0.00    -0.245 OA
BRANCH  50  51
ATOM     51  S   UNL     1       3.178   7.269   8.456  1.00  0.00     0.397 S 
ATOM     52  O   UNL     1       2.548   8.349   9.180  1.00  0.00    -0.169 OA
ATOM     53  O   UNL     1       2.636   5.926   8.470  1.00  0.00    -0.169 OA
BRANCH  51  54
ATOM     54  O   UNL     1       3.258   7.755   6.925  1.00  0.00    -0.264 OA
ATOM     55  H   UNL     1       3.179   8.731   6.917  1.00  0.00     0.236 HD
ENDBRANCH  51  54
ENDBRANCH  50  51
ENDBRANCH   8  50
TORSDOF 19
ENDMDL
MODEL 16
REMARK VINA RESULT:    -6.552      2.675      5.214
REMARK INTER + INTRA:         -16.449
REMARK INTER:                 -12.493
REMARK INTRA:                  -3.956
REMARK UNBOUND:                -3.195
REMARK SMILES CC[C@@H](C)[C@@H](NC(=O)[C@@H](O)Cc1ccc(O)c(Cl)c1)C(=O)N1[C@H](C(=O)NCCCCN=C(N)N)C[C@H]2CC[C@H](OS(=O)(=O)O)C[C@@H]21
REMARK SMILES IDX 22 1 36 2 46 3 35 4 23 5 45 6 37 7 39 8 38 9 20 10 21 11
REMARK SMILES IDX 5 12 6 13 7 14 8 15 9 17 11 18 12 19 17 20 19 21 15 22 14 23
REMARK SMILES IDX 13 24 18 25 16 26 10 28 3 30 4 31 2 32 1 33 24 34 25 35
REMARK SMILES IDX 26 36 27 38 28 39 29 40 30 41 31 42 32 43 33 44 34 45 40 50
REMARK SMILES IDX 41 51 42 52 43 53 44 54
REMARK H PARENT 6 16 16 27 10 29 26 37 33 46 33 47 34 48 34 49 44 55
ROOT
ATOM      1  N   UNL     1      -8.567  -2.446   1.981  1.00  0.00    -0.326 N 
ATOM      2  C   UNL     1      -8.791  -4.010   0.236  1.00  0.00     0.014 C 
ATOM      3  C   UNL     1      -8.071  -3.761   1.565  1.00  0.00     0.091 C 
ATOM      4  C   UNL     1      -8.878  -2.616  -0.365  1.00  0.00     0.041 C 
ATOM      5  C   UNL     1      -9.323  -1.814   0.872  1.00  0.00     0.175 C 
ATOM      6  C   UNL     1      -8.324  -4.954   2.483  1.00  0.00     0.059 C 
ATOM      7  C   UNL     1      -8.114  -5.117  -0.548  1.00  0.00     0.008 C 
ATOM      8  C   UNL     1      -8.481  -6.294   1.732  1.00  0.00     0.143 C 
ATOM      9  C   UNL     1      -7.739  -6.291   0.381  1.00  0.00     0.034 C 
ENDROOT
BRANCH   1  10
ATOM     10  C   UNL     1      -8.253  -1.692   3.099  1.00  0.00     0.246 C 
ATOM     11  O   UNL     1      -7.862  -0.529   2.950  1.00  0.00    -0.272 OA
BRANCH  10  12
ATOM     12  C   UNL     1      -8.438  -2.308   4.516  1.00  0.00     0.174 C 
BRANCH  12  13
ATOM     13  N   UNL     1      -9.858  -2.543   4.776  1.00  0.00    -0.342 N 
ATOM     14  C   UNL     1     -10.385  -3.706   5.292  1.00  0.00     0.249 C 
ATOM     15  O   UNL     1      -9.710  -4.673   5.620  1.00  0.00    -0.272 OA
ATOM     16  H   UNL     1     -10.551  -1.894   4.411  1.00  0.00     0.164 HD
BRANCH  14  17
ATOM     17  C   UNL     1     -11.921  -3.652   5.433  1.00  0.00     0.207 C 
BRANCH  17  18
ATOM     18  C   UNL     1     -12.397  -4.660   6.483  1.00  0.00     0.077 C 
BRANCH  18  19
ATOM     19  C   UNL     1     -12.340  -4.086   7.881  1.00  0.00    -0.043 A 
ATOM     20  C   UNL     1     -11.930  -2.216   9.370  1.00  0.00     0.083 A 
ATOM     21  C   UNL     1     -12.031  -2.731   8.078  1.00  0.00     0.028 A 
ATOM     22  C   UNL     1     -12.135  -3.048  10.472  1.00  0.00     0.134 A 
ATOM     23  C   UNL     1     -12.442  -4.391  10.291  1.00  0.00     0.048 A 
ATOM     24  C   UNL     1     -12.542  -4.911   8.998  1.00  0.00     0.008 A 
ATOM     25  Cl  UNL     1     -11.549  -0.549   9.592  1.00  0.00    -0.080 Cl
BRANCH  22  26
ATOM     26  O   UNL     1     -12.036  -2.590  11.758  1.00  0.00    -0.506 OA
ATOM     27  H   UNL     1     -12.865  -2.839  12.208  1.00  0.00     0.293 HD
ENDBRANCH  22  26
ENDBRANCH  18  19
ENDBRANCH  17  18
BRANCH  17  28
ATOM     28  O   UNL     1     -12.566  -3.928   4.179  1.00  0.00    -0.383 OA
ATOM     29  H   UNL     1     -13.511  -3.683   4.300  1.00  0.00     0.211 HD
ENDBRANCH  17  28
ENDBRANCH  14  17
ENDBRANCH  12  13
BRANCH  12  30
ATOM     30  C   UNL     1      -7.764  -1.463   5.630  1.00  0.00     0.018 C 
ATOM     31  C   UNL     1      -6.535  -2.189   6.199  1.00  0.00     0.010 C 
BRANCH  30  32
ATOM     32  C   UNL     1      -8.725  -1.065   6.777  1.00  0.00     0.002 C 
ATOM     33  C   UNL     1      -8.272  -1.466   8.175  1.00  0.00     0.004 C 
ENDBRANCH  30  32
ENDBRANCH  12  30
ENDBRANCH  10  12
ENDBRANCH   1  10
BRANCH   5  34
ATOM     34  C   UNL     1     -10.852  -1.933   1.111  1.00  0.00     0.242 C 
ATOM     35  O   UNL     1     -11.324  -2.268   2.197  1.00  0.00    -0.273 OA
ATOM     36  N   UNL     1     -11.638  -1.690   0.007  1.00  0.00    -0.354 N 
ATOM     37  H   UNL     1     -11.185  -1.535  -0.894  1.00  0.00     0.163 HD
BRANCH  36  38
ATOM     38  C   UNL     1     -13.077  -1.546   0.098  1.00  0.00     0.116 C 
BRANCH  38  39
ATOM     39  C   UNL     1     -13.757  -2.836  -0.354  1.00  0.00     0.023 C 
BRANCH  39  40
ATOM     40  C   UNL     1     -13.811  -2.964  -1.872  1.00  0.00     0.026 C 
BRANCH  40  41
ATOM     41  C   UNL     1     -12.498  -3.530  -2.415  1.00  0.00     0.146 C 
BRANCH  41  42
ATOM     42  N   UNL     1     -12.678  -4.930  -2.777  1.00  0.00    -0.254 NA
ATOM     43  C   UNL     1     -12.347  -5.845  -1.947  1.00  0.00     0.185 C 
ATOM     44  N   UNL     1     -11.827  -5.745  -0.710  1.00  0.00    -0.370 N 
ATOM     45  N   UNL     1     -12.515  -7.130  -2.301  1.00  0.00    -0.370 N 
ATOM     46  H   UNL     1     -11.391  -6.538  -0.271  1.00  0.00     0.159 HD
ATOM     47  H   UNL     1     -11.647  -4.844  -0.279  1.00  0.00     0.159 HD
ATOM     48  H   UNL     1     -12.911  -7.294  -3.217  1.00  0.00     0.159 HD
ATOM     49  H   UNL     1     -12.507  -7.883  -1.636  1.00  0.00     0.159 HD
ENDBRANCH  41  42
ENDBRANCH  40  41
ENDBRANCH  39  40
ENDBRANCH  38  39
ENDBRANCH  36  38
ENDBRANCH   5  34
BRANCH   8  50
ATOM     50  O   UNL     1      -9.863  -6.561   1.490  1.00  0.00    -0.245 OA
BRANCH  50  51
ATOM     51  S   UNL     1     -10.338  -8.076   1.135  1.00  0.00     0.397 S 
ATOM     52  O   UNL     1     -11.772  -8.144   1.302  1.00  0.00    -0.169 OA
ATOM     53  O   UNL     1      -9.453  -9.026   1.776  1.00  0.00    -0.169 OA
BRANCH  51  54
ATOM     54  O   UNL     1     -10.077  -8.146  -0.450  1.00  0.00    -0.264 OA
ATOM     55  H   UNL     1      -9.351  -7.525  -0.661  1.00  0.00     0.236 HD
ENDBRANCH  51  54
ENDBRANCH  50  51
ENDBRANCH   8  50
TORSDOF 19
ENDMDL
MODEL 17
REMARK VINA RESULT:    -6.540      3.425      5.426
REMARK INTER + INTRA:         -16.426
REMARK INTER:                 -12.257
REMARK INTRA:                  -4.168
REMARK UNBOUND:                -3.195
REMARK SMILES CC[C@@H](C)[C@@H](NC(=O)[C@@H](O)Cc1ccc(O)c(Cl)c1)C(=O)N1[C@H](C(=O)NCCCCN=C(N)N)C[C@H]2CC[C@H](OS(=O)(=O)O)C[C@@H]21
REMARK SMILES IDX 22 1 36 2 46 3 35 4 23 5 45 6 37 7 39 8 38 9 20 10 21 11
REMARK SMILES IDX 5 12 6 13 7 14 8 15 9 17 11 18 12 19 17 20 19 21 15 22 14 23
REMARK SMILES IDX 13 24 18 25 16 26 10 28 3 30 4 31 2 32 1 33 24 34 25 35
REMARK SMILES IDX 26 36 27 38 28 39 29 40 30 41 31 42 32 43 33 44 34 45 40 50
REMARK SMILES IDX 41 51 42 52 43 53 44 54
REMARK H PARENT 6 16 16 27 10 29 26 37 33 46 33 47 34 48 34 49 44 55
ROOT
ATOM      1  N   UNL     1     -10.349  -6.570   0.575  1.00  0.00    -0.326 N 
ATOM      2  C   UNL     1     -10.606  -6.408  -1.759  1.00  0.00     0.014 C 
ATOM      3  C   UNL     1     -11.392  -6.564  -0.454  1.00  0.00     0.091 C 
ATOM      4  C   UNL     1      -9.330  -7.186  -1.476  1.00  0.00     0.041 C 
ATOM      5  C   UNL     1      -9.012  -6.680  -0.057  1.00  0.00     0.175 C 
ATOM      6  C   UNL     1     -12.459  -5.472  -0.399  1.00  0.00     0.059 C 
ATOM      7  C   UNL     1     -11.459  -6.787  -2.954  1.00  0.00     0.008 C 
ATOM      8  C   UNL     1     -13.002  -5.063  -1.785  1.00  0.00     0.143 C 
ATOM      9  C   UNL     1     -12.881  -6.205  -2.814  1.00  0.00     0.034 C 
ENDROOT
BRANCH   1  10
ATOM     10  C   UNL     1     -10.458  -6.702   1.949  1.00  0.00     0.246 C 
ATOM     11  O   UNL     1      -9.885  -7.642   2.510  1.00  0.00    -0.272 OA
BRANCH  10  12
ATOM     12  C   UNL     1     -11.262  -5.645   2.760  1.00  0.00     0.174 C 
BRANCH  12  13
ATOM     13  N   UNL     1     -10.573  -4.356   2.721  1.00  0.00    -0.342 N 
ATOM     14  C   UNL     1     -11.191  -3.132   2.591  1.00  0.00     0.249 C 
ATOM     15  O   UNL     1     -12.405  -2.985   2.522  1.00  0.00    -0.272 OA
ATOM     16  H   UNL     1      -9.562  -4.329   2.610  1.00  0.00     0.164 HD
BRANCH  14  17
ATOM     17  C   UNL     1     -10.188  -1.959   2.564  1.00  0.00     0.207 C 
BRANCH  17  18
ATOM     18  C   UNL     1      -9.532  -1.783   3.937  1.00  0.00     0.077 C 
BRANCH  18  19
ATOM     19  C   UNL     1      -8.040  -1.563   3.823  1.00  0.00    -0.043 A 
ATOM     20  C   UNL     1      -5.836  -1.529   4.835  1.00  0.00     0.083 A 
ATOM     21  C   UNL     1      -7.205  -1.781   4.930  1.00  0.00     0.028 A 
ATOM     22  C   UNL     1      -5.294  -1.058   3.638  1.00  0.00     0.134 A 
ATOM     23  C   UNL     1      -6.109  -0.838   2.535  1.00  0.00     0.048 A 
ATOM     24  C   UNL     1      -7.481  -1.087   2.627  1.00  0.00     0.008 A 
ATOM     25  Cl  UNL     1      -4.826  -1.802   6.205  1.00  0.00    -0.080 Cl
BRANCH  22  26
ATOM     26  O   UNL     1      -3.959  -0.786   3.501  1.00  0.00    -0.506 OA
ATOM     27  H   UNL     1      -3.850   0.170   3.659  1.00  0.00     0.293 HD
ENDBRANCH  22  26
ENDBRANCH  18  19
ENDBRANCH  17  18
BRANCH  17  28
ATOM     28  O   UNL     1     -10.837  -0.734   2.186  1.00  0.00    -0.383 OA
ATOM     29  H   UNL     1     -11.762  -0.804   2.512  1.00  0.00     0.211 HD
ENDBRANCH  17  28
ENDBRANCH  14  17
ENDBRANCH  12  13
BRANCH  12  30
ATOM     30  C   UNL     1     -11.571  -6.108   4.210  1.00  0.00     0.018 C 
ATOM     31  C   UNL     1     -12.963  -5.631   4.651  1.00  0.00     0.010 C 
BRANCH  30  32
ATOM     32  C   UNL     1     -10.505  -5.667   5.242  1.00  0.00     0.002 C 
ATOM     33  C   UNL     1     -10.104  -6.729   6.258  1.00  0.00     0.004 C 
ENDBRANCH  30  32
ENDBRANCH  12  30
ENDBRANCH  10  12
ENDBRANCH   1  10
BRANCH   5  34
ATOM     34  C   UNL     1      -8.302  -5.300  -0.088  1.00  0.00     0.242 C 
ATOM     35  O   UNL     1      -8.873  -4.259   0.238  1.00  0.00    -0.273 OA
ATOM     36  N   UNL     1      -7.007  -5.317  -0.557  1.00  0.00    -0.354 N 
ATOM     37  H   UNL     1      -6.630  -6.191  -0.924  1.00  0.00     0.163 HD
BRANCH  36  38
ATOM     38  C   UNL     1      -6.132  -4.168  -0.452  1.00  0.00     0.116 C 
BRANCH  38  39
ATOM     39  C   UNL     1      -4.980  -4.479   0.501  1.00  0.00     0.023 C 
BRANCH  39  40
ATOM     40  C   UNL     1      -5.406  -4.431   1.965  1.00  0.00     0.026 C 
BRANCH  40  41
ATOM     41  C   UNL     1      -4.308  -4.994   2.868  1.00  0.00     0.146 C 
BRANCH  41  42
ATOM     42  N   UNL     1      -3.480  -3.907   3.373  1.00  0.00    -0.254 NA
ATOM     43  C   UNL     1      -2.275  -3.785   2.960  1.00  0.00     0.185 C 
ATOM     44  N   UNL     1      -1.582  -4.530   2.079  1.00  0.00    -0.370 N 
ATOM     45  N   UNL     1      -1.526  -2.779   3.441  1.00  0.00    -0.370 N 
ATOM     46  H   UNL     1      -0.579  -4.469   2.033  1.00  0.00     0.159 HD
ATOM     47  H   UNL     1      -2.002  -5.325   1.608  1.00  0.00     0.159 HD
ATOM     48  H   UNL     1      -1.976  -2.163   4.105  1.00  0.00     0.159 HD
ATOM     49  H   UNL     1      -0.675  -2.476   3.003  1.00  0.00     0.159 HD
ENDBRANCH  41  42
ENDBRANCH  40  41
ENDBRANCH  39  40
ENDBRANCH  38  39
ENDBRANCH  36  38
ENDBRANCH   5  34
BRANCH   8  50
ATOM     50  O   UNL     1     -12.286  -3.931  -2.278  1.00  0.00    -0.245 OA
BRANCH  50  51
ATOM     51  S   UNL     1     -13.106  -2.625  -2.797  1.00  0.00     0.397 S 
ATOM     52  O   UNL     1     -13.814  -2.993  -4.003  1.00  0.00    -0.169 OA
ATOM     53  O   UNL     1     -12.248  -1.460  -2.746  1.00  0.00    -0.169 OA
BRANCH  51  54
ATOM     54  O   UNL     1     -14.232  -2.463  -1.661  1.00  0.00    -0.264 OA
ATOM     55  H   UNL     1     -15.092  -2.329  -2.109  1.00  0.00     0.236 HD
ENDBRANCH  51  54
ENDBRANCH  50  51
ENDBRANCH   8  50
TORSDOF 19
ENDMDL
MODEL 18
REMARK VINA RESULT:    -6.485      4.634      7.942
REMARK INTER + INTRA:         -16.313
REMARK INTER:                 -12.398
REMARK INTRA:                  -3.915
REMARK UNBOUND:                -3.195
REMARK SMILES CC[C@@H](C)[C@@H](NC(=O)[C@@H](O)Cc1ccc(O)c(Cl)c1)C(=O)N1[C@H](C(=O)NCCCCN=C(N)N)C[C@H]2CC[C@H](OS(=O)(=O)O)C[C@@H]21
REMARK SMILES IDX 22 1 36 2 46 3 35 4 23 5 45 6 37 7 39 8 38 9 20 10 21 11
REMARK SMILES IDX 5 12 6 13 7 14 8 15 9 17 11 18 12 19 17 20 19 21 15 22 14 23
REMARK SMILES IDX 13 24 18 25 16 26 10 28 3 30 4 31 2 32 1 33 24 34 25 35
REMARK SMILES IDX 26 36 27 38 28 39 29 40 30 41 31 42 32 43 33 44 34 45 40 50
REMARK SMILES IDX 41 51 42 52 43 53 44 54
REMARK H PARENT 6 16 16 27 10 29 26 37 33 46 33 47 34 48 34 49 44 55
ROOT
ATOM      1  N   UNL     1     -10.160  -4.218   7.723  1.00  0.00    -0.326 N 
ATOM      2  C   UNL     1     -11.567  -5.606   6.443  1.00  0.00     0.014 C 
ATOM      3  C   UNL     1     -11.467  -4.208   7.060  1.00  0.00     0.091 C 
ATOM      4  C   UNL     1     -10.847  -6.474   7.464  1.00  0.00     0.041 C 
ATOM      5  C   UNL     1      -9.613  -5.597   7.745  1.00  0.00     0.175 C 
ATOM      6  C   UNL     1     -11.713  -3.176   5.961  1.00  0.00     0.059 C 
ATOM      7  C   UNL     1     -12.999  -5.932   6.068  1.00  0.00     0.008 C 
ATOM      8  C   UNL     1     -12.689  -3.657   4.865  1.00  0.00     0.143 C 
ATOM      9  C   UNL     1     -13.674  -4.720   5.391  1.00  0.00     0.034 C 
ENDROOT
BRANCH   1  10
ATOM     10  C   UNL     1      -9.533  -3.232   8.465  1.00  0.00     0.246 C 
ATOM     11  O   UNL     1      -8.522  -2.687   8.009  1.00  0.00    -0.272 OA
BRANCH  10  12
ATOM     12  C   UNL     1     -10.136  -2.801   9.834  1.00  0.00     0.174 C 
BRANCH  12  13
ATOM     13  N   UNL     1     -11.262  -3.669  10.178  1.00  0.00    -0.342 N 
ATOM     14  C   UNL     1     -11.280  -4.562  11.225  1.00  0.00     0.249 C 
ATOM     15  O   UNL     1     -10.353  -4.710  12.011  1.00  0.00    -0.272 OA
ATOM     16  H   UNL     1     -12.037  -3.770   9.527  1.00  0.00     0.164 HD
BRANCH  14  17
ATOM     17  C   UNL     1     -12.607  -5.345  11.317  1.00  0.00     0.207 C 
BRANCH  17  18
ATOM     18  C   UNL     1     -13.034  -5.839   9.931  1.00  0.00     0.077 C 
BRANCH  18  19
ATOM     19  C   UNL     1     -13.541  -7.264   9.974  1.00  0.00    -0.043 A 
ATOM     20  C   UNL     1     -13.133  -9.631  10.307  1.00  0.00     0.083 A 
ATOM     21  C   UNL     1     -12.674  -8.314  10.316  1.00  0.00     0.028 A 
ATOM     22  C   UNL     1     -14.454  -9.909   9.955  1.00  0.00     0.134 A 
ATOM     23  C   UNL     1     -15.323  -8.879   9.614  1.00  0.00     0.048 A 
ATOM     24  C   UNL     1     -14.867  -7.558   9.621  1.00  0.00     0.008 A 
ATOM     25  Cl  UNL     1     -12.053 -10.908  10.730  1.00  0.00    -0.080 Cl
BRANCH  22  26
ATOM     26  O   UNL     1     -14.946 -11.186   9.921  1.00  0.00    -0.506 OA
ATOM     27  H   UNL     1     -15.803 -11.168  10.385  1.00  0.00     0.293 HD
ENDBRANCH  22  26
ENDBRANCH  18  19
ENDBRANCH  17  18
BRANCH  17  28
ATOM     28  O   UNL     1     -13.651  -4.531  11.876  1.00  0.00    -0.383 OA
ATOM     29  H   UNL     1     -13.835  -3.831  11.209  1.00  0.00     0.211 HD
ENDBRANCH  17  28
ENDBRANCH  14  17
ENDBRANCH  12  13
BRANCH  12  30
ATOM     30  C   UNL     1     -10.514  -1.296   9.875  1.00  0.00     0.018 C 
ATOM     31  C   UNL     1     -11.560  -0.965   8.799  1.00  0.00     0.010 C 
BRANCH  30  32
ATOM     32  C   UNL     1      -9.298  -0.346   9.746  1.00  0.00     0.002 C 
ATOM     33  C   UNL     1      -8.495  -0.138  11.023  1.00  0.00     0.004 C 
ENDBRANCH  30  32
ENDBRANCH  12  30
ENDBRANCH  10  12
ENDBRANCH   1  10
BRANCH   5  34
ATOM     34  C   UNL     1      -8.524  -5.775   6.653  1.00  0.00     0.242 C 
ATOM     35  O   UNL     1      -7.976  -6.856   6.440  1.00  0.00    -0.273 OA
ATOM     36  N   UNL     1      -8.178  -4.625   5.979  1.00  0.00    -0.354 N 
ATOM     37  H   UNL     1      -8.581  -3.738   6.282  1.00  0.00     0.163 HD
BRANCH  36  38
ATOM     38  C   UNL     1      -7.346  -4.645   4.794  1.00  0.00     0.116 C 
BRANCH  38  39
ATOM     39  C   UNL     1      -8.184  -4.297   3.566  1.00  0.00     0.023 C 
BRANCH  39  40
ATOM     40  C   UNL     1      -7.401  -3.493   2.534  1.00  0.00     0.026 C 
BRANCH  40  41
ATOM     41  C   UNL     1      -7.055  -2.106   3.076  1.00  0.00     0.146 C 
BRANCH  41  42
ATOM     42  N   UNL     1      -8.223  -1.525   3.724  1.00  0.00    -0.254 NA
ATOM     43  C   UNL     1      -8.155  -1.168   4.951  1.00  0.00     0.185 C 
ATOM     44  N   UNL     1      -7.126  -1.235   5.816  1.00  0.00    -0.370 N 
ATOM     45  N   UNL     1      -9.244  -0.638   5.531  1.00  0.00    -0.370 N 
ATOM     46  H   UNL     1      -7.282  -1.149   6.806  1.00  0.00     0.159 HD
ATOM     47  H   UNL     1      -6.219  -1.599   5.539  1.00  0.00     0.159 HD
ATOM     48  H   UNL     1     -10.063  -0.544   4.946  1.00  0.00     0.159 HD
ATOM     49  H   UNL     1      -9.206  -0.125   6.394  1.00  0.00     0.159 HD
ENDBRANCH  41  42
ENDBRANCH  40  41
ENDBRANCH  39  40
ENDBRANCH  38  39
ENDBRANCH  36  38
ENDBRANCH   5  34
BRANCH   8  50
ATOM     50  O   UNL     1     -11.960  -4.216   3.771  1.00  0.00    -0.245 OA
BRANCH  50  51
ATOM     51  S   UNL     1     -11.746  -3.340   2.417  1.00  0.00     0.397 S 
ATOM     52  O   UNL     1     -13.034  -2.821   2.013  1.00  0.00    -0.169 OA
ATOM     53  O   UNL     1     -10.897  -4.067   1.497  1.00  0.00    -0.169 OA
BRANCH  51  54
ATOM     54  O   UNL     1     -10.917  -2.075   2.964  1.00  0.00    -0.264 OA
ATOM     55  H   UNL     1     -10.015  -2.384   3.187  1.00  0.00     0.236 HD
ENDBRANCH  51  54
ENDBRANCH  50  51
ENDBRANCH   8  50
TORSDOF 19
ENDMDL
MODEL 19
REMARK VINA RESULT:    -6.468      3.404      4.885
REMARK INTER + INTRA:         -16.279
REMARK INTER:                 -12.291
REMARK INTRA:                  -3.988
REMARK UNBOUND:                -3.195
REMARK SMILES CC[C@@H](C)[C@@H](NC(=O)[C@@H](O)Cc1ccc(O)c(Cl)c1)C(=O)N1[C@H](C(=O)NCCCCN=C(N)N)C[C@H]2CC[C@H](OS(=O)(=O)O)C[C@@H]21
REMARK SMILES IDX 22 1 36 2 46 3 35 4 23 5 45 6 37 7 39 8 38 9 20 10 21 11
REMARK SMILES IDX 5 12 6 13 7 14 8 15 9 17 11 18 12 19 17 20 19 21 15 22 14 23
REMARK SMILES IDX 13 24 18 25 16 26 10 28 3 30 4 31 2 32 1 33 24 34 25 35
REMARK SMILES IDX 26 36 27 38 28 39 29 40 30 41 31 42 32 43 33 44 34 45 40 50
REMARK SMILES IDX 41 51 42 52 43 53 44 54
REMARK H PARENT 6 16 16 27 10 29 26 37 33 46 33 47 34 48 34 49 44 55
ROOT
ATOM      1  N   UNL     1     -10.301  -6.685   0.404  1.00  0.00    -0.326 N 
ATOM      2  C   UNL     1     -10.773  -6.625  -1.902  1.00  0.00     0.014 C 
ATOM      3  C   UNL     1     -11.437  -6.657  -0.522  1.00  0.00     0.091 C 
ATOM      4  C   UNL     1      -9.530  -7.477  -1.696  1.00  0.00     0.041 C 
ATOM      5  C   UNL     1      -9.041  -6.923  -0.344  1.00  0.00     0.175 C 
ATOM      6  C   UNL     1     -12.417  -5.490  -0.430  1.00  0.00     0.059 C 
ATOM      7  C   UNL     1     -11.761  -7.003  -2.988  1.00  0.00     0.008 C 
ATOM      8  C   UNL     1     -13.065  -5.115  -1.781  1.00  0.00     0.143 C 
ATOM      9  C   UNL     1     -13.122  -6.314  -2.749  1.00  0.00     0.034 C 
ENDROOT
BRANCH   1  10
ATOM     10  C   UNL     1     -10.284  -6.739   1.787  1.00  0.00     0.246 C 
ATOM     11  O   UNL     1      -9.798  -7.729   2.344  1.00  0.00    -0.272 OA
BRANCH  10  12
ATOM     12  C   UNL     1     -10.836  -5.538   2.608  1.00  0.00     0.174 C 
BRANCH  12  13
ATOM     13  N   UNL     1      -9.924  -4.399   2.500  1.00  0.00    -0.342 N 
ATOM     14  C   UNL     1     -10.308  -3.077   2.494  1.00  0.00     0.249 C 
ATOM     15  O   UNL     1     -11.468  -2.704   2.608  1.00  0.00    -0.272 OA
ATOM     16  H   UNL     1      -8.952  -4.555   2.244  1.00  0.00     0.164 HD
BRANCH  14  17
ATOM     17  C   UNL     1      -9.113  -2.111   2.350  1.00  0.00     0.207 C 
BRANCH  17  18
ATOM     18  C   UNL     1      -9.199  -0.993   3.394  1.00  0.00     0.077 C 
BRANCH  18  19
ATOM     19  C   UNL     1      -8.272  -1.241   4.562  1.00  0.00    -0.043 A 
ATOM     20  C   UNL     1      -7.913  -1.471   6.950  1.00  0.00     0.083 A 
ATOM     21  C   UNL     1      -8.778  -1.290   5.870  1.00  0.00     0.028 A 
ATOM     22  C   UNL     1      -6.541  -1.601   6.732  1.00  0.00     0.134 A 
ATOM     23  C   UNL     1      -6.027  -1.555   5.441  1.00  0.00     0.048 A 
ATOM     24  C   UNL     1      -6.890  -1.373   4.358  1.00  0.00     0.008 A 
ATOM     25  Cl  UNL     1      -8.554  -1.528   8.550  1.00  0.00    -0.080 Cl
BRANCH  22  26
ATOM     26  O   UNL     1      -5.653  -1.770   7.759  1.00  0.00    -0.506 OA
ATOM     27  H   UNL     1      -5.301  -0.885   7.973  1.00  0.00     0.293 HD
ENDBRANCH  22  26
ENDBRANCH  18  19
ENDBRANCH  17  18
BRANCH  17  28
ATOM     28  O   UNL     1      -9.071  -1.533   1.035  1.00  0.00    -0.383 OA
ATOM     29  H   UNL     1      -9.619  -2.118   0.464  1.00  0.00     0.211 HD
ENDBRANCH  17  28
ENDBRANCH  14  17
ENDBRANCH  12  13
BRANCH  12  30
ATOM     30  C   UNL     1     -11.146  -5.911   4.083  1.00  0.00     0.018 C 
ATOM     31  C   UNL     1     -12.599  -5.561   4.441  1.00  0.00     0.010 C 
BRANCH  30  32
ATOM     32  C   UNL     1     -10.176  -5.267   5.104  1.00  0.00     0.002 C 
ATOM     33  C   UNL     1     -10.817  -4.298   6.089  1.00  0.00     0.004 C 
ENDBRANCH  30  32
ENDBRANCH  12  30
ENDBRANCH  10  12
ENDBRANCH   1  10
BRANCH   5  34
ATOM     34  C   UNL     1      -8.248  -5.601  -0.521  1.00  0.00     0.242 C 
ATOM     35  O   UNL     1      -8.670  -4.521  -0.110  1.00  0.00    -0.273 OA
ATOM     36  N   UNL     1      -7.066  -5.716  -1.218  1.00  0.00    -0.354 N 
ATOM     37  H   UNL     1      -6.828  -6.616  -1.637  1.00  0.00     0.163 HD
BRANCH  36  38
ATOM     38  C   UNL     1      -6.102  -4.638  -1.289  1.00  0.00     0.116 C 
BRANCH  38  39
ATOM     39  C   UNL     1      -5.767  -4.337  -2.748  1.00  0.00     0.023 C 
BRANCH  39  40
ATOM     40  C   UNL     1      -6.977  -3.841  -3.533  1.00  0.00     0.026 C 
BRANCH  40  41
ATOM     41  C   UNL     1      -7.156  -4.648  -4.819  1.00  0.00     0.146 C 
BRANCH  41  42
ATOM     42  N   UNL     1      -6.935  -6.062  -4.548  1.00  0.00    -0.254 NA
ATOM     43  C   UNL     1      -7.817  -6.920  -4.901  1.00  0.00     0.185 C 
ATOM     44  N   UNL     1      -8.996  -6.742  -5.524  1.00  0.00    -0.370 N 
ATOM     45  N   UNL     1      -7.596  -8.219  -4.639  1.00  0.00    -0.370 N 
ATOM     46  H   UNL     1      -9.693  -7.468  -5.519  1.00  0.00     0.159 HD
ATOM     47  H   UNL     1      -9.315  -5.821  -5.808  1.00  0.00     0.159 HD
ATOM     48  H   UNL     1      -6.724  -8.441  -4.178  1.00  0.00     0.159 HD
ATOM     49  H   UNL     1      -8.109  -8.959  -5.084  1.00  0.00     0.159 HD
ENDBRANCH  41  42
ENDBRANCH  40  41
ENDBRANCH  39  40
ENDBRANCH  38  39
ENDBRANCH  36  38
ENDBRANCH   5  34
BRANCH   8  50
ATOM     50  O   UNL     1     -12.327  -4.063  -2.404  1.00  0.00    -0.245 OA
BRANCH  50  51
ATOM     51  S   UNL     1     -13.090  -2.695  -2.840  1.00  0.00     0.397 S 
ATOM     52  O   UNL     1     -13.804  -2.956  -4.070  1.00  0.00    -0.169 OA
ATOM     53  O   UNL     1     -12.186  -1.571  -2.710  1.00  0.00    -0.169 OA
BRANCH  51  54
ATOM     54  O   UNL     1     -14.216  -2.561  -1.700  1.00  0.00    -0.264 OA
ATOM     55  H   UNL     1     -14.802  -3.343  -1.766  1.00  0.00     0.236 HD
ENDBRANCH  51  54
ENDBRANCH  50  51
ENDBRANCH   8  50
TORSDOF 19
ENDMDL
MODEL 20
REMARK VINA RESULT:    -6.422      5.631      9.787
REMARK INTER + INTRA:         -16.187
REMARK INTER:                 -12.996
REMARK INTRA:                  -3.191
REMARK UNBOUND:                -3.195
REMARK SMILES CC[C@@H](C)[C@@H](NC(=O)[C@@H](O)Cc1ccc(O)c(Cl)c1)C(=O)N1[C@H](C(=O)NCCCCN=C(N)N)C[C@H]2CC[C@H](OS(=O)(=O)O)C[C@@H]21
REMARK SMILES IDX 22 1 36 2 46 3 35 4 23 5 45 6 37 7 39 8 38 9 20 10 21 11
REMARK SMILES IDX 5 12 6 13 7 14 8 15 9 17 11 18 12 19 17 20 19 21 15 22 14 23
REMARK SMILES IDX 13 24 18 25 16 26 10 28 3 30 4 31 2 32 1 33 24 34 25 35
REMARK SMILES IDX 26 36 27 38 28 39 29 40 30 41 31 42 32 43 33 44 34 45 40 50
REMARK SMILES IDX 41 51 42 52 43 53 44 54
REMARK H PARENT 6 16 16 27 10 29 26 37 33 46 33 47 34 48 34 49 44 55
ROOT
ATOM      1  N   UNL     1     -12.101  -4.799   9.388  1.00  0.00    -0.326 N 
ATOM      2  C   UNL     1     -13.072  -6.020  11.151  1.00  0.00     0.014 C 
ATOM      3  C   UNL     1     -13.296  -5.588   9.699  1.00  0.00     0.091 C 
ATOM      4  C   UNL     1     -12.345  -4.825  11.748  1.00  0.00     0.041 C 
ATOM      5  C   UNL     1     -11.328  -4.537  10.628  1.00  0.00     0.175 C 
ATOM      6  C   UNL     1     -13.579  -6.834   8.862  1.00  0.00     0.059 C 
ATOM      7  C   UNL     1     -14.366  -6.494  11.781  1.00  0.00     0.008 C 
ATOM      8  C   UNL     1     -14.310  -7.951   9.638  1.00  0.00     0.143 C 
ATOM      9  C   UNL     1     -15.152  -7.391  10.802  1.00  0.00     0.034 C 
ENDROOT
BRANCH   1  10
ATOM     10  C   UNL     1     -11.753  -4.134   8.224  1.00  0.00     0.246 C 
ATOM     11  O   UNL     1     -12.201  -3.000   8.023  1.00  0.00    -0.272 OA
BRANCH  10  12
ATOM     12  C   UNL     1     -10.776  -4.809   7.218  1.00  0.00     0.174 C 
BRANCH  12  13
ATOM     13  N   UNL     1     -10.213  -3.803   6.319  1.00  0.00    -0.342 N 
ATOM     14  C   UNL     1      -8.884  -3.707   5.973  1.00  0.00     0.249 C 
ATOM     15  O   UNL     1      -8.020  -4.482   6.365  1.00  0.00    -0.272 OA
ATOM     16  H   UNL     1     -10.777  -3.003   6.042  1.00  0.00     0.164 HD
BRANCH  14  17
ATOM     17  C   UNL     1      -8.600  -2.527   5.019  1.00  0.00     0.207 C 
BRANCH  17  18
ATOM     18  C   UNL     1      -7.718  -1.481   5.709  1.00  0.00     0.077 C 
BRANCH  18  19
ATOM     19  C   UNL     1      -8.146  -1.241   7.139  1.00  0.00    -0.043 A 
ATOM     20  C   UNL     1      -9.778  -0.422   8.737  1.00  0.00     0.083 A 
ATOM     21  C   UNL     1      -9.406  -0.688   7.419  1.00  0.00     0.028 A 
ATOM     22  C   UNL     1      -8.897  -0.704   9.782  1.00  0.00     0.134 A 
ATOM     23  C   UNL     1      -7.647  -1.253   9.519  1.00  0.00     0.048 A 
ATOM     24  C   UNL     1      -7.271  -1.518   8.201  1.00  0.00     0.008 A 
ATOM     25  Cl  UNL     1     -11.329   0.259   9.060  1.00  0.00    -0.080 Cl
BRANCH  22  26
ATOM     26  O   UNL     1      -9.213  -0.451  11.089  1.00  0.00    -0.506 OA
ATOM     27  H   UNL     1      -8.370  -0.411  11.578  1.00  0.00     0.293 HD
ENDBRANCH  22  26
ENDBRANCH  18  19
ENDBRANCH  17  18
BRANCH  17  28
ATOM     28  O   UNL     1      -9.821  -1.909   4.583  1.00  0.00    -0.383 OA
ATOM     29  H   UNL     1      -9.663  -0.939   4.621  1.00  0.00     0.211 HD
ENDBRANCH  17  28
ENDBRANCH  14  17
ENDBRANCH  12  13
BRANCH  12  30
ATOM     30  C   UNL     1     -11.427  -5.991   6.451  1.00  0.00     0.018 C 
ATOM     31  C   UNL     1     -10.369  -7.031   6.049  1.00  0.00     0.010 C 
BRANCH  30  32
ATOM     32  C   UNL     1     -12.241  -5.553   5.208  1.00  0.00     0.002 C 
ATOM     33  C   UNL     1     -13.738  -5.388   5.435  1.00  0.00     0.004 C 
ENDBRANCH  30  32
ENDBRANCH  12  30
ENDBRANCH  10  12
ENDBRANCH   1  10
BRANCH   5  34
ATOM     34  C   UNL     1     -10.097  -5.478  10.717  1.00  0.00     0.242 C 
ATOM     35  O   UNL     1      -9.108  -5.205  11.397  1.00  0.00    -0.273 OA
ATOM     36  N   UNL     1     -10.169  -6.613   9.940  1.00  0.00    -0.354 N 
ATOM     37  H   UNL     1     -10.961  -6.725   9.307  1.00  0.00     0.163 HD
BRANCH  36  38
ATOM     38  C   UNL     1      -9.217  -7.697  10.065  1.00  0.00     0.116 C 
BRANCH  38  39
ATOM     39  C   UNL     1      -9.656  -8.874   9.197  1.00  0.00     0.023 C 
BRANCH  39  40
ATOM     40  C   UNL     1      -8.505  -9.821   8.874  1.00  0.00     0.026 C 
BRANCH  40  41
ATOM     41  C   UNL     1      -8.822 -11.240   9.344  1.00  0.00     0.146 C 
BRANCH  41  42
ATOM     42  N   UNL     1      -9.937 -11.211  10.282  1.00  0.00    -0.254 NA
ATOM     43  C   UNL     1      -9.783 -11.679  11.463  1.00  0.00     0.185 C 
ATOM     44  N   UNL     1      -8.701 -12.233  12.040  1.00  0.00    -0.370 N 
ATOM     45  N   UNL     1     -10.824 -11.647  12.311  1.00  0.00    -0.370 N 
ATOM     46  H   UNL     1      -8.790 -12.776  12.883  1.00  0.00     0.159 HD
ATOM     47  H   UNL     1      -7.820 -12.324  11.544  1.00  0.00     0.159 HD
ATOM     48  H   UNL     1     -11.677 -11.237  11.958  1.00  0.00     0.159 HD
ATOM     49  H   UNL     1     -10.722 -11.769  13.303  1.00  0.00     0.159 HD
ENDBRANCH  41  42
ENDBRANCH  40  41
ENDBRANCH  39  40
ENDBRANCH  38  39
ENDBRANCH  36  38
ENDBRANCH   5  34
BRANCH   8  50
ATOM     50  O   UNL     1     -13.364  -8.880  10.168  1.00  0.00    -0.245 OA
BRANCH  50  51
ATOM     51  S   UNL     1     -13.849 -10.380  10.568  1.00  0.00     0.397 S 
ATOM     52  O   UNL     1     -15.093 -10.645   9.881  1.00  0.00    -0.169 OA
ATOM     53  O   UNL     1     -13.714 -10.570  11.997  1.00  0.00    -0.169 OA
BRANCH  51  54
ATOM     54  O   UNL     1     -12.744 -11.294   9.839  1.00  0.00    -0.264 OA
ATOM     55  H   UNL     1     -13.168 -11.711   9.062  1.00  0.00     0.236 HD
ENDBRANCH  51  54
ENDBRANCH  50  51
ENDBRANCH   8  50
TORSDOF 19
ENDMDL
MODEL 21
REMARK VINA RESULT:    -6.420      3.631      7.219
REMARK INTER + INTRA:         -16.183
REMARK INTER:                 -11.747
REMARK INTRA:                  -4.437
REMARK UNBOUND:                -3.195
REMARK SMILES CC[C@@H](C)[C@@H](NC(=O)[C@@H](O)Cc1ccc(O)c(Cl)c1)C(=O)N1[C@H](C(=O)NCCCCN=C(N)N)C[C@H]2CC[C@H](OS(=O)(=O)O)C[C@@H]21
REMARK SMILES IDX 22 1 36 2 46 3 35 4 23 5 45 6 37 7 39 8 38 9 20 10 21 11
REMARK SMILES IDX 5 12 6 13 7 14 8 15 9 17 11 18 12 19 17 20 19 21 15 22 14 23
REMARK SMILES IDX 13 24 18 25 16 26 10 28 3 30 4 31 2 32 1 33 24 34 25 35
REMARK SMILES IDX 26 36 27 38 28 39 29 40 30 41 31 42 32 43 33 44 34 45 40 50
REMARK SMILES IDX 41 51 42 52 43 53 44 54
REMARK H PARENT 6 16 16 27 10 29 26 37 33 46 33 47 34 48 34 49 44 55
ROOT
ATOM      1  N   UNL     1     -11.328  -6.806  -1.573  1.00  0.00    -0.326 N 
ATOM      2  C   UNL     1      -9.786  -8.097  -2.797  1.00  0.00     0.014 C 
ATOM      3  C   UNL     1     -10.574  -6.784  -2.830  1.00  0.00     0.091 C 
ATOM      4  C   UNL     1     -10.745  -9.046  -2.094  1.00  0.00     0.041 C 
ATOM      5  C   UNL     1     -11.223  -8.144  -0.941  1.00  0.00     0.175 C 
ATOM      6  C   UNL     1      -9.593  -5.638  -3.067  1.00  0.00     0.059 C 
ATOM      7  C   UNL     1      -9.267  -8.452  -4.177  1.00  0.00     0.008 C 
ATOM      8  C   UNL     1      -8.376  -6.030  -3.933  1.00  0.00     0.143 C 
ATOM      9  C   UNL     1      -8.693  -7.204  -4.881  1.00  0.00     0.034 C 
ENDROOT
BRANCH   1  10
ATOM     10  C   UNL     1     -12.229  -5.887  -1.063  1.00  0.00     0.246 C 
ATOM     11  O   UNL     1     -13.423  -6.197  -0.984  1.00  0.00    -0.272 OA
BRANCH  10  12
ATOM     12  C   UNL     1     -11.716  -4.506  -0.562  1.00  0.00     0.174 C 
BRANCH  12  13
ATOM     13  N   UNL     1     -11.707  -4.478   0.900  1.00  0.00    -0.342 N 
ATOM     14  C   UNL     1     -10.884  -3.686   1.669  1.00  0.00     0.249 C 
ATOM     15  O   UNL     1     -10.078  -2.888   1.207  1.00  0.00    -0.272 OA
ATOM     16  H   UNL     1     -12.206  -5.194   1.421  1.00  0.00     0.164 HD
BRANCH  14  17
ATOM     17  C   UNL     1     -11.100  -3.897   3.183  1.00  0.00     0.207 C 
BRANCH  17  18
ATOM     18  C   UNL     1     -12.039  -5.083   3.430  1.00  0.00     0.077 C 
BRANCH  18  19
ATOM     19  C   UNL     1     -11.980  -5.557   4.864  1.00  0.00    -0.043 A 
ATOM     20  C   UNL     1     -10.800  -6.682   6.661  1.00  0.00     0.083 A 
ATOM     21  C   UNL     1     -10.833  -6.202   5.351  1.00  0.00     0.028 A 
ATOM     22  C   UNL     1     -11.911  -6.523   7.490  1.00  0.00     0.134 A 
ATOM     23  C   UNL     1     -13.054  -5.886   7.021  1.00  0.00     0.048 A 
ATOM     24  C   UNL     1     -13.090  -5.406   5.710  1.00  0.00     0.008 A 
ATOM     25  Cl  UNL     1      -9.381  -7.472   7.240  1.00  0.00    -0.080 Cl
BRANCH  22  26
ATOM     26  O   UNL     1     -11.930  -6.987   8.778  1.00  0.00    -0.506 OA
ATOM     27  H   UNL     1     -11.009  -6.967   9.096  1.00  0.00     0.293 HD
ENDBRANCH  22  26
ENDBRANCH  18  19
ENDBRANCH  17  18
BRANCH  17  28
ATOM     28  O   UNL     1     -11.648  -2.720   3.796  1.00  0.00    -0.383 OA
ATOM     29  H   UNL     1     -11.698  -2.041   3.086  1.00  0.00     0.211 HD
ENDBRANCH  17  28
ENDBRANCH  14  17
ENDBRANCH  12  13
BRANCH  12  30
ATOM     30  C   UNL     1     -12.505  -3.316  -1.173  1.00  0.00     0.018 C 
ATOM     31  C   UNL     1     -13.773  -3.025  -0.355  1.00  0.00     0.010 C 
BRANCH  30  32
ATOM     32  C   UNL     1     -12.867  -3.511  -2.665  1.00  0.00     0.002 C 
ATOM     33  C   UNL     1     -12.980  -2.229  -3.480  1.00  0.00     0.004 C 
ENDBRANCH  30  32
ENDBRANCH  12  30
ENDBRANCH  10  12
ENDBRANCH   1  10
BRANCH   5  34
ATOM     34  C   UNL     1     -10.203  -8.122   0.228  1.00  0.00     0.242 C 
ATOM     35  O   UNL     1      -9.760  -7.073   0.695  1.00  0.00    -0.273 OA
ATOM     36  N   UNL     1      -9.789  -9.359   0.668  1.00  0.00    -0.354 N 
ATOM     37  H   UNL     1     -10.100 -10.190   0.163  1.00  0.00     0.163 HD
BRANCH  36  38
ATOM     38  C   UNL     1      -9.015  -9.530   1.880  1.00  0.00     0.116 C 
BRANCH  38  39
ATOM     39  C   UNL     1      -8.421 -10.936   1.922  1.00  0.00     0.023 C 
BRANCH  39  40
ATOM     40  C   UNL     1      -6.912 -10.925   2.143  1.00  0.00     0.026 C 
BRANCH  40  41
ATOM     41  C   UNL     1      -6.283  -9.677   1.523  1.00  0.00     0.146 C 
BRANCH  41  42
ATOM     42  N   UNL     1      -6.167  -9.849   0.081  1.00  0.00    -0.254 NA
ATOM     43  C   UNL     1      -6.408  -8.861  -0.696  1.00  0.00     0.185 C 
ATOM     44  N   UNL     1      -6.774  -7.599  -0.403  1.00  0.00    -0.370 N 
ATOM     45  N   UNL     1      -6.299  -9.041  -2.022  1.00  0.00    -0.370 N 
ATOM     46  H   UNL     1      -7.165  -7.002  -1.112  1.00  0.00     0.159 HD
ATOM     47  H   UNL     1      -6.890  -7.287   0.556  1.00  0.00     0.159 HD
ATOM     48  H   UNL     1      -6.018  -9.963  -2.328  1.00  0.00     0.159 HD
ATOM     49  H   UNL     1      -6.238  -8.277  -2.672  1.00  0.00     0.159 HD
ENDBRANCH  41  42
ENDBRANCH  40  41
ENDBRANCH  39  40
ENDBRANCH  38  39
ENDBRANCH  36  38
ENDBRANCH   5  34
BRANCH   8  50
ATOM     50  O   UNL     1      -7.281  -6.405  -3.097  1.00  0.00    -0.245 OA
BRANCH  50  51
ATOM     51  S   UNL     1      -6.018  -5.394  -2.925  1.00  0.00     0.397 S 
ATOM     52  O   UNL     1      -6.173  -4.696  -1.669  1.00  0.00    -0.169 OA
ATOM     53  O   UNL     1      -5.792  -4.684  -4.167  1.00  0.00    -0.169 OA
BRANCH  51  54
ATOM     54  O   UNL     1      -4.796  -6.417  -2.710  1.00  0.00    -0.264 OA
ATOM     55  H   UNL     1      -4.843  -7.092  -3.418  1.00  0.00     0.236 HD
ENDBRANCH  51  54
ENDBRANCH  50  51
ENDBRANCH   8  50
TORSDOF 19
ENDMDL
MODEL 22
REMARK VINA RESULT:    -6.402      7.021     10.021
REMARK INTER + INTRA:         -16.147
REMARK INTER:                 -13.578
REMARK INTRA:                  -2.569
REMARK UNBOUND:                -3.195
REMARK SMILES CC[C@@H](C)[C@@H](NC(=O)[C@@H](O)Cc1ccc(O)c(Cl)c1)C(=O)N1[C@H](C(=O)NCCCCN=C(N)N)C[C@H]2CC[C@H](OS(=O)(=O)O)C[C@@H]21
REMARK SMILES IDX 22 1 36 2 46 3 35 4 23 5 45 6 37 7 39 8 38 9 20 10 21 11
REMARK SMILES IDX 5 12 6 13 7 14 8 15 9 17 11 18 12 19 17 20 19 21 15 22 14 23
REMARK SMILES IDX 13 24 18 25 16 26 10 28 3 30 4 31 2 32 1 33 24 34 25 35
REMARK SMILES IDX 26 36 27 38 28 39 29 40 30 41 31 42 32 43 33 44 34 45 40 50
REMARK SMILES IDX 41 51 42 52 43 53 44 54
REMARK H PARENT 6 16 16 27 10 29 26 37 33 46 33 47 34 48 34 49 44 55
ROOT
ATOM      1  N   UNL     1     -11.136  -5.056   9.123  1.00  0.00    -0.326 N 
ATOM      2  C   UNL     1     -11.236  -6.481   7.252  1.00  0.00     0.014 C 
ATOM      3  C   UNL     1     -10.314  -5.514   7.999  1.00  0.00     0.091 C 
ATOM      4  C   UNL     1     -12.607  -5.850   7.439  1.00  0.00     0.041 C 
ATOM      5  C   UNL     1     -12.541  -5.496   8.936  1.00  0.00     0.175 C 
ATOM      6  C   UNL     1      -9.003  -6.235   8.307  1.00  0.00     0.059 C 
ATOM      7  C   UNL     1     -10.724  -6.744   5.849  1.00  0.00     0.008 C 
ATOM      8  C   UNL     1      -8.609  -7.286   7.246  1.00  0.00     0.143 C 
ATOM      9  C   UNL     1      -9.196  -6.958   5.859  1.00  0.00     0.034 C 
ENDROOT
BRANCH   1  10
ATOM     10  C   UNL     1     -10.839  -4.154  10.130  1.00  0.00     0.246 C 
ATOM     11  O   UNL     1     -10.898  -4.526  11.307  1.00  0.00    -0.272 OA
BRANCH  10  12
ATOM     12  C   UNL     1     -10.398  -2.708   9.760  1.00  0.00     0.174 C 
BRANCH  12  13
ATOM     13  N   UNL     1      -9.653  -2.115  10.869  1.00  0.00    -0.342 N 
ATOM     14  C   UNL     1      -8.306  -1.829  10.853  1.00  0.00     0.249 C 
ATOM     15  O   UNL     1      -7.580  -2.017   9.885  1.00  0.00    -0.272 OA
ATOM     16  H   UNL     1     -10.084  -2.048  11.788  1.00  0.00     0.164 HD
BRANCH  14  17
ATOM     17  C   UNL     1      -7.810  -1.223  12.184  1.00  0.00     0.207 C 
BRANCH  17  18
ATOM     18  C   UNL     1      -7.998   0.297  12.183  1.00  0.00     0.077 C 
BRANCH  18  19
ATOM     19  C   UNL     1      -6.709   1.023  12.495  1.00  0.00    -0.043 A 
ATOM     20  C   UNL     1      -4.655   2.076  11.747  1.00  0.00     0.083 A 
ATOM     21  C   UNL     1      -5.868   1.451  11.455  1.00  0.00     0.028 A 
ATOM     22  C   UNL     1      -4.275   2.277  13.075  1.00  0.00     0.134 A 
ATOM     23  C   UNL     1      -5.098   1.859  14.114  1.00  0.00     0.048 A 
ATOM     24  C   UNL     1      -6.312   1.231  13.825  1.00  0.00     0.008 A 
ATOM     25  Cl  UNL     1      -3.635   2.594  10.457  1.00  0.00    -0.080 Cl
BRANCH  22  26
ATOM     26  O   UNL     1      -3.091   2.876  13.410  1.00  0.00    -0.506 OA
ATOM     27  H   UNL     1      -2.389   2.393  12.936  1.00  0.00     0.293 HD
ENDBRANCH  22  26
ENDBRANCH  18  19
ENDBRANCH  17  18
BRANCH  17  28
ATOM     28  O   UNL     1      -6.425  -1.532  12.408  1.00  0.00    -0.383 OA
ATOM     29  H   UNL     1      -5.941  -1.202  11.617  1.00  0.00     0.211 HD
ENDBRANCH  17  28
ENDBRANCH  14  17
ENDBRANCH  12  13
BRANCH  12  30
ATOM     30  C   UNL     1     -11.584  -1.819   9.299  1.00  0.00     0.018 C 
ATOM     31  C   UNL     1     -11.926  -2.085   7.825  1.00  0.00     0.010 C 
BRANCH  30  32
ATOM     32  C   UNL     1     -11.350  -0.305   9.526  1.00  0.00     0.002 C 
ATOM     33  C   UNL     1     -10.451   0.375   8.502  1.00  0.00     0.004 C 
ENDBRANCH  30  32
ENDBRANCH  12  30
ENDBRANCH  10  12
ENDBRANCH   1  10
BRANCH   5  34
ATOM     34  C   UNL     1     -12.856  -6.725   9.830  1.00  0.00     0.242 C 
ATOM     35  O   UNL     1     -12.070  -7.137  10.682  1.00  0.00    -0.273 OA
ATOM     36  N   UNL     1     -14.053  -7.352   9.563  1.00  0.00    -0.354 N 
ATOM     37  H   UNL     1     -14.605  -7.036   8.765  1.00  0.00     0.163 HD
BRANCH  36  38
ATOM     38  C   UNL     1     -14.602  -8.371  10.432  1.00  0.00     0.116 C 
BRANCH  38  39
ATOM     39  C   UNL     1     -15.118  -9.541   9.597  1.00  0.00     0.023 C 
BRANCH  39  40
ATOM     40  C   UNL     1     -14.389 -10.844   9.907  1.00  0.00     0.026 C 
BRANCH  40  41
ATOM     41  C   UNL     1     -13.272 -10.612  10.925  1.00  0.00     0.146 C 
BRANCH  41  42
ATOM     42  N   UNL     1     -11.985 -10.947  10.330  1.00  0.00    -0.254 NA
ATOM     43  C   UNL     1     -11.297 -11.913  10.813  1.00  0.00     0.185 C 
ATOM     44  N   UNL     1     -11.564 -12.735  11.844  1.00  0.00    -0.370 N 
ATOM     45  N   UNL     1     -10.111 -12.203  10.253  1.00  0.00    -0.370 N 
ATOM     46  H   UNL     1     -10.834 -13.283  12.265  1.00  0.00     0.159 HD
ATOM     47  H   UNL     1     -12.428 -12.664  12.373  1.00  0.00     0.159 HD
ATOM     48  H   UNL     1      -9.837 -11.635   9.463  1.00  0.00     0.159 HD
ATOM     49  H   UNL     1      -9.633 -13.072  10.412  1.00  0.00     0.159 HD
ENDBRANCH  41  42
ENDBRANCH  40  41
ENDBRANCH  39  40
ENDBRANCH  38  39
ENDBRANCH  36  38
ENDBRANCH   5  34
BRANCH   8  50
ATOM     50  O   UNL     1      -9.072  -8.578   7.640  1.00  0.00    -0.245 OA
BRANCH  50  51
ATOM     51  S   UNL     1      -8.085  -9.566   8.474  1.00  0.00     0.397 S 
ATOM     52  O   UNL     1      -6.754  -9.002   8.436  1.00  0.00    -0.169 OA
ATOM     53  O   UNL     1      -8.338 -10.940   8.094  1.00  0.00    -0.169 OA
BRANCH  51  54
ATOM     54  O   UNL     1      -8.603  -9.365   9.982  1.00  0.00    -0.264 OA
ATOM     55  H   UNL     1      -9.542  -9.090   9.941  1.00  0.00     0.236 HD
ENDBRANCH  51  54
ENDBRANCH  50  51
ENDBRANCH   8  50
TORSDOF 19
ENDMDL
MODEL 23
REMARK VINA RESULT:    -6.367      4.479      8.043
REMARK INTER + INTRA:         -16.076
REMARK INTER:                 -10.775
REMARK INTRA:                  -5.301
REMARK UNBOUND:                -3.195
REMARK SMILES CC[C@@H](C)[C@@H](NC(=O)[C@@H](O)Cc1ccc(O)c(Cl)c1)C(=O)N1[C@H](C(=O)NCCCCN=C(N)N)C[C@H]2CC[C@H](OS(=O)(=O)O)C[C@@H]21
REMARK SMILES IDX 22 1 36 2 46 3 35 4 23 5 45 6 37 7 39 8 38 9 20 10 21 11
REMARK SMILES IDX 5 12 6 13 7 14 8 15 9 17 11 18 12 19 17 20 19 21 15 22 14 23
REMARK SMILES IDX 13 24 18 25 16 26 10 28 3 30 4 31 2 32 1 33 24 34 25 35
REMARK SMILES IDX 26 36 27 38 28 39 29 40 30 41 31 42 32 43 33 44 34 45 40 50
REMARK SMILES IDX 41 51 42 52 43 53 44 54
REMARK H PARENT 6 16 16 27 10 29 26 37 33 46 33 47 34 48 34 49 44 55
ROOT
ATOM      1  N   UNL     1     -10.904  -6.076   5.449  1.00  0.00    -0.326 N 
ATOM      2  C   UNL     1     -12.331  -5.891   7.312  1.00  0.00     0.014 C 
ATOM      3  C   UNL     1     -11.159  -6.700   6.750  1.00  0.00     0.091 C 
ATOM      4  C   UNL     1     -13.135  -5.557   6.064  1.00  0.00     0.041 C 
ATOM      5  C   UNL     1     -12.000  -5.134   5.114  1.00  0.00     0.175 C 
ATOM      6  C   UNL     1     -10.035  -6.704   7.785  1.00  0.00     0.059 C 
ATOM      7  C   UNL     1     -13.003  -6.629   8.453  1.00  0.00     0.008 C 
ATOM      8  C   UNL     1     -10.535  -6.654   9.245  1.00  0.00     0.143 C 
ATOM      9  C   UNL     1     -11.949  -7.250   9.394  1.00  0.00     0.034 C 
ENDROOT
BRANCH   1  10
ATOM     10  C   UNL     1      -9.969  -6.396   4.479  1.00  0.00     0.246 C 
ATOM     11  O   UNL     1     -10.328  -7.040   3.487  1.00  0.00    -0.272 OA
BRANCH  10  12
ATOM     12  C   UNL     1      -8.502  -5.903   4.635  1.00  0.00     0.174 C 
BRANCH  12  13
ATOM     13  N   UNL     1      -8.484  -4.580   5.260  1.00  0.00    -0.342 N 
ATOM     14  C   UNL     1      -7.709  -4.228   6.342  1.00  0.00     0.249 C 
ATOM     15  O   UNL     1      -6.918  -4.986   6.891  1.00  0.00    -0.272 OA
ATOM     16  H   UNL     1      -9.197  -3.898   5.015  1.00  0.00     0.164 HD
BRANCH  14  17
ATOM     17  C   UNL     1      -7.928  -2.764   6.780  1.00  0.00     0.207 C 
BRANCH  17  18
ATOM     18  C   UNL     1      -6.723  -1.902   6.389  1.00  0.00     0.077 C 
BRANCH  18  19
ATOM     19  C   UNL     1      -6.827  -1.405   4.965  1.00  0.00    -0.043 A 
ATOM     20  C   UNL     1      -8.175  -0.671   3.087  1.00  0.00     0.083 A 
ATOM     21  C   UNL     1      -8.078  -1.082   4.416  1.00  0.00     0.028 A 
ATOM     22  C   UNL     1      -7.028  -0.580   2.298  1.00  0.00     0.134 A 
ATOM     23  C   UNL     1      -5.783  -0.896   2.828  1.00  0.00     0.048 A 
ATOM     24  C   UNL     1      -5.682  -1.310   4.158  1.00  0.00     0.008 A 
ATOM     25  Cl  UNL     1      -9.722  -0.279   2.431  1.00  0.00    -0.080 Cl
BRANCH  22  26
ATOM     26  O   UNL     1      -7.075  -0.192   0.986  1.00  0.00    -0.506 OA
ATOM     27  H   UNL     1      -7.246  -0.996   0.462  1.00  0.00     0.293 HD
ENDBRANCH  22  26
ENDBRANCH  18  19
ENDBRANCH  17  18
BRANCH  17  28
ATOM     28  O   UNL     1      -8.138  -2.674   8.198  1.00  0.00    -0.383 OA
ATOM     29  H   UNL     1      -8.612  -3.497   8.456  1.00  0.00     0.211 HD
ENDBRANCH  17  28
ENDBRANCH  14  17
ENDBRANCH  12  13
BRANCH  12  30
ATOM     30  C   UNL     1      -7.711  -5.937   3.300  1.00  0.00     0.018 C 
ATOM     31  C   UNL     1      -6.398  -6.718   3.462  1.00  0.00     0.010 C 
BRANCH  30  32
ATOM     32  C   UNL     1      -7.427  -4.535   2.709  1.00  0.00     0.002 C 
ATOM     33  C   UNL     1      -8.438  -4.044   1.681  1.00  0.00     0.004 C 
ENDBRANCH  30  32
ENDBRANCH  12  30
ENDBRANCH  10  12
ENDBRANCH   1  10
BRANCH   5  34
ATOM     34  C   UNL     1     -11.560  -3.667   5.366  1.00  0.00     0.242 C 
ATOM     35  O   UNL     1     -11.080  -2.962   4.478  1.00  0.00    -0.273 OA
ATOM     36  N   UNL     1     -11.696  -3.229   6.664  1.00  0.00    -0.354 N 
ATOM     37  H   UNL     1     -11.987  -3.896   7.380  1.00  0.00     0.163 HD
BRANCH  36  38
ATOM     38  C   UNL     1     -11.540  -1.837   7.031  1.00  0.00     0.116 C 
BRANCH  38  39
ATOM     39  C   UNL     1     -11.514  -1.701   8.552  1.00  0.00     0.023 C 
BRANCH  39  40
ATOM     40  C   UNL     1     -11.663  -0.254   9.010  1.00  0.00     0.026 C 
BRANCH  40  41
ATOM     41  C   UNL     1     -10.689   0.057  10.146  1.00  0.00     0.146 C 
BRANCH  41  42
ATOM     42  N   UNL     1      -9.515  -0.798  10.036  1.00  0.00    -0.254 NA
ATOM     43  C   UNL     1      -8.540  -0.643  10.851  1.00  0.00     0.185 C 
ATOM     44  N   UNL     1      -8.391   0.228  11.866  1.00  0.00    -0.370 N 
ATOM     45  N   UNL     1      -7.464  -1.438  10.731  1.00  0.00    -0.370 N 
ATOM     46  H   UNL     1      -7.483   0.403  12.263  1.00  0.00     0.159 HD
ATOM     47  H   UNL     1      -9.117   0.896  12.106  1.00  0.00     0.159 HD
ATOM     48  H   UNL     1      -7.499  -2.130   9.994  1.00  0.00     0.159 HD
ATOM     49  H   UNL     1      -6.779  -1.541  11.458  1.00  0.00     0.159 HD
ENDBRANCH  41  42
ENDBRANCH  40  41
ENDBRANCH  39  40
ENDBRANCH  38  39
ENDBRANCH  36  38
ENDBRANCH   5  34
BRANCH   8  50
ATOM     50  O   UNL     1     -10.560  -5.304   9.709  1.00  0.00    -0.245 OA
BRANCH  50  51
ATOM     51  S   UNL     1      -9.543  -4.841  10.890  1.00  0.00     0.397 S 
ATOM     52  O   UNL     1      -8.305  -4.420  10.274  1.00  0.00    -0.169 OA
ATOM     53  O   UNL     1      -9.564  -5.817  11.960  1.00  0.00    -0.169 OA
BRANCH  51  54
ATOM     54  O   UNL     1     -10.243  -3.498  11.430  1.00  0.00    -0.264 OA
ATOM     55  H   UNL     1     -10.172  -2.821  10.726  1.00  0.00     0.236 HD
ENDBRANCH  51  54
ENDBRANCH  50  51
ENDBRANCH   8  50
TORSDOF 19
ENDMDL
MODEL 24
REMARK VINA RESULT:    -6.356      5.958      8.588
REMARK INTER + INTRA:         -16.054
REMARK INTER:                 -12.616
REMARK INTRA:                  -3.438
REMARK UNBOUND:                -3.195
REMARK SMILES CC[C@@H](C)[C@@H](NC(=O)[C@@H](O)Cc1ccc(O)c(Cl)c1)C(=O)N1[C@H](C(=O)NCCCCN=C(N)N)C[C@H]2CC[C@H](OS(=O)(=O)O)C[C@@H]21
REMARK SMILES IDX 22 1 36 2 46 3 35 4 23 5 45 6 37 7 39 8 38 9 20 10 21 11
REMARK SMILES IDX 5 12 6 13 7 14 8 15 9 17 11 18 12 19 17 20 19 21 15 22 14 23
REMARK SMILES IDX 13 24 18 25 16 26 10 28 3 30 4 31 2 32 1 33 24 34 25 35
REMARK SMILES IDX 26 36 27 38 28 39 29 40 30 41 31 42 32 43 33 44 34 45 40 50
REMARK SMILES IDX 41 51 42 52 43 53 44 54
REMARK H PARENT 6 16 16 27 10 29 26 37 33 46 33 47 34 48 34 49 44 55
ROOT
ATOM      1  N   UNL     1     -10.918  -6.417  10.308  1.00  0.00    -0.326 N 
ATOM      2  C   UNL     1     -10.847  -8.682   9.670  1.00  0.00     0.014 C 
ATOM      3  C   UNL     1     -10.824  -7.759  10.891  1.00  0.00     0.091 C 
ATOM      4  C   UNL     1     -10.098  -7.872   8.623  1.00  0.00     0.041 C 
ATOM      5  C   UNL     1     -10.742  -6.490   8.836  1.00  0.00     0.175 C 
ATOM      6  C   UNL     1     -11.919  -8.207  11.857  1.00  0.00     0.059 C 
ATOM      7  C   UNL     1     -10.353 -10.070  10.030  1.00  0.00     0.008 C 
ATOM      8  C   UNL     1     -12.189  -9.727  11.828  1.00  0.00     0.143 C 
ATOM      9  C   UNL     1     -10.950 -10.527  11.378  1.00  0.00     0.034 C 
ENDROOT
BRANCH   1  10
ATOM     10  C   UNL     1     -10.924  -5.179  10.926  1.00  0.00     0.246 C 
ATOM     11  O   UNL     1      -9.958  -4.851  11.624  1.00  0.00    -0.272 OA
BRANCH  10  12
ATOM     12  C   UNL     1     -12.121  -4.212  10.696  1.00  0.00     0.174 C 
BRANCH  12  13
ATOM     13  N   UNL     1     -11.627  -2.878  10.355  1.00  0.00    -0.342 N 
ATOM     14  C   UNL     1     -11.593  -2.350   9.084  1.00  0.00     0.249 C 
ATOM     15  O   UNL     1     -12.004  -2.936   8.090  1.00  0.00    -0.272 OA
ATOM     16  H   UNL     1     -11.113  -2.339  11.047  1.00  0.00     0.164 HD
BRANCH  14  17
ATOM     17  C   UNL     1     -10.998  -0.926   9.047  1.00  0.00     0.207 C 
BRANCH  17  18
ATOM     18  C   UNL     1     -10.428  -0.547  10.418  1.00  0.00     0.077 C 
BRANCH  18  19
ATOM     19  C   UNL     1      -8.916  -0.524  10.410  1.00  0.00    -0.043 A 
ATOM     20  C   UNL     1      -6.825   0.449  11.161  1.00  0.00     0.083 A 
ATOM     21  C   UNL     1      -8.218   0.396  11.208  1.00  0.00     0.028 A 
ATOM     22  C   UNL     1      -6.121  -0.414  10.320  1.00  0.00     0.134 A 
ATOM     23  C   UNL     1      -6.800  -1.331   9.525  1.00  0.00     0.048 A 
ATOM     24  C   UNL     1      -8.195  -1.384   9.568  1.00  0.00     0.008 A 
ATOM     25  Cl  UNL     1      -5.985   1.587  12.148  1.00  0.00    -0.080 Cl
BRANCH  22  26
ATOM     26  O   UNL     1      -4.756  -0.393  10.233  1.00  0.00    -0.506 OA
ATOM     27  H   UNL     1      -4.514  -0.965   9.481  1.00  0.00     0.293 HD
ENDBRANCH  22  26
ENDBRANCH  18  19
ENDBRANCH  17  18
BRANCH  17  28
ATOM     28  O   UNL     1     -11.991   0.039   8.661  1.00  0.00    -0.383 OA
ATOM     29  H   UNL     1     -12.040   0.689   9.398  1.00  0.00     0.211 HD
ENDBRANCH  17  28
ENDBRANCH  14  17
ENDBRANCH  12  13
BRANCH  12  30
ATOM     30  C   UNL     1     -13.111  -4.188  11.892  1.00  0.00     0.018 C 
ATOM     31  C   UNL     1     -14.313  -5.109  11.624  1.00  0.00     0.010 C 
BRANCH  30  32
ATOM     32  C   UNL     1     -13.602  -2.768  12.264  1.00  0.00     0.002 C 
ATOM     33  C   UNL     1     -14.922  -2.713  13.023  1.00  0.00     0.004 C 
ENDBRANCH  30  32
ENDBRANCH  12  30
ENDBRANCH  10  12
ENDBRANCH   1  10
BRANCH   5  34
ATOM     34  C   UNL     1     -12.110  -6.378   8.112  1.00  0.00     0.242 C 
ATOM     35  O   UNL     1     -13.166  -6.725   8.642  1.00  0.00    -0.273 OA
ATOM     36  N   UNL     1     -12.051  -5.915   6.817  1.00  0.00    -0.354 N 
ATOM     37  H   UNL     1     -11.136  -5.758   6.392  1.00  0.00     0.163 HD
BRANCH  36  38
ATOM     38  C   UNL     1     -13.238  -5.547   6.072  1.00  0.00     0.116 C 
BRANCH  38  39
ATOM     39  C   UNL     1     -12.863  -5.216   4.630  1.00  0.00     0.023 C 
BRANCH  39  40
ATOM     40  C   UNL     1     -12.853  -3.715   4.360  1.00  0.00     0.026 C 
BRANCH  40  41
ATOM     41  C   UNL     1     -11.436  -3.229   4.055  1.00  0.00     0.146 C 
BRANCH  41  42
ATOM     42  N   UNL     1     -10.553  -3.558   5.166  1.00  0.00    -0.254 NA
ATOM     43  C   UNL     1      -9.722  -2.683   5.594  1.00  0.00     0.185 C 
ATOM     44  N   UNL     1      -9.499  -1.423   5.177  1.00  0.00    -0.370 N 
ATOM     45  N   UNL     1      -8.914  -3.008   6.617  1.00  0.00    -0.370 N 
ATOM     46  H   UNL     1      -8.658  -0.938   5.438  1.00  0.00     0.159 HD
ATOM     47  H   UNL     1     -10.034  -1.011   4.419  1.00  0.00     0.159 HD
ATOM     48  H   UNL     1      -9.023  -3.938   6.997  1.00  0.00     0.159 HD
ATOM     49  H   UNL     1      -8.416  -2.321   7.155  1.00  0.00     0.159 HD
ENDBRANCH  41  42
ENDBRANCH  40  41
ENDBRANCH  39  40
ENDBRANCH  38  39
ENDBRANCH  36  38
ENDBRANCH   5  34
BRANCH   8  50
ATOM     50  O   UNL     1     -13.265 -10.017  10.935  1.00  0.00    -0.245 OA
BRANCH  50  51
ATOM     51  S   UNL     1     -14.677 -10.564  11.530  1.00  0.00     0.397 S 
ATOM     52  O   UNL     1     -14.442 -11.032  12.877  1.00  0.00    -0.169 OA
ATOM     53  O   UNL     1     -15.332 -11.394  10.540  1.00  0.00    -0.169 OA
BRANCH  51  54
ATOM     54  O   UNL     1     -15.526  -9.207  11.679  1.00  0.00    -0.264 OA
ATOM     55  H   UNL     1     -16.439  -9.453  11.932  1.00  0.00     0.236 HD
ENDBRANCH  51  54
ENDBRANCH  50  51
ENDBRANCH   8  50
TORSDOF 19
ENDMDL
MODEL 25
REMARK VINA RESULT:    -6.350      2.685      4.246
REMARK INTER + INTRA:         -16.040
REMARK INTER:                 -11.861
REMARK INTRA:                  -4.179
REMARK UNBOUND:                -3.195
REMARK SMILES CC[C@@H](C)[C@@H](NC(=O)[C@@H](O)Cc1ccc(O)c(Cl)c1)C(=O)N1[C@H](C(=O)NCCCCN=C(N)N)C[C@H]2CC[C@H](OS(=O)(=O)O)C[C@@H]21
REMARK SMILES IDX 22 1 36 2 46 3 35 4 23 5 45 6 37 7 39 8 38 9 20 10 21 11
REMARK SMILES IDX 5 12 6 13 7 14 8 15 9 17 11 18 12 19 17 20 19 21 15 22 14 23
REMARK SMILES IDX 13 24 18 25 16 26 10 28 3 30 4 31 2 32 1 33 24 34 25 35
REMARK SMILES IDX 26 36 27 38 28 39 29 40 30 41 31 42 32 43 33 44 34 45 40 50
REMARK SMILES IDX 41 51 42 52 43 53 44 54
REMARK H PARENT 6 16 16 27 10 29 26 37 33 46 33 47 34 48 34 49 44 55
ROOT
ATOM      1  N   UNL     1     -10.860  -4.927   3.697  1.00  0.00    -0.326 N 
ATOM      2  C   UNL     1     -10.147  -6.702   2.324  1.00  0.00     0.014 C 
ATOM      3  C   UNL     1     -11.377  -5.871   2.701  1.00  0.00     0.091 C 
ATOM      4  C   UNL     1      -9.381  -6.781   3.636  1.00  0.00     0.041 C 
ATOM      5  C   UNL     1      -9.487  -5.317   4.102  1.00  0.00     0.175 C 
ATOM      6  C   UNL     1     -11.991  -5.309   1.421  1.00  0.00     0.059 C 
ATOM      7  C   UNL     1     -10.553  -7.983   1.622  1.00  0.00     0.008 C 
ATOM      8  C   UNL     1     -11.812  -6.225   0.191  1.00  0.00     0.143 C 
ATOM      9  C   UNL     1     -11.667  -7.708   0.591  1.00  0.00     0.034 C 
ENDROOT
BRANCH   1  10
ATOM     10  C   UNL     1     -11.518  -3.939   4.409  1.00  0.00     0.246 C 
ATOM     11  O   UNL     1     -11.933  -2.941   3.810  1.00  0.00    -0.272 OA
BRANCH  10  12
ATOM     12  C   UNL     1     -11.760  -4.125   5.935  1.00  0.00     0.174 C 
BRANCH  12  13
ATOM     13  N   UNL     1     -10.497  -3.987   6.660  1.00  0.00    -0.342 N 
ATOM     14  C   UNL     1      -9.972  -2.798   7.114  1.00  0.00     0.249 C 
ATOM     15  O   UNL     1     -10.527  -1.714   6.983  1.00  0.00    -0.272 OA
ATOM     16  H   UNL     1      -9.854  -4.774   6.706  1.00  0.00     0.164 HD
BRANCH  14  17
ATOM     17  C   UNL     1      -8.616  -2.980   7.828  1.00  0.00     0.207 C 
BRANCH  17  18
ATOM     18  C   UNL     1      -7.807  -1.679   7.781  1.00  0.00     0.077 C 
BRANCH  18  19
ATOM     19  C   UNL     1      -7.734  -1.013   9.136  1.00  0.00    -0.043 A 
ATOM     20  C   UNL     1      -6.588  -0.654  11.244  1.00  0.00     0.083 A 
ATOM     21  C   UNL     1      -6.629  -1.230   9.973  1.00  0.00     0.028 A 
ATOM     22  C   UNL     1      -7.647   0.139  11.685  1.00  0.00     0.134 A 
ATOM     23  C   UNL     1      -8.748   0.363  10.866  1.00  0.00     0.048 A 
ATOM     24  C   UNL     1      -8.793  -0.214   9.595  1.00  0.00     0.008 A 
ATOM     25  Cl  UNL     1      -5.221  -0.933  12.258  1.00  0.00    -0.080 Cl
BRANCH  22  26
ATOM     26  O   UNL     1      -7.657   0.717  12.926  1.00  0.00    -0.506 OA
ATOM     27  H   UNL     1      -7.466   0.007  13.567  1.00  0.00     0.293 HD
ENDBRANCH  22  26
ENDBRANCH  18  19
ENDBRANCH  17  18
BRANCH  17  28
ATOM     28  O   UNL     1      -7.852  -4.037   7.226  1.00  0.00    -0.383 OA
ATOM     29  H   UNL     1      -8.173  -4.872   7.638  1.00  0.00     0.211 HD
ENDBRANCH  17  28
ENDBRANCH  14  17
ENDBRANCH  12  13
BRANCH  12  30
ATOM     30  C   UNL     1     -12.493  -5.452   6.269  1.00  0.00     0.018 C 
ATOM     31  C   UNL     1     -13.836  -5.536   5.528  1.00  0.00     0.010 C 
BRANCH  30  32
ATOM     32  C   UNL     1     -12.707  -5.680   7.785  1.00  0.00     0.002 C 
ATOM     33  C   UNL     1     -11.837  -6.763   8.410  1.00  0.00     0.004 C 
ENDBRANCH  30  32
ENDBRANCH  12  30
ENDBRANCH  10  12
ENDBRANCH   1  10
BRANCH   5  34
ATOM     34  C   UNL     1      -8.431  -4.417   3.405  1.00  0.00     0.242 C 
ATOM     35  O   UNL     1      -8.186  -4.501   2.201  1.00  0.00    -0.273 OA
ATOM     36  N   UNL     1      -7.752  -3.558   4.239  1.00  0.00    -0.354 N 
ATOM     37  H   UNL     1      -7.914  -3.619   5.245  1.00  0.00     0.163 HD
BRANCH  36  38
ATOM     38  C   UNL     1      -6.895  -2.505   3.733  1.00  0.00     0.116 C 
BRANCH  38  39
ATOM     39  C   UNL     1      -7.419  -1.146   4.191  1.00  0.00     0.023 C 
BRANCH  39  40
ATOM     40  C   UNL     1      -8.817  -0.851   3.659  1.00  0.00     0.026 C 
BRANCH  40  41
ATOM     41  C   UNL     1      -8.820  -0.821   2.130  1.00  0.00     0.146 C 
BRANCH  41  42
ATOM     42  N   UNL     1     -10.188  -0.928   1.639  1.00  0.00    -0.254 NA
ATOM     43  C   UNL     1     -10.482  -1.828   0.777  1.00  0.00     0.185 C 
ATOM     44  N   UNL     1      -9.703  -2.762   0.201  1.00  0.00    -0.370 N 
ATOM     45  N   UNL     1     -11.747  -1.908   0.333  1.00  0.00    -0.370 N 
ATOM     46  H   UNL     1     -10.005  -3.239  -0.631  1.00  0.00     0.159 HD
ATOM     47  H   UNL     1      -8.719  -2.853   0.434  1.00  0.00     0.159 HD
ATOM     48  H   UNL     1     -12.402  -1.244   0.724  1.00  0.00     0.159 HD
ATOM     49  H   UNL     1     -12.105  -2.714  -0.147  1.00  0.00     0.159 HD
ENDBRANCH  41  42
ENDBRANCH  40  41
ENDBRANCH  39  40
ENDBRANCH  38  39
ENDBRANCH  36  38
ENDBRANCH   5  34
BRANCH   8  50
ATOM     50  O   UNL     1     -10.651  -5.838  -0.544  1.00  0.00    -0.245 OA
BRANCH  50  51
ATOM     51  S   UNL     1     -10.821  -5.035  -1.948  1.00  0.00     0.397 S 
ATOM     52  O   UNL     1      -9.502  -4.683  -2.424  1.00  0.00    -0.169 OA
ATOM     53  O   UNL     1     -11.871  -4.046  -1.819  1.00  0.00    -0.169 OA
BRANCH  51  54
ATOM     54  O   UNL     1     -11.348  -6.191  -2.934  1.00  0.00    -0.264 OA
ATOM     55  H   UNL     1     -11.164  -5.906  -3.853  1.00  0.00     0.236 HD
ENDBRANCH  51  54
ENDBRANCH  50  51
ENDBRANCH   8  50
TORSDOF 19
ENDMDL
MODEL 26
REMARK VINA RESULT:    -6.316      2.773      4.501
REMARK INTER + INTRA:         -15.972
REMARK INTER:                 -12.837
REMARK INTRA:                  -3.135
REMARK UNBOUND:                -3.195
REMARK SMILES CC[C@@H](C)[C@@H](NC(=O)[C@@H](O)Cc1ccc(O)c(Cl)c1)C(=O)N1[C@H](C(=O)NCCCCN=C(N)N)C[C@H]2CC[C@H](OS(=O)(=O)O)C[C@@H]21
REMARK SMILES IDX 22 1 36 2 46 3 35 4 23 5 45 6 37 7 39 8 38 9 20 10 21 11
REMARK SMILES IDX 5 12 6 13 7 14 8 15 9 17 11 18 12 19 17 20 19 21 15 22 14 23
REMARK SMILES IDX 13 24 18 25 16 26 10 28 3 30 4 31 2 32 1 33 24 34 25 35
REMARK SMILES IDX 26 36 27 38 28 39 29 40 30 41 31 42 32 43 33 44 34 45 40 50
REMARK SMILES IDX 41 51 42 52 43 53 44 54
REMARK H PARENT 6 16 16 27 10 29 26 37 33 46 33 47 34 48 34 49 44 55
ROOT
ATOM      1  N   UNL     1      -9.720  -6.184   3.085  1.00  0.00    -0.326 N 
ATOM      2  C   UNL     1      -9.415  -7.268   1.018  1.00  0.00     0.014 C 
ATOM      3  C   UNL     1     -10.441  -7.029   2.129  1.00  0.00     0.091 C 
ATOM      4  C   UNL     1      -8.102  -7.329   1.782  1.00  0.00     0.041 C 
ATOM      5  C   UNL     1      -8.281  -6.128   2.728  1.00  0.00     0.175 C 
ATOM      6  C   UNL     1     -11.719  -6.479   1.497  1.00  0.00     0.059 C 
ATOM      7  C   UNL     1      -9.823  -8.439   0.146  1.00  0.00     0.008 C 
ATOM      8  C   UNL     1     -11.979  -7.002   0.067  1.00  0.00     0.143 C 
ATOM      9  C   UNL     1     -11.332  -8.381  -0.172  1.00  0.00     0.034 C 
ENDROOT
BRANCH   1  10
ATOM     10  C   UNL     1     -10.135  -5.664   4.300  1.00  0.00     0.246 C 
ATOM     11  O   UNL     1      -9.920  -6.306   5.333  1.00  0.00    -0.272 OA
BRANCH  10  12
ATOM     12  C   UNL     1     -10.822  -4.269   4.342  1.00  0.00     0.174 C 
BRANCH  12  13
ATOM     13  N   UNL     1     -10.636  -3.661   5.659  1.00  0.00    -0.342 N 
ATOM     14  C   UNL     1      -9.897  -2.526   5.909  1.00  0.00     0.249 C 
ATOM     15  O   UNL     1      -9.330  -1.877   5.039  1.00  0.00    -0.272 OA
ATOM     16  H   UNL     1     -10.915  -4.172   6.493  1.00  0.00     0.164 HD
BRANCH  14  17
ATOM     17  C   UNL     1      -9.877  -2.146   7.404  1.00  0.00     0.207 C 
BRANCH  17  18
ATOM     18  C   UNL     1     -11.277  -1.736   7.872  1.00  0.00     0.077 C 
BRANCH  18  19
ATOM     19  C   UNL     1     -11.782  -2.630   8.983  1.00  0.00    -0.043 A 
ATOM     20  C   UNL     1     -12.672  -4.760   9.727  1.00  0.00     0.083 A 
ATOM     21  C   UNL     1     -12.160  -3.954   8.710  1.00  0.00     0.028 A 
ATOM     22  C   UNL     1     -12.811  -4.250  11.019  1.00  0.00     0.134 A 
ATOM     23  C   UNL     1     -12.441  -2.941  11.303  1.00  0.00     0.048 A 
ATOM     24  C   UNL     1     -11.930  -2.131  10.286  1.00  0.00     0.008 A 
ATOM     25  Cl  UNL     1     -13.131  -6.384   9.373  1.00  0.00    -0.080 Cl
BRANCH  22  26
ATOM     26  O   UNL     1     -13.318  -4.999  12.046  1.00  0.00    -0.506 OA
ATOM     27  H   UNL     1     -13.971  -5.608  11.654  1.00  0.00     0.293 HD
ENDBRANCH  22  26
ENDBRANCH  18  19
ENDBRANCH  17  18
BRANCH  17  28
ATOM     28  O   UNL     1      -8.958  -1.069   7.652  1.00  0.00    -0.383 OA
ATOM     29  H   UNL     1      -8.228  -1.180   7.001  1.00  0.00     0.211 HD
ENDBRANCH  17  28
ENDBRANCH  14  17
ENDBRANCH  12  13
BRANCH  12  30
ATOM     30  C   UNL     1     -12.315  -4.322   3.920  1.00  0.00     0.018 C 
ATOM     31  C   UNL     1     -12.631  -3.226   2.890  1.00  0.00     0.010 C 
BRANCH  30  32
ATOM     32  C   UNL     1     -13.301  -4.234   5.111  1.00  0.00     0.002 C 
ATOM     33  C   UNL     1     -13.662  -5.565   5.757  1.00  0.00     0.004 C 
ENDBRANCH  30  32
ENDBRANCH  12  30
ENDBRANCH  10  12
ENDBRANCH   1  10
BRANCH   5  34
ATOM     34  C   UNL     1      -7.941  -4.788   2.022  1.00  0.00     0.242 C 
ATOM     35  O   UNL     1      -6.823  -4.278   2.082  1.00  0.00    -0.273 OA
ATOM     36  N   UNL     1      -8.994  -4.186   1.371  1.00  0.00    -0.354 N 
ATOM     37  H   UNL     1      -9.925  -4.596   1.458  1.00  0.00     0.163 HD
BRANCH  36  38
ATOM     38  C   UNL     1      -8.811  -3.054   0.486  1.00  0.00     0.116 C 
BRANCH  38  39
ATOM     39  C   UNL     1      -9.025  -1.754   1.257  1.00  0.00     0.023 C 
BRANCH  39  40
ATOM     40  C   UNL     1     -10.498  -1.370   1.353  1.00  0.00     0.026 C 
BRANCH  40  41
ATOM     41  C   UNL     1     -11.211  -1.618   0.024  1.00  0.00     0.146 C 
BRANCH  41  42
ATOM     42  N   UNL     1     -12.354  -0.722  -0.097  1.00  0.00    -0.254 NA
ATOM     43  C   UNL     1     -13.051  -0.726  -1.170  1.00  0.00     0.185 C 
ATOM     44  N   UNL     1     -12.913  -1.461  -2.289  1.00  0.00    -0.370 N 
ATOM     45  N   UNL     1     -14.097   0.111  -1.264  1.00  0.00    -0.370 N 
ATOM     46  H   UNL     1     -13.375  -1.191  -3.140  1.00  0.00     0.159 HD
ATOM     47  H   UNL     1     -12.178  -2.156  -2.383  1.00  0.00     0.159 HD
ATOM     48  H   UNL     1     -14.277   0.695  -0.459  1.00  0.00     0.159 HD
ATOM     49  H   UNL     1     -14.819   0.004  -1.954  1.00  0.00     0.159 HD
ENDBRANCH  41  42
ENDBRANCH  40  41
ENDBRANCH  39  40
ENDBRANCH  38  39
ENDBRANCH  36  38
ENDBRANCH   5  34
BRANCH   8  50
ATOM     50  O   UNL     1     -11.458  -6.083  -0.893  1.00  0.00    -0.245 OA
BRANCH  50  51
ATOM     51  S   UNL     1     -12.481  -5.192  -1.791  1.00  0.00     0.397 S 
ATOM     52  O   UNL     1     -13.331  -4.446  -0.890  1.00  0.00    -0.169 OA
ATOM     53  O   UNL     1     -13.030  -6.007  -2.854  1.00  0.00    -0.169 OA
BRANCH  51  54
ATOM     54  O   UNL     1     -11.491  -4.112  -2.454  1.00  0.00    -0.264 OA
ATOM     55  H   UNL     1     -11.860  -3.222  -2.279  1.00  0.00     0.236 HD
ENDBRANCH  51  54
ENDBRANCH  50  51
ENDBRANCH   8  50
TORSDOF 19
ENDMDL
MODEL 27
REMARK VINA RESULT:    -6.300     19.970     24.652
REMARK INTER + INTRA:         -15.940
REMARK INTER:                 -12.369
REMARK INTRA:                  -3.571
REMARK UNBOUND:                -3.195
REMARK SMILES CC[C@@H](C)[C@@H](NC(=O)[C@@H](O)Cc1ccc(O)c(Cl)c1)C(=O)N1[C@H](C(=O)NCCCCN=C(N)N)C[C@H]2CC[C@H](OS(=O)(=O)O)C[C@@H]21
REMARK SMILES IDX 22 1 36 2 46 3 35 4 23 5 45 6 37 7 39 8 38 9 20 10 21 11
REMARK SMILES IDX 5 12 6 13 7 14 8 15 9 17 11 18 12 19 17 20 19 21 15 22 14 23
REMARK SMILES IDX 13 24 18 25 16 26 10 28 3 30 4 31 2 32 1 33 24 34 25 35
REMARK SMILES IDX 26 36 27 38 28 39 29 40 30 41 31 42 32 43 33 44 34 45 40 50
REMARK SMILES IDX 41 51 42 52 43 53 44 54
REMARK H PARENT 6 16 16 27 10 29 26 37 33 46 33 47 34 48 34 49 44 55
ROOT
ATOM      1  N   UNL     1      11.759   6.817   8.146  1.00  0.00    -0.326 N 
ATOM      2  C   UNL     1      11.696   6.258  10.432  1.00  0.00     0.014 C 
ATOM      3  C   UNL     1      12.645   6.677   9.306  1.00  0.00     0.091 C 
ATOM      4  C   UNL     1      10.673   5.398   9.706  1.00  0.00     0.041 C 
ATOM      5  C   UNL     1      10.417   6.269   8.463  1.00  0.00     0.175 C 
ATOM      6  C   UNL     1      13.433   7.901   9.768  1.00  0.00     0.059 C 
ATOM      7  C   UNL     1      12.465   5.673  11.600  1.00  0.00     0.008 C 
ATOM      8  C   UNL     1      13.701   7.930  11.288  1.00  0.00     0.143 C 
ATOM      9  C   UNL     1      13.724   6.515  11.899  1.00  0.00     0.034 C 
ENDROOT
BRANCH   1  10
ATOM     10  C   UNL     1      12.057   7.157   6.838  1.00  0.00     0.246 C 
ATOM     11  O   UNL     1      12.370   8.324   6.577  1.00  0.00    -0.272 OA
BRANCH  10  12
ATOM     12  C   UNL     1      12.034   6.060   5.735  1.00  0.00     0.174 C 
BRANCH  12  13
ATOM     13  N   UNL     1      10.715   6.016   5.103  1.00  0.00    -0.342 N 
ATOM     14  C   UNL     1      10.489   6.023   3.745  1.00  0.00     0.249 C 
ATOM     15  O   UNL     1      11.381   6.039   2.905  1.00  0.00    -0.272 OA
ATOM     16  H   UNL     1       9.882   6.157   5.668  1.00  0.00     0.164 HD
BRANCH  14  17
ATOM     17  C   UNL     1       8.987   5.986   3.391  1.00  0.00     0.207 C 
BRANCH  17  18
ATOM     18  C   UNL     1       8.228   5.087   4.372  1.00  0.00     0.077 C 
BRANCH  18  19
ATOM     19  C   UNL     1       7.012   5.781   4.944  1.00  0.00    -0.043 A 
ATOM     20  C   UNL     1       5.473   7.656   4.958  1.00  0.00     0.083 A 
ATOM     21  C   UNL     1       6.565   6.994   4.396  1.00  0.00     0.028 A 
ATOM     22  C   UNL     1       4.824   7.116   6.069  1.00  0.00     0.134 A 
ATOM     23  C   UNL     1       5.257   5.916   6.622  1.00  0.00     0.048 A 
ATOM     24  C   UNL     1       6.350   5.251   6.062  1.00  0.00     0.008 A 
ATOM     25  Cl  UNL     1       4.939   9.145   4.271  1.00  0.00    -0.080 Cl
BRANCH  22  26
ATOM     26  O   UNL     1       3.757   7.734   6.661  1.00  0.00    -0.506 OA
ATOM     27  H   UNL     1       3.143   7.981   5.944  1.00  0.00     0.293 HD
ENDBRANCH  22  26
ENDBRANCH  18  19
ENDBRANCH  17  18
BRANCH  17  28
ATOM     28  O   UNL     1       8.783   5.510   2.051  1.00  0.00    -0.383 OA
ATOM     29  H   UNL     1       9.435   4.784   1.918  1.00  0.00     0.211 HD
ENDBRANCH  17  28
ENDBRANCH  14  17
ENDBRANCH  12  13
BRANCH  12  30
ATOM     30  C   UNL     1      12.485   4.671   6.261  1.00  0.00     0.018 C 
ATOM     31  C   UNL     1      13.745   4.190   5.524  1.00  0.00     0.010 C 
BRANCH  30  32
ATOM     32  C   UNL     1      11.380   3.589   6.187  1.00  0.00     0.002 C 
ATOM     33  C   UNL     1      11.409   2.552   7.302  1.00  0.00     0.004 C 
ENDBRANCH  30  32
ENDBRANCH  12  30
ENDBRANCH  10  12
ENDBRANCH   1  10
BRANCH   5  34
ATOM     34  C   UNL     1       9.413   7.414   8.764  1.00  0.00     0.242 C 
ATOM     35  O   UNL     1       9.767   8.587   8.878  1.00  0.00    -0.273 OA
ATOM     36  N   UNL     1       8.108   7.015   8.946  1.00  0.00    -0.354 N 
ATOM     37  H   UNL     1       7.896   6.016   8.958  1.00  0.00     0.163 HD
BRANCH  36  38
ATOM     38  C   UNL     1       7.013   7.960   9.019  1.00  0.00     0.116 C 
BRANCH  38  39
ATOM     39  C   UNL     1       6.287   7.810  10.354  1.00  0.00     0.023 C 
BRANCH  39  40
ATOM     40  C   UNL     1       5.658   6.431  10.523  1.00  0.00     0.026 C 
BRANCH  40  41
ATOM     41  C   UNL     1       4.137   6.538  10.627  1.00  0.00     0.146 C 
BRANCH  41  42
ATOM     42  N   UNL     1       3.652   7.568   9.716  1.00  0.00    -0.254 NA
ATOM     43  C   UNL     1       2.770   8.404  10.117  1.00  0.00     0.185 C 
ATOM     44  N   UNL     1       2.164   8.516  11.313  1.00  0.00    -0.370 N 
ATOM     45  N   UNL     1       2.334   9.342   9.261  1.00  0.00    -0.370 N 
ATOM     46  H   UNL     1       1.322   9.056  11.413  1.00  0.00     0.159 HD
ATOM     47  H   UNL     1       2.387   7.893  12.083  1.00  0.00     0.159 HD
ATOM     48  H   UNL     1       2.747   9.334   8.338  1.00  0.00     0.159 HD
ATOM     49  H   UNL     1       1.835  10.162   9.559  1.00  0.00     0.159 HD
ENDBRANCH  41  42
ENDBRANCH  40  41
ENDBRANCH  39  40
ENDBRANCH  38  39
ENDBRANCH  36  38
ENDBRANCH   5  34
BRANCH   8  50
ATOM     50  O   UNL     1      12.692   8.694  11.949  1.00  0.00    -0.245 OA
BRANCH  50  51
ATOM     51  S   UNL     1      12.856  10.308  12.068  1.00  0.00     0.397 S 
ATOM     52  O   UNL     1      11.926  10.920  11.146  1.00  0.00    -0.169 OA
ATOM     53  O   UNL     1      14.262  10.655  12.072  1.00  0.00    -0.169 OA
BRANCH  51  54
ATOM     54  O   UNL     1      12.270  10.597  13.538  1.00  0.00    -0.264 OA
ATOM     55  H   UNL     1      11.311  10.402  13.520  1.00  0.00     0.236 HD
ENDBRANCH  51  54
ENDBRANCH  50  51
ENDBRANCH   8  50
TORSDOF 19
ENDMDL
MODEL 28
REMARK VINA RESULT:    -6.291      3.457      7.942
REMARK INTER + INTRA:         -15.922
REMARK INTER:                 -12.069
REMARK INTRA:                  -3.852
REMARK UNBOUND:                -3.195
REMARK SMILES CC[C@@H](C)[C@@H](NC(=O)[C@@H](O)Cc1ccc(O)c(Cl)c1)C(=O)N1[C@H](C(=O)NCCCCN=C(N)N)C[C@H]2CC[C@H](OS(=O)(=O)O)C[C@@H]21
REMARK SMILES IDX 22 1 36 2 46 3 35 4 23 5 45 6 37 7 39 8 38 9 20 10 21 11
REMARK SMILES IDX 5 12 6 13 7 14 8 15 9 17 11 18 12 19 17 20 19 21 15 22 14 23
REMARK SMILES IDX 13 24 18 25 16 26 10 28 3 30 4 31 2 32 1 33 24 34 25 35
REMARK SMILES IDX 26 36 27 38 28 39 29 40 30 41 31 42 32 43 33 44 34 45 40 50
REMARK SMILES IDX 41 51 42 52 43 53 44 54
REMARK H PARENT 6 16 16 27 10 29 26 37 33 46 33 47 34 48 34 49 44 55
ROOT
ATOM      1  N   UNL     1     -10.554  -4.069   3.807  1.00  0.00    -0.326 N 
ATOM      2  C   UNL     1     -10.496  -6.368   3.306  1.00  0.00     0.014 C 
ATOM      3  C   UNL     1      -9.614  -5.121   3.412  1.00  0.00     0.091 C 
ATOM      4  C   UNL     1     -11.811  -5.805   2.791  1.00  0.00     0.041 C 
ATOM      5  C   UNL     1     -11.948  -4.564   3.692  1.00  0.00     0.175 C 
ATOM      6  C   UNL     1      -8.444  -5.434   4.344  1.00  0.00     0.059 C 
ATOM      7  C   UNL     1      -9.797  -7.461   2.522  1.00  0.00     0.008 C 
ATOM      8  C   UNL     1      -7.992  -6.910   4.298  1.00  0.00     0.143 C 
ATOM      9  C   UNL     1      -8.318  -7.574   2.945  1.00  0.00     0.034 C 
ENDROOT
BRANCH   1  10
ATOM     10  C   UNL     1     -10.334  -2.721   4.035  1.00  0.00     0.246 C 
ATOM     11  O   UNL     1     -10.184  -2.324   5.196  1.00  0.00    -0.272 OA
BRANCH  10  12
ATOM     12  C   UNL     1     -10.237  -1.744   2.827  1.00  0.00     0.174 C 
BRANCH  12  13
ATOM     13  N   UNL     1     -10.381  -2.485   1.574  1.00  0.00    -0.342 N 
ATOM     14  C   UNL     1     -11.462  -2.401   0.726  1.00  0.00     0.249 C 
ATOM     15  O   UNL     1     -12.422  -1.665   0.916  1.00  0.00    -0.272 OA
ATOM     16  H   UNL     1      -9.741  -3.247   1.364  1.00  0.00     0.164 HD
BRANCH  14  17
ATOM     17  C   UNL     1     -11.324  -3.320  -0.507  1.00  0.00     0.207 C 
BRANCH  17  18
ATOM     18  C   UNL     1     -10.224  -4.361  -0.279  1.00  0.00     0.077 C 
BRANCH  18  19
ATOM     19  C   UNL     1     -10.479  -5.629  -1.061  1.00  0.00    -0.043 A 
ATOM     20  C   UNL     1      -9.644  -7.535  -2.308  1.00  0.00     0.083 A 
ATOM     21  C   UNL     1      -9.405  -6.392  -1.544  1.00  0.00     0.028 A 
ATOM     22  C   UNL     1     -10.954  -7.922  -2.594  1.00  0.00     0.134 A 
ATOM     23  C   UNL     1     -12.028  -7.176  -2.122  1.00  0.00     0.048 A 
ATOM     24  C   UNL     1     -11.791  -6.030  -1.359  1.00  0.00     0.008 A 
ATOM     25  Cl  UNL     1      -8.311  -8.459  -2.893  1.00  0.00    -0.080 Cl
BRANCH  22  26
ATOM     26  O   UNL     1     -11.238  -9.029  -3.348  1.00  0.00    -0.506 OA
ATOM     27  H   UNL     1     -10.711  -9.761  -2.979  1.00  0.00     0.293 HD
ENDBRANCH  22  26
ENDBRANCH  18  19
ENDBRANCH  17  18
BRANCH  17  28
ATOM     28  O   UNL     1     -11.024  -2.559  -1.688  1.00  0.00    -0.383 OA
ATOM     29  H   UNL     1     -10.547  -1.755  -1.380  1.00  0.00     0.211 HD
ENDBRANCH  17  28
ENDBRANCH  14  17
ENDBRANCH  12  13
BRANCH  12  30
ATOM     30  C   UNL     1      -8.950  -0.877   2.859  1.00  0.00     0.018 C 
ATOM     31  C   UNL     1      -8.959   0.155   1.720  1.00  0.00     0.010 C 
BRANCH  30  32
ATOM     32  C   UNL     1      -7.642  -1.705   2.817  1.00  0.00     0.002 C 
ATOM     33  C   UNL     1      -6.462  -1.095   3.563  1.00  0.00     0.004 C 
ENDBRANCH  30  32
ENDBRANCH  12  30
ENDBRANCH  10  12
ENDBRANCH   1  10
BRANCH   5  34
ATOM     34  C   UNL     1     -12.518  -4.932   5.088  1.00  0.00     0.242 C 
ATOM     35  O   UNL     1     -13.532  -5.617   5.226  1.00  0.00    -0.273 OA
ATOM     36  N   UNL     1     -11.840  -4.392   6.158  1.00  0.00    -0.354 N 
ATOM     37  H   UNL     1     -11.080  -3.735   5.978  1.00  0.00     0.163 HD
BRANCH  36  38
ATOM     38  C   UNL     1     -12.099  -4.800   7.524  1.00  0.00     0.116 C 
BRANCH  38  39
ATOM     39  C   UNL     1     -10.800  -4.781   8.326  1.00  0.00     0.023 C 
BRANCH  39  40
ATOM     40  C   UNL     1     -10.874  -3.852   9.532  1.00  0.00     0.026 C 
BRANCH  40  41
ATOM     41  C   UNL     1     -12.112  -2.959   9.454  1.00  0.00     0.146 C 
BRANCH  41  42
ATOM     42  N   UNL     1     -11.766  -1.601   9.851  1.00  0.00    -0.254 NA
ATOM     43  C   UNL     1     -11.519  -0.722   8.953  1.00  0.00     0.185 C 
ATOM     44  N   UNL     1     -11.523  -0.831   7.612  1.00  0.00    -0.370 N 
ATOM     45  N   UNL     1     -11.198   0.523   9.339  1.00  0.00    -0.370 N 
ATOM     46  H   UNL     1     -11.076  -0.135   7.039  1.00  0.00     0.159 HD
ATOM     47  H   UNL     1     -11.759  -1.703   7.148  1.00  0.00     0.159 HD
ATOM     48  H   UNL     1     -11.180   0.693  10.336  1.00  0.00     0.159 HD
ATOM     49  H   UNL     1     -11.225   1.310   8.716  1.00  0.00     0.159 HD
ENDBRANCH  41  42
ENDBRANCH  40  41
ENDBRANCH  39  40
ENDBRANCH  38  39
ENDBRANCH  36  38
ENDBRANCH   5  34
BRANCH   8  50
ATOM     50  O   UNL     1      -8.635  -7.652   5.334  1.00  0.00    -0.245 OA
BRANCH  50  51
ATOM     51  S   UNL     1      -7.793  -8.075   6.661  1.00  0.00     0.397 S 
ATOM     52  O   UNL     1      -6.432  -8.346   6.258  1.00  0.00    -0.169 OA
ATOM     53  O   UNL     1      -8.559  -9.025   7.440  1.00  0.00    -0.169 OA
BRANCH  51  54
ATOM     54  O   UNL     1      -7.740  -6.691   7.479  1.00  0.00    -0.264 OA
ATOM     55  H   UNL     1      -8.473  -6.127   7.159  1.00  0.00     0.236 HD
ENDBRANCH  51  54
ENDBRANCH  50  51
ENDBRANCH   8  50
TORSDOF 19
ENDMDL
MODEL 29
REMARK VINA RESULT:    -6.284     18.806     22.787
REMARK INTER + INTRA:         -15.909
REMARK INTER:                 -11.503
REMARK INTRA:                  -4.406
REMARK UNBOUND:                -3.195
REMARK SMILES CC[C@@H](C)[C@@H](NC(=O)[C@@H](O)Cc1ccc(O)c(Cl)c1)C(=O)N1[C@H](C(=O)NCCCCN=C(N)N)C[C@H]2CC[C@H](OS(=O)(=O)O)C[C@@H]21
REMARK SMILES IDX 22 1 36 2 46 3 35 4 23 5 45 6 37 7 39 8 38 9 20 10 21 11
REMARK SMILES IDX 5 12 6 13 7 14 8 15 9 17 11 18 12 19 17 20 19 21 15 22 14 23
REMARK SMILES IDX 13 24 18 25 16 26 10 28 3 30 4 31 2 32 1 33 24 34 25 35
REMARK SMILES IDX 26 36 27 38 28 39 29 40 30 41 31 42 32 43 33 44 34 45 40 50
REMARK SMILES IDX 41 51 42 52 43 53 44 54
REMARK H PARENT 6 16 16 27 10 29 26 37 33 46 33 47 34 48 34 49 44 55
ROOT
ATOM      1  N   UNL     1       8.395   6.224   9.910  1.00  0.00    -0.326 N 
ATOM      2  C   UNL     1       8.405   8.416  10.770  1.00  0.00     0.014 C 
ATOM      3  C   UNL     1       9.092   7.053  10.897  1.00  0.00     0.091 C 
ATOM      4  C   UNL     1       6.965   8.036  10.458  1.00  0.00     0.041 C 
ATOM      5  C   UNL     1       7.195   6.937   9.405  1.00  0.00     0.175 C 
ATOM      6  C   UNL     1      10.598   7.256  10.738  1.00  0.00     0.059 C 
ATOM      7  C   UNL     1       8.699   9.286  11.976  1.00  0.00     0.008 C 
ATOM      8  C   UNL     1      11.100   8.619  11.261  1.00  0.00     0.143 C 
ATOM      9  C   UNL     1      10.189   9.186  12.368  1.00  0.00     0.034 C 
ENDROOT
BRANCH   1  10
ATOM     10  C   UNL     1       8.572   4.889   9.588  1.00  0.00     0.246 C 
ATOM     11  O   UNL     1       9.242   4.595   8.592  1.00  0.00    -0.272 OA
BRANCH  10  12
ATOM     12  C   UNL     1       7.963   3.791  10.507  1.00  0.00     0.174 C 
BRANCH  12  13
ATOM     13  N   UNL     1       6.523   3.687  10.273  1.00  0.00    -0.342 N 
ATOM     14  C   UNL     1       5.866   2.541   9.885  1.00  0.00     0.249 C 
ATOM     15  O   UNL     1       6.420   1.461   9.717  1.00  0.00    -0.272 OA
ATOM     16  H   UNL     1       5.959   4.532  10.220  1.00  0.00     0.164 HD
BRANCH  14  17
ATOM     17  C   UNL     1       4.349   2.757   9.702  1.00  0.00     0.207 C 
BRANCH  17  18
ATOM     18  C   UNL     1       3.865   3.922  10.571  1.00  0.00     0.077 C 
BRANCH  18  19
ATOM     19  C   UNL     1       3.533   5.142   9.741  1.00  0.00    -0.043 A 
ATOM     20  C   UNL     1       2.934   7.488   9.598  1.00  0.00     0.083 A 
ATOM     21  C   UNL     1       3.289   6.376  10.363  1.00  0.00     0.028 A 
ATOM     22  C   UNL     1       2.820   7.374   8.212  1.00  0.00     0.134 A 
ATOM     23  C   UNL     1       3.060   6.158   7.583  1.00  0.00     0.048 A 
ATOM     24  C   UNL     1       3.413   5.043   8.346  1.00  0.00     0.008 A 
ATOM     25  Cl  UNL     1       2.637   8.996  10.379  1.00  0.00    -0.080 Cl
BRANCH  22  26
ATOM     26  O   UNL     1       2.465   8.433   7.421  1.00  0.00    -0.506 OA
ATOM     27  H   UNL     1       3.145   8.505   6.726  1.00  0.00     0.293 HD
ENDBRANCH  22  26
ENDBRANCH  18  19
ENDBRANCH  17  18
BRANCH  17  28
ATOM     28  O   UNL     1       3.613   1.571  10.043  1.00  0.00    -0.383 OA
ATOM     29  H   UNL     1       4.106   1.148  10.782  1.00  0.00     0.211 HD
ENDBRANCH  17  28
ENDBRANCH  14  17
ENDBRANCH  12  13
BRANCH  12  30
ATOM     30  C   UNL     1       8.305   4.006  12.006  1.00  0.00     0.018 C 
ATOM     31  C   UNL     1       8.820   2.704  12.640  1.00  0.00     0.010 C 
BRANCH  30  32
ATOM     32  C   UNL     1       7.129   4.574  12.837  1.00  0.00     0.002 C 
ATOM     33  C   UNL     1       6.561   3.632  13.890  1.00  0.00     0.004 C 
ENDBRANCH  30  32
ENDBRANCH  12  30
ENDBRANCH  10  12
ENDBRANCH   1  10
BRANCH   5  34
ATOM     34  C   UNL     1       7.464   7.538   7.999  1.00  0.00     0.242 C 
ATOM     35  O   UNL     1       8.587   7.891   7.638  1.00  0.00    -0.273 OA
ATOM     36  N   UNL     1       6.349   7.699   7.208  1.00  0.00    -0.354 N 
ATOM     37  H   UNL     1       5.431   7.500   7.607  1.00  0.00     0.163 HD
BRANCH  36  38
ATOM     38  C   UNL     1       6.440   8.040   5.803  1.00  0.00     0.116 C 
BRANCH  38  39
ATOM     39  C   UNL     1       5.866   6.906   4.956  1.00  0.00     0.023 C 
BRANCH  39  40
ATOM     40  C   UNL     1       6.801   5.704   4.881  1.00  0.00     0.026 C 
BRANCH  40  41
ATOM     41  C   UNL     1       8.088   6.064   4.137  1.00  0.00     0.146 C 
BRANCH  41  42
ATOM     42  N   UNL     1       9.100   5.045   4.383  1.00  0.00    -0.254 NA
ATOM     43  C   UNL     1      10.030   5.269   5.233  1.00  0.00     0.185 C 
ATOM     44  N   UNL     1      10.262   6.352   5.997  1.00  0.00    -0.370 N 
ATOM     45  N   UNL     1      10.957   4.319   5.442  1.00  0.00    -0.370 N 
ATOM     46  H   UNL     1      11.158   6.490   6.433  1.00  0.00     0.159 HD
ATOM     47  H   UNL     1       9.649   7.161   5.974  1.00  0.00     0.159 HD
ATOM     48  H   UNL     1      10.851   3.465   4.911  1.00  0.00     0.159 HD
ATOM     49  H   UNL     1      11.563   4.318   6.242  1.00  0.00     0.159 HD
ENDBRANCH  41  42
ENDBRANCH  40  41
ENDBRANCH  39  40
ENDBRANCH  38  39
ENDBRANCH  36  38
ENDBRANCH   5  34
BRANCH   8  50
ATOM     50  O   UNL     1      11.157   9.563  10.192  1.00  0.00    -0.245 OA
BRANCH  50  51
ATOM     51  S   UNL     1      12.322   9.430   9.064  1.00  0.00     0.397 S 
ATOM     52  O   UNL     1      13.462   8.785   9.674  1.00  0.00    -0.169 OA
ATOM     53  O   UNL     1      12.451  10.683   8.349  1.00  0.00    -0.169 OA
BRANCH  51  54
ATOM     54  O   UNL     1      11.692   8.347   8.057  1.00  0.00    -0.264 OA
ATOM     55  H   UNL     1      11.321   8.831   7.292  1.00  0.00     0.236 HD
ENDBRANCH  51  54
ENDBRANCH  50  51
ENDBRANCH   8  50
TORSDOF 19
ENDMDL
MODEL 30
REMARK VINA RESULT:    -6.282      3.078      8.275
REMARK INTER + INTRA:         -15.903
REMARK INTER:                 -12.205
REMARK INTRA:                  -3.698
REMARK UNBOUND:                -3.195
REMARK SMILES CC[C@@H](C)[C@@H](NC(=O)[C@@H](O)Cc1ccc(O)c(Cl)c1)C(=O)N1[C@H](C(=O)NCCCCN=C(N)N)C[C@H]2CC[C@H](OS(=O)(=O)O)C[C@@H]21
REMARK SMILES IDX 22 1 36 2 46 3 35 4 23 5 45 6 37 7 39 8 38 9 20 10 21 11
REMARK SMILES IDX 5 12 6 13 7 14 8 15 9 17 11 18 12 19 17 20 19 21 15 22 14 23
REMARK SMILES IDX 13 24 18 25 16 26 10 28 3 30 4 31 2 32 1 33 24 34 25 35
REMARK SMILES IDX 26 36 27 38 28 39 29 40 30 41 31 42 32 43 33 44 34 45 40 50
REMARK SMILES IDX 41 51 42 52 43 53 44 54
REMARK H PARENT 6 16 16 27 10 29 26 37 33 46 33 47 34 48 34 49 44 55
ROOT
ATOM      1  N   UNL     1     -11.196  -4.600   1.260  1.00  0.00    -0.326 N 
ATOM      2  C   UNL     1      -9.264  -5.319   2.397  1.00  0.00     0.014 C 
ATOM      3  C   UNL     1      -9.735  -4.507   1.187  1.00  0.00     0.091 C 
ATOM      4  C   UNL     1     -10.303  -6.427   2.481  1.00  0.00     0.041 C 
ATOM      5  C   UNL     1     -11.591  -5.609   2.274  1.00  0.00     0.175 C 
ATOM      6  C   UNL     1      -9.093  -3.122   1.256  1.00  0.00     0.059 C 
ATOM      7  C   UNL     1      -7.798  -5.684   2.268  1.00  0.00     0.008 C 
ATOM      8  C   UNL     1      -7.694  -3.118   1.909  1.00  0.00     0.143 C 
ATOM      9  C   UNL     1      -6.981  -4.477   1.760  1.00  0.00     0.034 C 
ENDROOT
BRANCH   1  10
ATOM     10  C   UNL     1     -12.162  -4.075   0.418  1.00  0.00     0.246 C 
ATOM     11  O   UNL     1     -12.710  -3.011   0.722  1.00  0.00    -0.272 OA
BRANCH  10  12
ATOM     12  C   UNL     1     -12.504  -4.812  -0.909  1.00  0.00     0.174 C 
BRANCH  12  13
ATOM     13  N   UNL     1     -11.927  -6.156  -0.897  1.00  0.00    -0.342 N 
ATOM     14  C   UNL     1     -12.090  -7.095  -1.890  1.00  0.00     0.249 C 
ATOM     15  O   UNL     1     -12.722  -6.896  -2.920  1.00  0.00    -0.272 OA
ATOM     16  H   UNL     1     -11.511  -6.517  -0.042  1.00  0.00     0.164 HD
BRANCH  14  17
ATOM     17  C   UNL     1     -11.370  -8.424  -1.577  1.00  0.00     0.207 C 
BRANCH  17  18
ATOM     18  C   UNL     1      -9.865  -8.192  -1.408  1.00  0.00     0.077 C 
BRANCH  18  19
ATOM     19  C   UNL     1      -9.249  -7.578  -2.645  1.00  0.00    -0.043 A 
ATOM     20  C   UNL     1      -8.167  -5.709  -3.749  1.00  0.00     0.083 A 
ATOM     21  C   UNL     1      -8.690  -6.292  -2.594  1.00  0.00     0.028 A 
ATOM     22  C   UNL     1      -8.201  -6.403  -4.958  1.00  0.00     0.134 A 
ATOM     23  C   UNL     1      -8.751  -7.678  -5.023  1.00  0.00     0.048 A 
ATOM     24  C   UNL     1      -9.277  -8.264  -3.869  1.00  0.00     0.008 A 
ATOM     25  Cl  UNL     1      -7.485  -4.127  -3.666  1.00  0.00    -0.080 Cl
BRANCH  22  26
ATOM     26  O   UNL     1      -7.710  -5.868  -6.119  1.00  0.00    -0.506 OA
ATOM     27  H   UNL     1      -7.630  -4.907  -5.973  1.00  0.00     0.293 HD
ENDBRANCH  22  26
ENDBRANCH  18  19
ENDBRANCH  17  18
BRANCH  17  28
ATOM     28  O   UNL     1     -11.590  -9.390  -2.618  1.00  0.00    -0.383 OA
ATOM     29  H   UNL     1     -12.523  -9.269  -2.908  1.00  0.00     0.211 HD
ENDBRANCH  17  28
ENDBRANCH  14  17
ENDBRANCH  12  13
BRANCH  12  30
ATOM     30  C   UNL     1     -12.093  -4.003  -2.168  1.00  0.00     0.018 C 
ATOM     31  C   UNL     1     -10.715  -3.351  -1.974  1.00  0.00     0.010 C 
BRANCH  30  32
ATOM     32  C   UNL     1     -13.132  -2.934  -2.586  1.00  0.00     0.002 C 
ATOM     33  C   UNL     1     -12.653  -1.491  -2.500  1.00  0.00     0.004 C 
ENDBRANCH  30  32
ENDBRANCH  12  30
ENDBRANCH  10  12
ENDBRANCH   1  10
BRANCH   5  34
ATOM     34  C   UNL     1     -12.049  -4.920   3.587  1.00  0.00     0.242 C 
ATOM     35  O   UNL     1     -11.868  -3.721   3.799  1.00  0.00    -0.273 OA
ATOM     36  N   UNL     1     -12.623  -5.757   4.518  1.00  0.00    -0.354 N 
ATOM     37  H   UNL     1     -12.637  -6.761   4.334  1.00  0.00     0.163 HD
BRANCH  36  38
ATOM     38  C   UNL     1     -13.297  -5.255   5.697  1.00  0.00     0.116 C 
BRANCH  38  39
ATOM     39  C   UNL     1     -12.572  -5.734   6.952  1.00  0.00     0.023 C 
BRANCH  39  40
ATOM     40  C   UNL     1     -12.300  -4.602   7.937  1.00  0.00     0.026 C 
BRANCH  40  41
ATOM     41  C   UNL     1     -12.042  -3.290   7.196  1.00  0.00     0.146 C 
BRANCH  41  42
ATOM     42  N   UNL     1     -10.795  -2.698   7.663  1.00  0.00    -0.254 NA
ATOM     43  C   UNL     1      -9.734  -2.820   6.957  1.00  0.00     0.185 C 
ATOM     44  N   UNL     1      -9.546  -3.438   5.776  1.00  0.00    -0.370 N 
ATOM     45  N   UNL     1      -8.593  -2.271   7.407  1.00  0.00    -0.370 N 
ATOM     46  H   UNL     1      -8.619  -3.665   5.459  1.00  0.00     0.159 HD
ATOM     47  H   UNL     1     -10.308  -3.895   5.287  1.00  0.00     0.159 HD
ATOM     48  H   UNL     1      -8.649  -1.778   8.287  1.00  0.00     0.159 HD
ATOM     49  H   UNL     1      -7.794  -2.117   6.817  1.00  0.00     0.159 HD
ENDBRANCH  41  42
ENDBRANCH  40  41
ENDBRANCH  39  40
ENDBRANCH  38  39
ENDBRANCH  36  38
ENDBRANCH   5  34
BRANCH   8  50
ATOM     50  O   UNL     1      -7.803  -2.814   3.300  1.00  0.00    -0.245 OA
BRANCH  50  51
ATOM     51  S   UNL     1      -7.724  -1.266   3.792  1.00  0.00     0.397 S 
ATOM     52  O   UNL     1      -7.232  -0.471   2.689  1.00  0.00    -0.169 OA
ATOM     53  O   UNL     1      -7.114  -1.203   5.104  1.00  0.00    -0.169 OA
BRANCH  51  54
ATOM     54  O   UNL     1      -9.278  -0.883   3.949  1.00  0.00    -0.264 OA
ATOM     55  H   UNL     1      -9.340  -0.147   4.591  1.00  0.00     0.236 HD
ENDBRANCH  51  54
ENDBRANCH  50  51
ENDBRANCH   8  50
TORSDOF 19
ENDMDL
MODEL 31
REMARK VINA RESULT:    -6.250      2.700      4.516
REMARK INTER + INTRA:         -15.839
REMARK INTER:                 -11.658
REMARK INTRA:                  -4.182
REMARK UNBOUND:                -3.195
REMARK SMILES CC[C@@H](C)[C@@H](NC(=O)[C@@H](O)Cc1ccc(O)c(Cl)c1)C(=O)N1[C@H](C(=O)NCCCCN=C(N)N)C[C@H]2CC[C@H](OS(=O)(=O)O)C[C@@H]21
REMARK SMILES IDX 22 1 36 2 46 3 35 4 23 5 45 6 37 7 39 8 38 9 20 10 21 11
REMARK SMILES IDX 5 12 6 13 7 14 8 15 9 17 11 18 12 19 17 20 19 21 15 22 14 23
REMARK SMILES IDX 13 24 18 25 16 26 10 28 3 30 4 31 2 32 1 33 24 34 25 35
REMARK SMILES IDX 26 36 27 38 28 39 29 40 30 41 31 42 32 43 33 44 34 45 40 50
REMARK SMILES IDX 41 51 42 52 43 53 44 54
REMARK H PARENT 6 16 16 27 10 29 26 37 33 46 33 47 34 48 34 49 44 55
ROOT
ATOM      1  N   UNL     1      -8.391  -4.341   1.147  1.00  0.00    -0.326 N 
ATOM      2  C   UNL     1      -8.487  -4.624  -1.188  1.00  0.00     0.014 C 
ATOM      3  C   UNL     1      -7.902  -5.231   0.090  1.00  0.00     0.091 C 
ATOM      4  C   UNL     1      -8.461  -3.132  -0.893  1.00  0.00     0.041 C 
ATOM      5  C   UNL     1      -9.004  -3.130   0.548  1.00  0.00     0.175 C 
ATOM      6  C   UNL     1      -8.292  -6.707   0.147  1.00  0.00     0.059 C 
ATOM      7  C   UNL     1      -7.771  -5.151  -2.416  1.00  0.00     0.008 C 
ATOM      8  C   UNL     1      -8.418  -7.370  -1.242  1.00  0.00     0.143 C 
ATOM      9  C   UNL     1      -7.538  -6.672  -2.299  1.00  0.00     0.034 C 
ENDROOT
BRANCH   1  10
ATOM     10  C   UNL     1      -8.169  -4.380   2.513  1.00  0.00     0.246 C 
ATOM     11  O   UNL     1      -7.279  -3.672   2.998  1.00  0.00    -0.272 OA
BRANCH  10  12
ATOM     12  C   UNL     1      -9.069  -5.278   3.411  1.00  0.00     0.174 C 
BRANCH  12  13
ATOM     13  N   UNL     1     -10.004  -4.447   4.169  1.00  0.00    -0.342 N 
ATOM     14  C   UNL     1     -11.356  -4.681   4.282  1.00  0.00     0.249 C 
ATOM     15  O   UNL     1     -11.926  -5.640   3.777  1.00  0.00    -0.272 OA
ATOM     16  H   UNL     1      -9.707  -3.536   4.510  1.00  0.00     0.164 HD
BRANCH  14  17
ATOM     17  C   UNL     1     -12.076  -3.615   5.134  1.00  0.00     0.207 C 
BRANCH  17  18
ATOM     18  C   UNL     1     -12.324  -4.140   6.552  1.00  0.00     0.077 C 
BRANCH  18  19
ATOM     19  C   UNL     1     -11.963  -3.114   7.603  1.00  0.00    -0.043 A 
ATOM     20  C   UNL     1     -10.870  -1.041   8.229  1.00  0.00     0.083 A 
ATOM     21  C   UNL     1     -11.245  -1.961   7.249  1.00  0.00     0.028 A 
ATOM     22  C   UNL     1     -11.208  -1.266   9.564  1.00  0.00     0.134 A 
ATOM     23  C   UNL     1     -11.920  -2.403   9.928  1.00  0.00     0.048 A 
ATOM     24  C   UNL     1     -12.294  -3.327   8.950  1.00  0.00     0.008 A 
ATOM     25  Cl  UNL     1      -9.988   0.369   7.775  1.00  0.00    -0.080 Cl
BRANCH  22  26
ATOM     26  O   UNL     1     -10.854  -0.398  10.561  1.00  0.00    -0.506 OA
ATOM     27  H   UNL     1     -11.101   0.495  10.255  1.00  0.00     0.293 HD
ENDBRANCH  22  26
ENDBRANCH  18  19
ENDBRANCH  17  18
BRANCH  17  28
ATOM     28  O   UNL     1     -13.329  -3.237   4.540  1.00  0.00    -0.383 OA
ATOM     29  H   UNL     1     -13.467  -2.292   4.777  1.00  0.00     0.211 HD
ENDBRANCH  17  28
ENDBRANCH  14  17
ENDBRANCH  12  13
BRANCH  12  30
ATOM     30  C   UNL     1      -8.247  -6.228   4.324  1.00  0.00     0.018 C 
ATOM     31  C   UNL     1      -7.072  -6.847   3.552  1.00  0.00     0.010 C 
BRANCH  30  32
ATOM     32  C   UNL     1      -9.095  -7.342   4.985  1.00  0.00     0.002 C 
ATOM     33  C   UNL     1      -9.449  -7.109   6.448  1.00  0.00     0.004 C 
ENDBRANCH  30  32
ENDBRANCH  12  30
ENDBRANCH  10  12
ENDBRANCH   1  10
BRANCH   5  34
ATOM     34  C   UNL     1     -10.553  -3.227   0.576  1.00  0.00     0.242 C 
ATOM     35  O   UNL     1     -11.142  -4.237   0.961  1.00  0.00    -0.273 OA
ATOM     36  N   UNL     1     -11.217  -2.124   0.089  1.00  0.00    -0.354 N 
ATOM     37  H   UNL     1     -10.674  -1.367  -0.327  1.00  0.00     0.163 HD
BRANCH  36  38
ATOM     38  C   UNL     1     -12.648  -1.955   0.238  1.00  0.00     0.116 C 
BRANCH  38  39
ATOM     39  C   UNL     1     -13.207  -1.190  -0.960  1.00  0.00     0.023 C 
BRANCH  39  40
ATOM     40  C   UNL     1     -12.877  -1.864  -2.287  1.00  0.00     0.026 C 
BRANCH  40  41
ATOM     41  C   UNL     1     -13.848  -3.012  -2.568  1.00  0.00     0.146 C 
BRANCH  41  42
ATOM     42  N   UNL     1     -13.141  -4.106  -3.220  1.00  0.00    -0.254 NA
ATOM     43  C   UNL     1     -12.760  -5.114  -2.530  1.00  0.00     0.185 C 
ATOM     44  N   UNL     1     -12.905  -5.368  -1.216  1.00  0.00    -0.370 N 
ATOM     45  N   UNL     1     -12.106  -6.111  -3.149  1.00  0.00    -0.370 N 
ATOM     46  H   UNL     1     -12.348  -6.075  -0.766  1.00  0.00     0.159 HD
ATOM     47  H   UNL     1     -13.389  -4.724  -0.599  1.00  0.00     0.159 HD
ATOM     48  H   UNL     1     -11.962  -6.003  -4.144  1.00  0.00     0.159 HD
ATOM     49  H   UNL     1     -11.988  -7.021  -2.740  1.00  0.00     0.159 HD
ENDBRANCH  41  42
ENDBRANCH  40  41
ENDBRANCH  39  40
ENDBRANCH  38  39
ENDBRANCH  36  38
ENDBRANCH   5  34
BRANCH   8  50
ATOM     50  O   UNL     1      -9.775  -7.330  -1.683  1.00  0.00    -0.245 OA
BRANCH  50  51
ATOM     51  S   UNL     1     -10.762  -8.583  -1.361  1.00  0.00     0.397 S 
ATOM     52  O   UNL     1     -10.039  -9.517  -0.528  1.00  0.00    -0.169 OA
ATOM     53  O   UNL     1     -11.425  -9.005  -2.577  1.00  0.00    -0.169 OA
BRANCH  51  54
ATOM     54  O   UNL     1     -11.863  -7.905  -0.405  1.00  0.00    -0.264 OA
ATOM     55  H   UNL     1     -11.394  -7.313   0.217  1.00  0.00     0.236 HD
ENDBRANCH  51  54
ENDBRANCH  50  51
ENDBRANCH   8  50
TORSDOF 19
ENDMDL
MODEL 32
REMARK VINA RESULT:    -6.240      3.508      8.106
REMARK INTER + INTRA:         -15.819
REMARK INTER:                 -10.032
REMARK INTRA:                  -5.787
REMARK UNBOUND:                -3.195
REMARK SMILES CC[C@@H](C)[C@@H](NC(=O)[C@@H](O)Cc1ccc(O)c(Cl)c1)C(=O)N1[C@H](C(=O)NCCCCN=C(N)N)C[C@H]2CC[C@H](OS(=O)(=O)O)C[C@@H]21
REMARK SMILES IDX 22 1 36 2 46 3 35 4 23 5 45 6 37 7 39 8 38 9 20 10 21 11
REMARK SMILES IDX 5 12 6 13 7 14 8 15 9 17 11 18 12 19 17 20 19 21 15 22 14 23
REMARK SMILES IDX 13 24 18 25 16 26 10 28 3 30 4 31 2 32 1 33 24 34 25 35
REMARK SMILES IDX 26 36 27 38 28 39 29 40 30 41 31 42 32 43 33 44 34 45 40 50
REMARK SMILES IDX 41 51 42 52 43 53 44 54
REMARK H PARENT 6 16 16 27 10 29 26 37 33 46 33 47 34 48 34 49 44 55
ROOT
ATOM      1  N   UNL     1      -8.701  -2.213   3.302  1.00  0.00    -0.326 N 
ATOM      2  C   UNL     1      -8.227  -2.464   5.595  1.00  0.00     0.014 C 
ATOM      3  C   UNL     1      -9.301  -1.975   4.619  1.00  0.00     0.091 C 
ATOM      4  C   UNL     1      -6.934  -2.098   4.881  1.00  0.00     0.041 C 
ATOM      5  C   UNL     1      -7.268  -2.568   3.454  1.00  0.00     0.175 C 
ATOM      6  C   UNL     1     -10.614  -2.679   4.954  1.00  0.00     0.059 C 
ATOM      7  C   UNL     1      -8.481  -1.933   6.991  1.00  0.00     0.008 C 
ATOM      8  C   UNL     1     -10.780  -3.004   6.454  1.00  0.00     0.143 C 
ATOM      9  C   UNL     1      -9.979  -2.036   7.348  1.00  0.00     0.034 C 
ENDROOT
BRANCH   1  10
ATOM     10  C   UNL     1      -9.201  -1.949   2.038  1.00  0.00     0.246 C 
ATOM     11  O   UNL     1      -8.560  -1.214   1.280  1.00  0.00    -0.272 OA
BRANCH  10  12
ATOM     12  C   UNL     1     -10.532  -2.616   1.586  1.00  0.00     0.174 C 
BRANCH  12  13
ATOM     13  N   UNL     1     -10.366  -4.068   1.523  1.00  0.00    -0.342 N 
ATOM     14  C   UNL     1     -11.184  -4.985   2.144  1.00  0.00     0.249 C 
ATOM     15  O   UNL     1     -12.170  -4.681   2.804  1.00  0.00    -0.272 OA
ATOM     16  H   UNL     1      -9.508  -4.461   1.145  1.00  0.00     0.164 HD
BRANCH  14  17
ATOM     17  C   UNL     1     -10.737  -6.442   1.903  1.00  0.00     0.207 C 
BRANCH  17  18
ATOM     18  C   UNL     1     -11.902  -7.277   1.361  1.00  0.00     0.077 C 
BRANCH  18  19
ATOM     19  C   UNL     1     -12.044  -7.137  -0.138  1.00  0.00    -0.043 A 
ATOM     20  C   UNL     1     -11.314  -7.701  -2.381  1.00  0.00     0.083 A 
ATOM     21  C   UNL     1     -11.213  -7.869  -1.000  1.00  0.00     0.028 A 
ATOM     22  C   UNL     1     -12.240  -6.801  -2.910  1.00  0.00     0.134 A 
ATOM     23  C   UNL     1     -13.070  -6.069  -2.068  1.00  0.00     0.048 A 
ATOM     24  C   UNL     1     -12.970  -6.235  -0.684  1.00  0.00     0.008 A 
ATOM     25  Cl  UNL     1     -10.284  -8.609  -3.424  1.00  0.00    -0.080 Cl
BRANCH  22  26
ATOM     26  O   UNL     1     -12.368  -6.594  -4.256  1.00  0.00    -0.506 OA
ATOM     27  H   UNL     1     -12.360  -5.629  -4.393  1.00  0.00     0.293 HD
ENDBRANCH  22  26
ENDBRANCH  18  19
ENDBRANCH  17  18
BRANCH  17  28
ATOM     28  O   UNL     1     -10.245  -7.040   3.113  1.00  0.00    -0.383 OA
ATOM     29  H   UNL     1     -10.918  -6.847   3.805  1.00  0.00     0.211 HD
ENDBRANCH  17  28
ENDBRANCH  14  17
ENDBRANCH  12  13
BRANCH  12  30
ATOM     30  C   UNL     1     -11.079  -2.025   0.259  1.00  0.00     0.018 C 
ATOM     31  C   UNL     1     -12.547  -1.599   0.414  1.00  0.00     0.010 C 
BRANCH  30  32
ATOM     32  C   UNL     1     -10.926  -2.974  -0.955  1.00  0.00     0.002 C 
ATOM     33  C   UNL     1     -11.845  -2.678  -2.133  1.00  0.00     0.004 C 
ENDBRANCH  30  32
ENDBRANCH  12  30
ENDBRANCH  10  12
ENDBRANCH   1  10
BRANCH   5  34
ATOM     34  C   UNL     1      -7.060  -4.097   3.292  1.00  0.00     0.242 C 
ATOM     35  O   UNL     1      -8.001  -4.891   3.279  1.00  0.00    -0.273 OA
ATOM     36  N   UNL     1      -5.747  -4.506   3.219  1.00  0.00    -0.354 N 
ATOM     37  H   UNL     1      -5.009  -3.814   3.357  1.00  0.00     0.163 HD
BRANCH  36  38
ATOM     38  C   UNL     1      -5.377  -5.857   2.854  1.00  0.00     0.116 C 
BRANCH  38  39
ATOM     39  C   UNL     1      -5.270  -6.722   4.108  1.00  0.00     0.023 C 
BRANCH  39  40
ATOM     40  C   UNL     1      -5.616  -8.183   3.840  1.00  0.00     0.026 C 
BRANCH  40  41
ATOM     41  C   UNL     1      -7.130  -8.394   3.865  1.00  0.00     0.146 C 
BRANCH  41  42
ATOM     42  N   UNL     1      -7.556  -8.748   5.212  1.00  0.00    -0.254 NA
ATOM     43  C   UNL     1      -8.177  -7.887   5.927  1.00  0.00     0.185 C 
ATOM     44  N   UNL     1      -8.536  -6.622   5.640  1.00  0.00    -0.370 N 
ATOM     45  N   UNL     1      -8.557  -8.231   7.168  1.00  0.00    -0.370 N 
ATOM     46  H   UNL     1      -8.797  -5.984   6.373  1.00  0.00     0.159 HD
ATOM     47  H   UNL     1      -8.338  -6.203   4.737  1.00  0.00     0.159 HD
ATOM     48  H   UNL     1      -8.333  -9.173   7.461  1.00  0.00     0.159 HD
ATOM     49  H   UNL     1      -9.240  -7.713   7.691  1.00  0.00     0.159 HD
ENDBRANCH  41  42
ENDBRANCH  40  41
ENDBRANCH  39  40
ENDBRANCH  38  39
ENDBRANCH  36  38
ENDBRANCH   5  34
BRANCH   8  50
ATOM     50  O   UNL     1     -10.339  -4.336   6.719  1.00  0.00    -0.245 OA
BRANCH  50  51
ATOM     51  S   UNL     1     -11.436  -5.514   6.950  1.00  0.00     0.397 S 
ATOM     52  O   UNL     1     -12.695  -4.891   7.288  1.00  0.00    -0.169 OA
ATOM     53  O   UNL     1     -10.860  -6.559   7.772  1.00  0.00    -0.169 OA
BRANCH  51  54
ATOM     54  O   UNL     1     -11.620  -6.098   5.463  1.00  0.00    -0.264 OA
ATOM     55  H   UNL     1     -12.536  -5.902   5.178  1.00  0.00     0.236 HD
ENDBRANCH  51  54
ENDBRANCH  50  51
ENDBRANCH   8  50
TORSDOF 19
ENDMDL
MODEL 33
REMARK VINA RESULT:    -6.199      4.491      9.736
REMARK INTER + INTRA:         -15.736
REMARK INTER:                 -13.028
REMARK INTRA:                  -2.708
REMARK UNBOUND:                -3.195
REMARK SMILES CC[C@@H](C)[C@@H](NC(=O)[C@@H](O)Cc1ccc(O)c(Cl)c1)C(=O)N1[C@H](C(=O)NCCCCN=C(N)N)C[C@H]2CC[C@H](OS(=O)(=O)O)C[C@@H]21
REMARK SMILES IDX 22 1 36 2 46 3 35 4 23 5 45 6 37 7 39 8 38 9 20 10 21 11
REMARK SMILES IDX 5 12 6 13 7 14 8 15 9 17 11 18 12 19 17 20 19 21 15 22 14 23
REMARK SMILES IDX 13 24 18 25 16 26 10 28 3 30 4 31 2 32 1 33 24 34 25 35
REMARK SMILES IDX 26 36 27 38 28 39 29 40 30 41 31 42 32 43 33 44 34 45 40 50
REMARK SMILES IDX 41 51 42 52 43 53 44 54
REMARK H PARENT 6 16 16 27 10 29 26 37 33 46 33 47 34 48 34 49 44 55
ROOT
ATOM      1  N   UNL     1     -10.510  -4.354   6.924  1.00  0.00    -0.326 N 
ATOM      2  C   UNL     1      -9.045  -3.975   8.728  1.00  0.00     0.014 C 
ATOM      3  C   UNL     1      -9.336  -3.553   7.285  1.00  0.00     0.091 C 
ATOM      4  C   UNL     1      -9.427  -5.448   8.729  1.00  0.00     0.041 C 
ATOM      5  C   UNL     1     -10.760  -5.384   7.963  1.00  0.00     0.175 C 
ATOM      6  C   UNL     1      -9.458  -2.031   7.242  1.00  0.00     0.059 C 
ATOM      7  C   UNL     1      -7.643  -3.571   9.138  1.00  0.00     0.008 C 
ATOM      8  C   UNL     1      -8.567  -1.307   8.276  1.00  0.00     0.143 C 
ATOM      9  C   UNL     1      -7.326  -2.140   8.654  1.00  0.00     0.034 C 
ENDROOT
BRANCH   1  10
ATOM     10  C   UNL     1     -11.213  -4.412   5.733  1.00  0.00     0.246 C 
ATOM     11  O   UNL     1     -12.415  -4.125   5.730  1.00  0.00    -0.272 OA
BRANCH  10  12
ATOM     12  C   UNL     1     -10.468  -4.794   4.421  1.00  0.00     0.174 C 
BRANCH  12  13
ATOM     13  N   UNL     1     -10.881  -3.904   3.336  1.00  0.00    -0.342 N 
ATOM     14  C   UNL     1     -10.248  -2.731   2.992  1.00  0.00     0.249 C 
ATOM     15  O   UNL     1      -9.240  -2.312   3.547  1.00  0.00    -0.272 OA
ATOM     16  H   UNL     1     -11.786  -4.038   2.891  1.00  0.00     0.164 HD
BRANCH  14  17
ATOM     17  C   UNL     1     -10.935  -2.006   1.815  1.00  0.00     0.207 C 
BRANCH  17  18
ATOM     18  C   UNL     1     -10.263  -2.382   0.490  1.00  0.00     0.077 C 
BRANCH  18  19
ATOM     19  C   UNL     1     -11.003  -3.493  -0.220  1.00  0.00    -0.043 A 
ATOM     20  C   UNL     1     -10.988  -5.435  -1.673  1.00  0.00     0.083 A 
ATOM     21  C   UNL     1     -10.299  -4.441  -0.979  1.00  0.00     0.028 A 
ATOM     22  C   UNL     1     -12.381  -5.489  -1.615  1.00  0.00     0.134 A 
ATOM     23  C   UNL     1     -13.091  -4.558  -0.867  1.00  0.00     0.048 A 
ATOM     24  C   UNL     1     -12.404  -3.560  -0.173  1.00  0.00     0.008 A 
ATOM     25  Cl  UNL     1     -10.105  -6.590  -2.601  1.00  0.00    -0.080 Cl
BRANCH  22  26
ATOM     26  O   UNL     1     -13.102  -6.440  -2.287  1.00  0.00    -0.506 OA
ATOM     27  H   UNL     1     -13.117  -7.233  -1.720  1.00  0.00     0.293 HD
ENDBRANCH  22  26
ENDBRANCH  18  19
ENDBRANCH  17  18
BRANCH  17  28
ATOM     28  O   UNL     1     -10.888  -0.581   1.986  1.00  0.00    -0.383 OA
ATOM     29  H   UNL     1     -11.320  -0.197   1.190  1.00  0.00     0.211 HD
ENDBRANCH  17  28
ENDBRANCH  14  17
ENDBRANCH  12  13
BRANCH  12  30
ATOM     30  C   UNL     1     -10.633  -6.293   4.052  1.00  0.00     0.018 C 
ATOM     31  C   UNL     1      -9.577  -7.150   4.767  1.00  0.00     0.010 C 
BRANCH  30  32
ATOM     32  C   UNL     1     -10.598  -6.566   2.529  1.00  0.00     0.002 C 
ATOM     33  C   UNL     1     -11.952  -6.829   1.883  1.00  0.00     0.004 C 
ENDBRANCH  30  32
ENDBRANCH  12  30
ENDBRANCH  10  12
ENDBRANCH   1  10
BRANCH   5  34
ATOM     34  C   UNL     1     -11.932  -4.959   8.887  1.00  0.00     0.242 C 
ATOM     35  O   UNL     1     -12.456  -3.847   8.817  1.00  0.00    -0.273 OA
ATOM     36  N   UNL     1     -12.306  -5.894   9.826  1.00  0.00    -0.354 N 
ATOM     37  H   UNL     1     -11.756  -6.749   9.915  1.00  0.00     0.163 HD
BRANCH  36  38
ATOM     38  C   UNL     1     -13.509  -5.754  10.620  1.00  0.00     0.116 C 
BRANCH  38  39
ATOM     39  C   UNL     1     -14.098  -7.132  10.915  1.00  0.00     0.023 C 
BRANCH  39  40
ATOM     40  C   UNL     1     -14.042  -8.060   9.707  1.00  0.00     0.026 C 
BRANCH  40  41
ATOM     41  C   UNL     1     -15.296  -8.932   9.635  1.00  0.00     0.146 C 
BRANCH  41  42
ATOM     42  N   UNL     1     -14.916 -10.333   9.516  1.00  0.00    -0.254 NA
ATOM     43  C   UNL     1     -14.886 -11.071  10.562  1.00  0.00     0.185 C 
ATOM     44  N   UNL     1     -15.162 -10.768  11.843  1.00  0.00    -0.370 N 
ATOM     45  N   UNL     1     -14.529 -12.360  10.432  1.00  0.00    -0.370 N 
ATOM     46  H   UNL     1     -14.863 -11.373  12.589  1.00  0.00     0.159 HD
ATOM     47  H   UNL     1     -15.462  -9.838  12.118  1.00  0.00     0.159 HD
ATOM     48  H   UNL     1     -14.312 -12.673   9.495  1.00  0.00     0.159 HD
ATOM     49  H   UNL     1     -14.706 -13.047  11.142  1.00  0.00     0.159 HD
ENDBRANCH  41  42
ENDBRANCH  40  41
ENDBRANCH  39  40
ENDBRANCH  38  39
ENDBRANCH  36  38
ENDBRANCH   5  34
BRANCH   8  50
ATOM     50  O   UNL     1      -9.313  -1.040   9.464  1.00  0.00    -0.245 OA
BRANCH  50  51
ATOM     51  S   UNL     1     -10.630  -0.089   9.388  1.00  0.00     0.397 S 
ATOM     52  O   UNL     1     -11.791  -0.911   9.645  1.00  0.00    -0.169 OA
ATOM     53  O   UNL     1     -10.547   0.764   8.220  1.00  0.00    -0.169 OA
BRANCH  51  54
ATOM     54  O   UNL     1     -10.451   0.836  10.691  1.00  0.00    -0.264 OA
ATOM     55  H   UNL     1     -11.334   0.952  11.098  1.00  0.00     0.236 HD
ENDBRANCH  51  54
ENDBRANCH  50  51
ENDBRANCH   8  50
TORSDOF 19
ENDMDL
MODEL 34
REMARK VINA RESULT:    -6.197      2.836      6.348
REMARK INTER + INTRA:         -15.731
REMARK INTER:                 -10.748
REMARK INTRA:                  -4.983
REMARK UNBOUND:                -3.195
REMARK SMILES CC[C@@H](C)[C@@H](NC(=O)[C@@H](O)Cc1ccc(O)c(Cl)c1)C(=O)N1[C@H](C(=O)NCCCCN=C(N)N)C[C@H]2CC[C@H](OS(=O)(=O)O)C[C@@H]21
REMARK SMILES IDX 22 1 36 2 46 3 35 4 23 5 45 6 37 7 39 8 38 9 20 10 21 11
REMARK SMILES IDX 5 12 6 13 7 14 8 15 9 17 11 18 12 19 17 20 19 21 15 22 14 23
REMARK SMILES IDX 13 24 18 25 16 26 10 28 3 30 4 31 2 32 1 33 24 34 25 35
REMARK SMILES IDX 26 36 27 38 28 39 29 40 30 41 31 42 32 43 33 44 34 45 40 50
REMARK SMILES IDX 41 51 42 52 43 53 44 54
REMARK H PARENT 6 16 16 27 10 29 26 37 33 46 33 47 34 48 34 49 44 55
ROOT
ATOM      1  N   UNL     1     -11.297  -6.774  -1.445  1.00  0.00    -0.326 N 
ATOM      2  C   UNL     1      -9.405  -7.880  -2.304  1.00  0.00     0.014 C 
ATOM      3  C   UNL     1     -10.277  -6.635  -2.488  1.00  0.00     0.091 C 
ATOM      4  C   UNL     1     -10.412  -8.934  -1.871  1.00  0.00     0.041 C 
ATOM      5  C   UNL     1     -11.223  -8.127  -0.840  1.00  0.00     0.175 C 
ATOM      6  C   UNL     1      -9.374  -5.404  -2.459  1.00  0.00     0.059 C 
ATOM      7  C   UNL     1      -8.550  -8.129  -3.532  1.00  0.00     0.008 C 
ATOM      8  C   UNL     1      -7.959  -5.657  -3.024  1.00  0.00     0.143 C 
ATOM      9  C   UNL     1      -7.943  -6.808  -4.049  1.00  0.00     0.034 C 
ENDROOT
BRANCH   1  10
ATOM     10  C   UNL     1     -12.370  -5.956  -1.138  1.00  0.00     0.246 C 
ATOM     11  O   UNL     1     -13.455  -6.470  -0.845  1.00  0.00    -0.272 OA
BRANCH  10  12
ATOM     12  C   UNL     1     -12.178  -4.411  -1.125  1.00  0.00     0.174 C 
BRANCH  12  13
ATOM     13  N   UNL     1     -12.019  -3.940   0.250  1.00  0.00    -0.342 N 
ATOM     14  C   UNL     1     -10.896  -3.318   0.748  1.00  0.00     0.249 C 
ATOM     15  O   UNL     1      -9.904  -3.063   0.077  1.00  0.00    -0.272 OA
ATOM     16  H   UNL     1     -12.693  -4.219   0.959  1.00  0.00     0.164 HD
BRANCH  14  17
ATOM     17  C   UNL     1     -11.029  -2.955   2.242  1.00  0.00     0.207 C 
BRANCH  17  18
ATOM     18  C   UNL     1     -12.305  -3.567   2.831  1.00  0.00     0.077 C 
BRANCH  18  19
ATOM     19  C   UNL     1     -12.039  -4.262   4.147  1.00  0.00    -0.043 A 
ATOM     20  C   UNL     1     -10.516  -4.868   5.936  1.00  0.00     0.083 A 
ATOM     21  C   UNL     1     -10.772  -4.184   4.746  1.00  0.00     0.028 A 
ATOM     22  C   UNL     1     -11.520  -5.633   6.531  1.00  0.00     0.134 A 
ATOM     23  C   UNL     1     -12.779  -5.719   5.948  1.00  0.00     0.048 A 
ATOM     24  C   UNL     1     -13.038  -5.037   4.757  1.00  0.00     0.008 A 
ATOM     25  Cl  UNL     1      -8.954  -4.760   6.657  1.00  0.00    -0.080 Cl
BRANCH  22  26
ATOM     26  O   UNL     1     -11.313  -6.329   7.691  1.00  0.00    -0.506 OA
ATOM     27  H   UNL     1     -12.193  -6.583   8.026  1.00  0.00     0.293 HD
ENDBRANCH  22  26
ENDBRANCH  18  19
ENDBRANCH  17  18
BRANCH  17  28
ATOM     28  O   UNL     1     -11.053  -1.531   2.429  1.00  0.00    -0.383 OA
ATOM     29  H   UNL     1     -10.874  -1.138   1.545  1.00  0.00     0.211 HD
ENDBRANCH  17  28
ENDBRANCH  14  17
ENDBRANCH  12  13
BRANCH  12  30
ATOM     30  C   UNL     1     -13.306  -3.660  -1.882  1.00  0.00     0.018 C 
ATOM     31  C   UNL     1     -13.362  -4.099  -3.354  1.00  0.00     0.010 C 
BRANCH  30  32
ATOM     32  C   UNL     1     -13.196  -2.118  -1.790  1.00  0.00     0.002 C 
ATOM     33  C   UNL     1     -12.176  -1.481  -2.725  1.00  0.00     0.004 C 
ENDBRANCH  30  32
ENDBRANCH  12  30
ENDBRANCH  10  12
ENDBRANCH   1  10
BRANCH   5  34
ATOM     34  C   UNL     1     -10.508  -8.076   0.537  1.00  0.00     0.242 C 
ATOM     35  O   UNL     1     -10.184  -9.094   1.148  1.00  0.00    -0.273 OA
ATOM     36  N   UNL     1     -10.313  -6.813   1.049  1.00  0.00    -0.354 N 
ATOM     37  H   UNL     1     -10.711  -6.014   0.553  1.00  0.00     0.163 HD
BRANCH  36  38
ATOM     38  C   UNL     1      -9.479  -6.568   2.207  1.00  0.00     0.116 C 
BRANCH  38  39
ATOM     39  C   UNL     1      -8.295  -5.687   1.817  1.00  0.00     0.023 C 
BRANCH  39  40
ATOM     40  C   UNL     1      -7.662  -4.995   3.019  1.00  0.00     0.026 C 
BRANCH  40  41
ATOM     41  C   UNL     1      -6.807  -3.809   2.574  1.00  0.00     0.146 C 
BRANCH  41  42
ATOM     42  N   UNL     1      -7.407  -2.566   3.040  1.00  0.00    -0.254 NA
ATOM     43  C   UNL     1      -7.634  -1.621   2.207  1.00  0.00     0.185 C 
ATOM     44  N   UNL     1      -7.403  -1.560   0.883  1.00  0.00    -0.370 N 
ATOM     45  N   UNL     1      -8.184  -0.481   2.658  1.00  0.00    -0.370 N 
ATOM     46  H   UNL     1      -7.402  -0.677   0.402  1.00  0.00     0.159 HD
ATOM     47  H   UNL     1      -7.002  -2.343   0.375  1.00  0.00     0.159 HD
ATOM     48  H   UNL     1      -8.398  -0.447   3.645  1.00  0.00     0.159 HD
ATOM     49  H   UNL     1      -8.604   0.198   2.048  1.00  0.00     0.159 HD
ENDBRANCH  41  42
ENDBRANCH  40  41
ENDBRANCH  39  40
ENDBRANCH  38  39
ENDBRANCH  36  38
ENDBRANCH   5  34
BRANCH   8  50
ATOM     50  O   UNL     1      -7.059  -5.980  -1.964  1.00  0.00    -0.245 OA
BRANCH  50  51
ATOM     51  S   UNL     1      -6.025  -4.851  -1.415  1.00  0.00     0.397 S 
ATOM     52  O   UNL     1      -5.325  -4.297  -2.552  1.00  0.00    -0.169 OA
ATOM     53  O   UNL     1      -5.315  -5.361  -0.261  1.00  0.00    -0.169 OA
BRANCH  51  54
ATOM     54  O   UNL     1      -7.025  -3.696  -0.913  1.00  0.00    -0.264 OA
ATOM     55  H   UNL     1      -7.604  -3.455  -1.664  1.00  0.00     0.236 HD
ENDBRANCH  51  54
ENDBRANCH  50  51
ENDBRANCH   8  50
TORSDOF 19
ENDMDL
MODEL 35
REMARK VINA RESULT:    -6.186      3.260      7.133
REMARK INTER + INTRA:         -15.710
REMARK INTER:                 -12.609
REMARK INTRA:                  -3.101
REMARK UNBOUND:                -3.195
REMARK SMILES CC[C@@H](C)[C@@H](NC(=O)[C@@H](O)Cc1ccc(O)c(Cl)c1)C(=O)N1[C@H](C(=O)NCCCCN=C(N)N)C[C@H]2CC[C@H](OS(=O)(=O)O)C[C@@H]21
REMARK SMILES IDX 22 1 36 2 46 3 35 4 23 5 45 6 37 7 39 8 38 9 20 10 21 11
REMARK SMILES IDX 5 12 6 13 7 14 8 15 9 17 11 18 12 19 17 20 19 21 15 22 14 23
REMARK SMILES IDX 13 24 18 25 16 26 10 28 3 30 4 31 2 32 1 33 24 34 25 35
REMARK SMILES IDX 26 36 27 38 28 39 29 40 30 41 31 42 32 43 33 44 34 45 40 50
REMARK SMILES IDX 41 51 42 52 43 53 44 54
REMARK H PARENT 6 16 16 27 10 29 26 37 33 46 33 47 34 48 34 49 44 55
ROOT
ATOM      1  N   UNL     1      -9.151  -4.737   5.553  1.00  0.00    -0.326 N 
ATOM      2  C   UNL     1      -8.578  -2.493   5.978  1.00  0.00     0.014 C 
ATOM      3  C   UNL     1      -8.038  -3.798   5.386  1.00  0.00     0.091 C 
ATOM      4  C   UNL     1      -9.456  -2.982   7.120  1.00  0.00     0.041 C 
ATOM      5  C   UNL     1     -10.195  -4.138   6.420  1.00  0.00     0.175 C 
ATOM      6  C   UNL     1      -7.535  -3.514   3.972  1.00  0.00     0.059 C 
ATOM      7  C   UNL     1      -7.451  -1.522   6.270  1.00  0.00     0.008 C 
ATOM      8  C   UNL     1      -6.972  -2.089   3.787  1.00  0.00     0.143 C 
ATOM      9  C   UNL     1      -6.436  -1.501   5.108  1.00  0.00     0.034 C 
ENDROOT
BRANCH   1  10
ATOM     10  C   UNL     1      -9.238  -6.078   5.219  1.00  0.00     0.246 C 
ATOM     11  O   UNL     1     -10.221  -6.727   5.593  1.00  0.00    -0.272 OA
BRANCH  10  12
ATOM     12  C   UNL     1      -8.124  -6.725   4.347  1.00  0.00     0.174 C 
BRANCH  12  13
ATOM     13  N   UNL     1      -8.726  -7.489   3.255  1.00  0.00    -0.342 N 
ATOM     14  C   UNL     1      -9.100  -6.967   2.037  1.00  0.00     0.249 C 
ATOM     15  O   UNL     1      -8.941  -5.795   1.721  1.00  0.00    -0.272 OA
ATOM     16  H   UNL     1      -9.061  -8.434   3.426  1.00  0.00     0.164 HD
BRANCH  14  17
ATOM     17  C   UNL     1      -9.723  -8.024   1.102  1.00  0.00     0.207 C 
BRANCH  17  18
ATOM     18  C   UNL     1     -11.231  -7.790   0.957  1.00  0.00     0.077 C 
BRANCH  18  19
ATOM     19  C   UNL     1     -11.617  -7.479  -0.472  1.00  0.00    -0.043 A 
ATOM     20  C   UNL     1     -11.182  -7.652  -2.852  1.00  0.00     0.083 A 
ATOM     21  C   UNL     1     -10.852  -7.981  -1.537  1.00  0.00     0.028 A 
ATOM     22  C   UNL     1     -12.273  -6.821  -3.111  1.00  0.00     0.134 A 
ATOM     23  C   UNL     1     -13.038  -6.318  -2.066  1.00  0.00     0.048 A 
ATOM     24  C   UNL     1     -12.710  -6.644  -0.748  1.00  0.00     0.008 A 
ATOM     25  Cl  UNL     1     -10.231  -8.277  -4.147  1.00  0.00    -0.080 Cl
BRANCH  22  26
ATOM     26  O   UNL     1     -12.628  -6.462  -4.383  1.00  0.00    -0.506 OA
ATOM     27  H   UNL     1     -13.400  -7.009  -4.623  1.00  0.00     0.293 HD
ENDBRANCH  22  26
ENDBRANCH  18  19
ENDBRANCH  17  18
BRANCH  17  28
ATOM     28  O   UNL     1      -9.493  -9.353   1.597  1.00  0.00    -0.383 OA
ATOM     29  H   UNL     1      -8.657  -9.310   2.113  1.00  0.00     0.211 HD
ENDBRANCH  17  28
ENDBRANCH  14  17
ENDBRANCH  12  13
BRANCH  12  30
ATOM     30  C   UNL     1      -7.125  -7.572   5.181  1.00  0.00     0.018 C 
ATOM     31  C   UNL     1      -7.529  -9.054   5.177  1.00  0.00     0.010 C 
BRANCH  30  32
ATOM     32  C   UNL     1      -6.951  -7.072   6.636  1.00  0.00     0.002 C 
ATOM     33  C   UNL     1      -5.737  -6.184   6.879  1.00  0.00     0.004 C 
ENDBRANCH  30  32
ENDBRANCH  12  30
ENDBRANCH  10  12
ENDBRANCH   1  10
BRANCH   5  34
ATOM     34  C   UNL     1     -11.387  -3.622   5.570  1.00  0.00     0.242 C 
ATOM     35  O   UNL     1     -12.306  -2.965   6.057  1.00  0.00    -0.273 OA
ATOM     36  N   UNL     1     -11.368  -4.000   4.246  1.00  0.00    -0.354 N 
ATOM     37  H   UNL     1     -10.643  -4.645   3.929  1.00  0.00     0.163 HD
BRANCH  36  38
ATOM     38  C   UNL     1     -12.276  -3.436   3.268  1.00  0.00     0.116 C 
BRANCH  38  39
ATOM     39  C   UNL     1     -11.857  -3.865   1.864  1.00  0.00     0.023 C 
BRANCH  39  40
ATOM     40  C   UNL     1     -12.656  -3.156   0.776  1.00  0.00     0.026 C 
BRANCH  40  41
ATOM     41  C   UNL     1     -12.060  -1.782   0.474  1.00  0.00     0.146 C 
BRANCH  41  42
ATOM     42  N   UNL     1     -13.130  -0.819   0.249  1.00  0.00    -0.254 NA
ATOM     43  C   UNL     1     -13.398  -0.437  -0.943  1.00  0.00     0.185 C 
ATOM     44  N   UNL     1     -12.831  -0.788  -2.112  1.00  0.00    -0.370 N 
ATOM     45  N   UNL     1     -14.385   0.455  -1.129  1.00  0.00    -0.370 N 
ATOM     46  H   UNL     1     -12.974  -0.232  -2.938  1.00  0.00     0.159 HD
ATOM     47  H   UNL     1     -12.076  -1.465  -2.156  1.00  0.00     0.159 HD
ATOM     48  H   UNL     1     -14.871   0.765  -0.298  1.00  0.00     0.159 HD
ATOM     49  H   UNL     1     -14.807   0.620  -2.025  1.00  0.00     0.159 HD
ENDBRANCH  41  42
ENDBRANCH  40  41
ENDBRANCH  39  40
ENDBRANCH  38  39
ENDBRANCH  36  38
ENDBRANCH   5  34
BRANCH   8  50
ATOM     50  O   UNL     1      -7.988  -1.221   3.284  1.00  0.00    -0.245 OA
BRANCH  50  51
ATOM     51  S   UNL     1      -7.778  -0.485   1.848  1.00  0.00     0.397 S 
ATOM     52  O   UNL     1      -6.514   0.215   1.886  1.00  0.00    -0.169 OA
ATOM     53  O   UNL     1      -9.004   0.181   1.460  1.00  0.00    -0.169 OA
BRANCH  51  54
ATOM     54  O   UNL     1      -7.558  -1.734   0.860  1.00  0.00    -0.264 OA
ATOM     55  H   UNL     1      -7.136  -2.452   1.375  1.00  0.00     0.236 HD
ENDBRANCH  51  54
ENDBRANCH  50  51
ENDBRANCH   8  50
TORSDOF 19
ENDMDL
MODEL 36
REMARK VINA RESULT:    -6.140     17.557     21.668
REMARK INTER + INTRA:         -15.617
REMARK INTER:                  -9.780
REMARK INTRA:                  -5.837
REMARK UNBOUND:                -3.195
REMARK SMILES CC[C@@H](C)[C@@H](NC(=O)[C@@H](O)Cc1ccc(O)c(Cl)c1)C(=O)N1[C@H](C(=O)NCCCCN=C(N)N)C[C@H]2CC[C@H](OS(=O)(=O)O)C[C@@H]21
REMARK SMILES IDX 22 1 36 2 46 3 35 4 23 5 45 6 37 7 39 8 38 9 20 10 21 11
REMARK SMILES IDX 5 12 6 13 7 14 8 15 9 17 11 18 12 19 17 20 19 21 15 22 14 23
REMARK SMILES IDX 13 24 18 25 16 26 10 28 3 30 4 31 2 32 1 33 24 34 25 35
REMARK SMILES IDX 26 36 27 38 28 39 29 40 30 41 31 42 32 43 33 44 34 45 40 50
REMARK SMILES IDX 41 51 42 52 43 53 44 54
REMARK H PARENT 6 16 16 27 10 29 26 37 33 46 33 47 34 48 34 49 44 55
ROOT
ATOM      1  N   UNL     1       8.697   2.748   8.265  1.00  0.00    -0.326 N 
ATOM      2  C   UNL     1       7.712   4.077   9.941  1.00  0.00     0.014 C 
ATOM      3  C   UNL     1       9.039   3.798   9.229  1.00  0.00     0.091 C 
ATOM      4  C   UNL     1       7.058   2.705   9.980  1.00  0.00     0.041 C 
ATOM      5  C   UNL     1       7.334   2.230   8.541  1.00  0.00     0.175 C 
ATOM      6  C   UNL     1       9.589   5.119   8.696  1.00  0.00     0.059 C 
ATOM      7  C   UNL     1       7.940   4.830  11.237  1.00  0.00     0.008 C 
ATOM      8  C   UNL     1       9.224   6.341   9.567  1.00  0.00     0.143 C 
ATOM      9  C   UNL     1       8.982   5.951  11.039  1.00  0.00     0.034 C 
ENDROOT
BRANCH   1  10
ATOM     10  C   UNL     1       9.500   2.083   7.355  1.00  0.00     0.246 C 
ATOM     11  O   UNL     1       9.609   0.855   7.434  1.00  0.00    -0.272 OA
BRANCH  10  12
ATOM     12  C   UNL     1      10.211   2.887   6.228  1.00  0.00     0.174 C 
BRANCH  12  13
ATOM     13  N   UNL     1       9.242   3.732   5.530  1.00  0.00    -0.342 N 
ATOM     14  C   UNL     1       9.472   5.026   5.122  1.00  0.00     0.249 C 
ATOM     15  O   UNL     1      10.537   5.611   5.276  1.00  0.00    -0.272 OA
ATOM     16  H   UNL     1       8.270   3.440   5.472  1.00  0.00     0.164 HD
BRANCH  14  17
ATOM     17  C   UNL     1       8.247   5.658   4.427  1.00  0.00     0.207 C 
BRANCH  17  18
ATOM     18  C   UNL     1       8.455   5.703   2.910  1.00  0.00     0.077 C 
BRANCH  18  19
ATOM     19  C   UNL     1       7.974   4.436   2.239  1.00  0.00    -0.043 A 
ATOM     20  C   UNL     1       6.719   2.362   2.317  1.00  0.00     0.083 A 
ATOM     21  C   UNL     1       7.121   3.554   2.920  1.00  0.00     0.028 A 
ATOM     22  C   UNL     1       7.165   2.044   1.034  1.00  0.00     0.134 A 
ATOM     23  C   UNL     1       8.011   2.908   0.348  1.00  0.00     0.048 A 
ATOM     24  C   UNL     1       8.416   4.101   0.950  1.00  0.00     0.008 A 
ATOM     25  Cl  UNL     1       5.670   1.291   3.169  1.00  0.00    -0.080 Cl
BRANCH  22  26
ATOM     26  O   UNL     1       6.807   0.882   0.405  1.00  0.00    -0.506 OA
ATOM     27  H   UNL     1       6.786   0.188   1.090  1.00  0.00     0.293 HD
ENDBRANCH  22  26
ENDBRANCH  18  19
ENDBRANCH  17  18
BRANCH  17  28
ATOM     28  O   UNL     1       8.004   6.988   4.915  1.00  0.00    -0.383 OA
ATOM     29  H   UNL     1       7.026   7.089   4.952  1.00  0.00     0.211 HD
ENDBRANCH  17  28
ENDBRANCH  14  17
ENDBRANCH  12  13
BRANCH  12  30
ATOM     30  C   UNL     1      11.013   1.979   5.257  1.00  0.00     0.018 C 
ATOM     31  C   UNL     1      12.428   2.535   5.033  1.00  0.00     0.010 C 
BRANCH  30  32
ATOM     32  C   UNL     1      10.310   1.750   3.897  1.00  0.00     0.002 C 
ATOM     33  C   UNL     1      11.053   2.287   2.681  1.00  0.00     0.004 C 
ENDBRANCH  30  32
ENDBRANCH  12  30
ENDBRANCH  10  12
ENDBRANCH   1  10
BRANCH   5  34
ATOM     34  C   UNL     1       6.308   2.819   7.538  1.00  0.00     0.242 C 
ATOM     35  O   UNL     1       6.635   3.222   6.422  1.00  0.00    -0.273 OA
ATOM     36  N   UNL     1       5.016   2.909   8.006  1.00  0.00    -0.354 N 
ATOM     37  H   UNL     1       4.829   2.671   8.981  1.00  0.00     0.163 HD
BRANCH  36  38
ATOM     38  C   UNL     1       3.900   3.229   7.140  1.00  0.00     0.116 C 
BRANCH  38  39
ATOM     39  C   UNL     1       2.714   3.703   7.976  1.00  0.00     0.023 C 
BRANCH  39  40
ATOM     40  C   UNL     1       2.298   5.131   7.641  1.00  0.00     0.026 C 
BRANCH  40  41
ATOM     41  C   UNL     1       3.304   6.135   8.205  1.00  0.00     0.146 C 
BRANCH  41  42
ATOM     42  N   UNL     1       3.702   7.072   7.163  1.00  0.00    -0.254 NA
ATOM     43  C   UNL     1       4.896   7.036   6.703  1.00  0.00     0.185 C 
ATOM     44  N   UNL     1       5.926   6.233   7.028  1.00  0.00    -0.370 N 
ATOM     45  N   UNL     1       5.245   7.911   5.745  1.00  0.00    -0.370 N 
ATOM     46  H   UNL     1       6.866   6.474   6.766  1.00  0.00     0.159 HD
ATOM     47  H   UNL     1       5.831   5.503   7.727  1.00  0.00     0.159 HD
ATOM     48  H   UNL     1       4.524   8.548   5.435  1.00  0.00     0.159 HD
ATOM     49  H   UNL     1       6.065   7.796   5.176  1.00  0.00     0.159 HD
ENDBRANCH  41  42
ENDBRANCH  40  41
ENDBRANCH  39  40
ENDBRANCH  38  39
ENDBRANCH  36  38
ENDBRANCH   5  34
BRANCH   8  50
ATOM     50  O   UNL     1       8.044   6.967   9.064  1.00  0.00    -0.245 OA
BRANCH  50  51
ATOM     51  S   UNL     1       8.031   8.574   8.814  1.00  0.00     0.397 S 
ATOM     52  O   UNL     1       7.580   8.812   7.461  1.00  0.00    -0.169 OA
ATOM     53  O   UNL     1       9.258   9.154   9.319  1.00  0.00    -0.169 OA
BRANCH  51  54
ATOM     54  O   UNL     1       6.827   9.052   9.767  1.00  0.00    -0.264 OA
ATOM     55  H   UNL     1       6.815   8.465  10.550  1.00  0.00     0.236 HD
ENDBRANCH  51  54
ENDBRANCH  50  51
ENDBRANCH   8  50
TORSDOF 19
ENDMDL
MODEL 37
REMARK VINA RESULT:    -6.109      3.225      7.130
REMARK INTER + INTRA:         -15.553
REMARK INTER:                 -11.979
REMARK INTRA:                  -3.574
REMARK UNBOUND:                -3.195
REMARK SMILES CC[C@@H](C)[C@@H](NC(=O)[C@@H](O)Cc1ccc(O)c(Cl)c1)C(=O)N1[C@H](C(=O)NCCCCN=C(N)N)C[C@H]2CC[C@H](OS(=O)(=O)O)C[C@@H]21
REMARK SMILES IDX 22 1 36 2 46 3 35 4 23 5 45 6 37 7 39 8 38 9 20 10 21 11
REMARK SMILES IDX 5 12 6 13 7 14 8 15 9 17 11 18 12 19 17 20 19 21 15 22 14 23
REMARK SMILES IDX 13 24 18 25 16 26 10 28 3 30 4 31 2 32 1 33 24 34 25 35
REMARK SMILES IDX 26 36 27 38 28 39 29 40 30 41 31 42 32 43 33 44 34 45 40 50
REMARK SMILES IDX 41 51 42 52 43 53 44 54
REMARK H PARENT 6 16 16 27 10 29 26 37 33 46 33 47 34 48 34 49 44 55
ROOT
ATOM      1  N   UNL     1     -11.357  -6.853  -1.434  1.00  0.00    -0.326 N 
ATOM      2  C   UNL     1      -9.688  -7.998  -2.637  1.00  0.00     0.014 C 
ATOM      3  C   UNL     1     -10.523  -6.714  -2.632  1.00  0.00     0.091 C 
ATOM      4  C   UNL     1     -10.654  -9.027  -2.071  1.00  0.00     0.041 C 
ATOM      5  C   UNL     1     -11.242  -8.230  -0.893  1.00  0.00     0.175 C 
ATOM      6  C   UNL     1      -9.574  -5.520  -2.719  1.00  0.00     0.059 C 
ATOM      7  C   UNL     1      -9.065  -8.233  -3.999  1.00  0.00     0.008 C 
ATOM      8  C   UNL     1      -8.288  -5.806  -3.523  1.00  0.00     0.143 C 
ATOM      9  C   UNL     1      -8.496  -6.918  -4.572  1.00  0.00     0.034 C 
ENDROOT
BRANCH   1  10
ATOM     10  C   UNL     1     -12.326  -6.006  -0.924  1.00  0.00     0.246 C 
ATOM     11  O   UNL     1     -13.384  -6.486  -0.503  1.00  0.00    -0.272 OA
BRANCH  10  12
ATOM     12  C   UNL     1     -12.046  -4.476  -0.852  1.00  0.00     0.174 C 
BRANCH  12  13
ATOM     13  N   UNL     1     -11.958  -4.051   0.545  1.00  0.00    -0.342 N 
ATOM     14  C   UNL     1     -10.811  -3.609   1.166  1.00  0.00     0.249 C 
ATOM     15  O   UNL     1      -9.730  -3.497   0.601  1.00  0.00    -0.272 OA
ATOM     16  H   UNL     1     -12.732  -4.236   1.178  1.00  0.00     0.164 HD
BRANCH  14  17
ATOM     17  C   UNL     1     -11.038  -3.250   2.650  1.00  0.00     0.207 C 
BRANCH  17  18
ATOM     18  C   UNL     1     -12.462  -3.618   3.078  1.00  0.00     0.077 C 
BRANCH  18  19
ATOM     19  C   UNL     1     -12.528  -3.996   4.541  1.00  0.00    -0.043 A 
ATOM     20  C   UNL     1     -12.046  -3.497   6.865  1.00  0.00     0.083 A 
ATOM     21  C   UNL     1     -12.028  -3.124   5.521  1.00  0.00     0.028 A 
ATOM     22  C   UNL     1     -12.561  -4.739   7.239  1.00  0.00     0.134 A 
ATOM     23  C   UNL     1     -13.060  -5.612   6.279  1.00  0.00     0.048 A 
ATOM     24  C   UNL     1     -13.041  -5.242   4.932  1.00  0.00     0.008 A 
ATOM     25  Cl  UNL     1     -11.426  -2.413   8.055  1.00  0.00    -0.080 Cl
BRANCH  22  26
ATOM     26  O   UNL     1     -12.590  -5.153   8.543  1.00  0.00    -0.506 OA
ATOM     27  H   UNL     1     -11.703  -5.505   8.745  1.00  0.00     0.293 HD
ENDBRANCH  22  26
ENDBRANCH  18  19
ENDBRANCH  17  18
BRANCH  17  28
ATOM     28  O   UNL     1     -10.817  -1.850   2.882  1.00  0.00    -0.383 OA
ATOM     29  H   UNL     1      -9.924  -1.779   3.291  1.00  0.00     0.211 HD
ENDBRANCH  17  28
ENDBRANCH  14  17
ENDBRANCH  12  13
BRANCH  12  30
ATOM     30  C   UNL     1     -13.072  -3.640  -1.662  1.00  0.00     0.018 C 
ATOM     31  C   UNL     1     -13.136  -4.117  -3.121  1.00  0.00     0.010 C 
BRANCH  30  32
ATOM     32  C   UNL     1     -12.809  -2.115  -1.612  1.00  0.00     0.002 C 
ATOM     33  C   UNL     1     -12.298  -1.500  -2.908  1.00  0.00     0.004 C 
ENDBRANCH  30  32
ENDBRANCH  12  30
ENDBRANCH  10  12
ENDBRANCH   1  10
BRANCH   5  34
ATOM     34  C   UNL     1     -10.304  -8.258   0.343  1.00  0.00     0.242 C 
ATOM     35  O   UNL     1      -9.602  -9.232   0.614  1.00  0.00    -0.273 OA
ATOM     36  N   UNL     1     -10.355  -7.138   1.143  1.00  0.00    -0.354 N 
ATOM     37  H   UNL     1     -11.044  -6.415   0.933  1.00  0.00     0.163 HD
BRANCH  36  38
ATOM     38  C   UNL     1      -9.400  -6.904   2.206  1.00  0.00     0.116 C 
BRANCH  38  39
ATOM     39  C   UNL     1     -10.132  -6.759   3.538  1.00  0.00     0.023 C 
BRANCH  39  40
ATOM     40  C   UNL     1      -9.239  -6.191   4.636  1.00  0.00     0.026 C 
BRANCH  40  41
ATOM     41  C   UNL     1      -9.416  -6.972   5.938  1.00  0.00     0.146 C 
BRANCH  41  42
ATOM     42  N   UNL     1      -9.188  -6.091   7.076  1.00  0.00    -0.254 NA
ATOM     43  C   UNL     1      -9.670  -6.398   8.221  1.00  0.00     0.185 C 
ATOM     44  N   UNL     1     -10.403  -7.463   8.594  1.00  0.00    -0.370 N 
ATOM     45  N   UNL     1      -9.452  -5.570   9.256  1.00  0.00    -0.370 N 
ATOM     46  H   UNL     1     -10.917  -7.454   9.458  1.00  0.00     0.159 HD
ATOM     47  H   UNL     1     -10.649  -8.197   7.937  1.00  0.00     0.159 HD
ATOM     48  H   UNL     1      -8.900  -4.746   9.062  1.00  0.00     0.159 HD
ATOM     49  H   UNL     1      -9.586  -5.848  10.212  1.00  0.00     0.159 HD
ENDBRANCH  41  42
ENDBRANCH  40  41
ENDBRANCH  39  40
ENDBRANCH  38  39
ENDBRANCH  36  38
ENDBRANCH   5  34
BRANCH   8  50
ATOM     50  O   UNL     1      -7.237  -6.204  -2.643  1.00  0.00    -0.245 OA
BRANCH  50  51
ATOM     51  S   UNL     1      -6.155  -5.101  -2.133  1.00  0.00     0.397 S 
ATOM     52  O   UNL     1      -4.877  -5.762  -1.990  1.00  0.00    -0.169 OA
ATOM     53  O   UNL     1      -6.730  -4.318  -1.059  1.00  0.00    -0.169 OA
BRANCH  51  54
ATOM     54  O   UNL     1      -6.014  -4.149  -3.421  1.00  0.00    -0.264 OA
ATOM     55  H   UNL     1      -5.425  -4.598  -4.061  1.00  0.00     0.236 HD
ENDBRANCH  51  54
ENDBRANCH  50  51
ENDBRANCH   8  50
TORSDOF 19
ENDMDL
MODEL 38
REMARK VINA RESULT:    -6.060     19.237     24.050
REMARK INTER + INTRA:         -15.454
REMARK INTER:                 -11.387
REMARK INTRA:                  -4.067
REMARK UNBOUND:                -3.195
REMARK SMILES CC[C@@H](C)[C@@H](NC(=O)[C@@H](O)Cc1ccc(O)c(Cl)c1)C(=O)N1[C@H](C(=O)NCCCCN=C(N)N)C[C@H]2CC[C@H](OS(=O)(=O)O)C[C@@H]21
REMARK SMILES IDX 22 1 36 2 46 3 35 4 23 5 45 6 37 7 39 8 38 9 20 10 21 11
REMARK SMILES IDX 5 12 6 13 7 14 8 15 9 17 11 18 12 19 17 20 19 21 15 22 14 23
REMARK SMILES IDX 13 24 18 25 16 26 10 28 3 30 4 31 2 32 1 33 24 34 25 35
REMARK SMILES IDX 26 36 27 38 28 39 29 40 30 41 31 42 32 43 33 44 34 45 40 50
REMARK SMILES IDX 41 51 42 52 43 53 44 54
REMARK H PARENT 6 16 16 27 10 29 26 37 33 46 33 47 34 48 34 49 44 55
ROOT
ATOM      1  N   UNL     1       9.136   6.480  10.575  1.00  0.00    -0.326 N 
ATOM      2  C   UNL     1       9.073   8.752  11.186  1.00  0.00     0.014 C 
ATOM      3  C   UNL     1       9.870   7.459  11.382  1.00  0.00     0.091 C 
ATOM      4  C   UNL     1       7.641   8.251  11.081  1.00  0.00     0.041 C 
ATOM      5  C   UNL     1       7.841   7.054  10.134  1.00  0.00     0.175 C 
ATOM      6  C   UNL     1      11.331   7.735  11.033  1.00  0.00     0.059 C 
ATOM      7  C   UNL     1       9.427   9.773  12.250  1.00  0.00     0.008 C 
ATOM      8  C   UNL     1      11.783   9.178  11.346  1.00  0.00     0.143 C 
ATOM      9  C   UNL     1      10.953   9.812  12.480  1.00  0.00     0.034 C 
ENDROOT
BRANCH   1  10
ATOM     10  C   UNL     1       9.377   5.130  10.381  1.00  0.00     0.246 C 
ATOM     11  O   UNL     1       8.600   4.304  10.872  1.00  0.00    -0.272 OA
BRANCH  10  12
ATOM     12  C   UNL     1      10.592   4.685   9.517  1.00  0.00     0.174 C 
BRANCH  12  13
ATOM     13  N   UNL     1      10.527   5.318   8.200  1.00  0.00    -0.342 N 
ATOM     14  C   UNL     1      11.608   5.813   7.507  1.00  0.00     0.249 C 
ATOM     15  O   UNL     1      12.763   5.752   7.910  1.00  0.00    -0.272 OA
ATOM     16  H   UNL     1       9.624   5.579   7.811  1.00  0.00     0.164 HD
BRANCH  14  17
ATOM     17  C   UNL     1      11.211   6.437   6.152  1.00  0.00     0.207 C 
BRANCH  17  18
ATOM     18  C   UNL     1      11.313   5.396   5.032  1.00  0.00     0.077 C 
BRANCH  18  19
ATOM     19  C   UNL     1       9.977   5.157   4.365  1.00  0.00    -0.043 A 
ATOM     20  C   UNL     1       7.734   4.234   4.420  1.00  0.00     0.083 A 
ATOM     21  C   UNL     1       8.948   4.498   5.055  1.00  0.00     0.028 A 
ATOM     22  C   UNL     1       7.541   4.625   3.094  1.00  0.00     0.134 A 
ATOM     23  C   UNL     1       8.551   5.279   2.399  1.00  0.00     0.048 A 
ATOM     24  C   UNL     1       9.768   5.542   3.032  1.00  0.00     0.008 A 
ATOM     25  Cl  UNL     1       6.482   3.423   5.285  1.00  0.00    -0.080 Cl
BRANCH  22  26
ATOM     26  O   UNL     1       6.372   4.380   2.426  1.00  0.00    -0.506 OA
ATOM     27  H   UNL     1       6.451   4.811   1.555  1.00  0.00     0.293 HD
ENDBRANCH  22  26
ENDBRANCH  18  19
ENDBRANCH  17  18
BRANCH  17  28
ATOM     28  O   UNL     1      12.049   7.561   5.835  1.00  0.00    -0.383 OA
ATOM     29  H   UNL     1      12.189   7.529   4.861  1.00  0.00     0.211 HD
ENDBRANCH  17  28
ENDBRANCH  14  17
ENDBRANCH  12  13
BRANCH  12  30
ATOM     30  C   UNL     1      10.730   3.141   9.426  1.00  0.00     0.018 C 
ATOM     31  C   UNL     1      12.199   2.714   9.571  1.00  0.00     0.010 C 
BRANCH  30  32
ATOM     32  C   UNL     1      10.126   2.538   8.134  1.00  0.00     0.002 C 
ATOM     33  C   UNL     1      11.139   2.040   7.112  1.00  0.00     0.004 C 
ENDBRANCH  30  32
ENDBRANCH  12  30
ENDBRANCH  10  12
ENDBRANCH   1  10
BRANCH   5  34
ATOM     34  C   UNL     1       7.915   7.504   8.650  1.00  0.00     0.242 C 
ATOM     35  O   UNL     1       8.930   8.003   8.165  1.00  0.00    -0.273 OA
ATOM     36  N   UNL     1       6.749   7.354   7.934  1.00  0.00    -0.354 N 
ATOM     37  H   UNL     1       5.907   7.047   8.423  1.00  0.00     0.163 HD
BRANCH  36  38
ATOM     38  C   UNL     1       6.698   7.519   6.496  1.00  0.00     0.116 C 
BRANCH  38  39
ATOM     39  C   UNL     1       5.479   6.791   5.933  1.00  0.00     0.023 C 
BRANCH  39  40
ATOM     40  C   UNL     1       4.176   7.529   6.221  1.00  0.00     0.026 C 
BRANCH  40  41
ATOM     41  C   UNL     1       3.413   6.857   7.362  1.00  0.00     0.146 C 
BRANCH  41  42
ATOM     42  N   UNL     1       2.725   7.866   8.157  1.00  0.00    -0.254 NA
ATOM     43  C   UNL     1       3.134   8.126   9.341  1.00  0.00     0.185 C 
ATOM     44  N   UNL     1       4.159   7.601  10.038  1.00  0.00    -0.370 N 
ATOM     45  N   UNL     1       2.484   9.057  10.059  1.00  0.00    -0.370 N 
ATOM     46  H   UNL     1       4.215   7.720  11.035  1.00  0.00     0.159 HD
ATOM     47  H   UNL     1       4.766   6.892   9.639  1.00  0.00     0.159 HD
ATOM     48  H   UNL     1       1.702   9.509   9.604  1.00  0.00     0.159 HD
ATOM     49  H   UNL     1       2.875   9.481  10.882  1.00  0.00     0.159 HD
ENDBRANCH  41  42
ENDBRANCH  40  41
ENDBRANCH  39  40
ENDBRANCH  38  39
ENDBRANCH  36  38
ENDBRANCH   5  34
BRANCH   8  50
ATOM     50  O   UNL     1      11.657   9.994  10.181  1.00  0.00    -0.245 OA
BRANCH  50  51
ATOM     51  S   UNL     1      12.886  10.073   9.119  1.00  0.00     0.397 S 
ATOM     52  O   UNL     1      12.537   9.266   7.971  1.00  0.00    -0.169 OA
ATOM     53  O   UNL     1      14.143   9.899   9.816  1.00  0.00    -0.169 OA
BRANCH  51  54
ATOM     54  O   UNL     1      12.802  11.600   8.622  1.00  0.00    -0.264 OA
ATOM     55  H   UNL     1      12.475  12.140   9.370  1.00  0.00     0.236 HD
ENDBRANCH  51  54
ENDBRANCH  50  51
ENDBRANCH   8  50
TORSDOF 19
ENDMDL
MODEL 39
REMARK VINA RESULT:    -6.045     18.962     22.608
REMARK INTER + INTRA:         -15.423
REMARK INTER:                 -11.343
REMARK INTRA:                  -4.080
REMARK UNBOUND:                -3.195
REMARK SMILES CC[C@@H](C)[C@@H](NC(=O)[C@@H](O)Cc1ccc(O)c(Cl)c1)C(=O)N1[C@H](C(=O)NCCCCN=C(N)N)C[C@H]2CC[C@H](OS(=O)(=O)O)C[C@@H]21
REMARK SMILES IDX 22 1 36 2 46 3 35 4 23 5 45 6 37 7 39 8 38 9 20 10 21 11
REMARK SMILES IDX 5 12 6 13 7 14 8 15 9 17 11 18 12 19 17 20 19 21 15 22 14 23
REMARK SMILES IDX 13 24 18 25 16 26 10 28 3 30 4 31 2 32 1 33 24 34 25 35
REMARK SMILES IDX 26 36 27 38 28 39 29 40 30 41 31 42 32 43 33 44 34 45 40 50
REMARK SMILES IDX 41 51 42 52 43 53 44 54
REMARK H PARENT 6 16 16 27 10 29 26 37 33 46 33 47 34 48 34 49 44 55
ROOT
ATOM      1  N   UNL     1       9.475   5.185   6.775  1.00  0.00    -0.326 N 
ATOM      2  C   UNL     1      10.417   4.554   8.838  1.00  0.00     0.014 C 
ATOM      3  C   UNL     1      10.583   5.530   7.670  1.00  0.00     0.091 C 
ATOM      4  C   UNL     1       9.891   3.301   8.155  1.00  0.00     0.041 C 
ATOM      5  C   UNL     1       8.836   3.923   7.222  1.00  0.00     0.175 C 
ATOM      6  C   UNL     1      10.646   6.950   8.232  1.00  0.00     0.059 C 
ATOM      7  C   UNL     1      11.687   4.474   9.662  1.00  0.00     0.008 C 
ATOM      8  C   UNL     1      11.290   7.035   9.633  1.00  0.00     0.143 C 
ATOM      9  C   UNL     1      12.280   5.881   9.887  1.00  0.00     0.034 C 
ENDROOT
BRANCH   1  10
ATOM     10  C   UNL     1       9.126   5.721   5.547  1.00  0.00     0.246 C 
ATOM     11  O   UNL     1      10.017   6.001   4.738  1.00  0.00    -0.272 OA
BRANCH  10  12
ATOM     12  C   UNL     1       7.623   5.918   5.195  1.00  0.00     0.174 C 
BRANCH  12  13
ATOM     13  N   UNL     1       7.349   5.383   3.862  1.00  0.00    -0.342 N 
ATOM     14  C   UNL     1       7.092   4.061   3.578  1.00  0.00     0.249 C 
ATOM     15  O   UNL     1       7.037   3.180   4.427  1.00  0.00    -0.272 OA
ATOM     16  H   UNL     1       7.514   5.963   3.043  1.00  0.00     0.164 HD
BRANCH  14  17
ATOM     17  C   UNL     1       6.858   3.809   2.074  1.00  0.00     0.207 C 
BRANCH  17  18
ATOM     18  C   UNL     1       8.170   3.959   1.296  1.00  0.00     0.077 C 
BRANCH  18  19
ATOM     19  C   UNL     1       8.510   2.705   0.521  1.00  0.00    -0.043 A 
ATOM     20  C   UNL     1       7.814   0.812  -0.827  1.00  0.00     0.083 A 
ATOM     21  C   UNL     1       7.505   1.995  -0.154  1.00  0.00     0.028 A 
ATOM     22  C   UNL     1       9.124   0.332  -0.828  1.00  0.00     0.134 A 
ATOM     23  C   UNL     1      10.129   1.025  -0.164  1.00  0.00     0.048 A 
ATOM     24  C   UNL     1       9.822   2.208   0.512  1.00  0.00     0.008 A 
ATOM     25  Cl  UNL     1       6.566  -0.046  -1.650  1.00  0.00    -0.080 Cl
BRANCH  22  26
ATOM     26  O   UNL     1       9.473  -0.829  -1.464  1.00  0.00    -0.506 OA
ATOM     27  H   UNL     1       8.676  -1.143  -1.931  1.00  0.00     0.293 HD
ENDBRANCH  22  26
ENDBRANCH  18  19
ENDBRANCH  17  18
BRANCH  17  28
ATOM     28  O   UNL     1       5.882   4.719   1.542  1.00  0.00    -0.383 OA
ATOM     29  H   UNL     1       6.348   5.577   1.419  1.00  0.00     0.211 HD
ENDBRANCH  17  28
ENDBRANCH  14  17
ENDBRANCH  12  13
BRANCH  12  30
ATOM     30  C   UNL     1       7.159   7.391   5.350  1.00  0.00     0.018 C 
ATOM     31  C   UNL     1       7.312   7.863   6.804  1.00  0.00     0.010 C 
BRANCH  30  32
ATOM     32  C   UNL     1       5.712   7.642   4.858  1.00  0.00     0.002 C 
ATOM     33  C   UNL     1       5.490   8.964   4.135  1.00  0.00     0.004 C 
ENDBRANCH  30  32
ENDBRANCH  12  30
ENDBRANCH  10  12
ENDBRANCH   1  10
BRANCH   5  34
ATOM     34  C   UNL     1       7.508   4.213   7.971  1.00  0.00     0.242 C 
ATOM     35  O   UNL     1       7.456   4.948   8.957  1.00  0.00    -0.273 OA
ATOM     36  N   UNL     1       6.405   3.546   7.487  1.00  0.00    -0.354 N 
ATOM     37  H   UNL     1       6.533   2.859   6.744  1.00  0.00     0.163 HD
BRANCH  36  38
ATOM     38  C   UNL     1       5.060   3.860   7.923  1.00  0.00     0.116 C 
BRANCH  38  39
ATOM     39  C   UNL     1       4.458   4.931   7.017  1.00  0.00     0.023 C 
BRANCH  39  40
ATOM     40  C   UNL     1       3.525   5.874   7.770  1.00  0.00     0.026 C 
BRANCH  40  41
ATOM     41  C   UNL     1       4.019   6.098   9.199  1.00  0.00     0.146 C 
BRANCH  41  42
ATOM     42  N   UNL     1       4.850   7.294   9.251  1.00  0.00    -0.254 NA
ATOM     43  C   UNL     1       5.703   7.430  10.195  1.00  0.00     0.185 C 
ATOM     44  N   UNL     1       5.996   6.612  11.223  1.00  0.00    -0.370 N 
ATOM     45  N   UNL     1       6.457   8.542  10.228  1.00  0.00    -0.370 N 
ATOM     46  H   UNL     1       6.508   6.952  12.019  1.00  0.00     0.159 HD
ATOM     47  H   UNL     1       5.528   5.720  11.343  1.00  0.00     0.159 HD
ATOM     48  H   UNL     1       6.306   9.208   9.483  1.00  0.00     0.159 HD
ATOM     49  H   UNL     1       7.293   8.616  10.779  1.00  0.00     0.159 HD
ENDBRANCH  41  42
ENDBRANCH  40  41
ENDBRANCH  39  40
ENDBRANCH  38  39
ENDBRANCH  36  38
ENDBRANCH   5  34
BRANCH   8  50
ATOM     50  O   UNL     1      10.279   6.996  10.640  1.00  0.00    -0.245 OA
BRANCH  50  51
ATOM     51  S   UNL     1       9.921   8.347  11.473  1.00  0.00     0.397 S 
ATOM     52  O   UNL     1       9.462   9.343  10.531  1.00  0.00    -0.169 OA
ATOM     53  O   UNL     1      10.980   8.628  12.420  1.00  0.00    -0.169 OA
BRANCH  51  54
ATOM     54  O   UNL     1       8.620   7.895  12.302  1.00  0.00    -0.264 OA
ATOM     55  H   UNL     1       8.062   8.688  12.437  1.00  0.00     0.236 HD
ENDBRANCH  51  54
ENDBRANCH  50  51
ENDBRANCH   8  50
TORSDOF 19
ENDMDL
MODEL 40
REMARK VINA RESULT:    -5.984      3.387      6.389
REMARK INTER + INTRA:         -15.301
REMARK INTER:                 -10.943
REMARK INTRA:                  -4.358
REMARK UNBOUND:                -3.195
REMARK SMILES CC[C@@H](C)[C@@H](NC(=O)[C@@H](O)Cc1ccc(O)c(Cl)c1)C(=O)N1[C@H](C(=O)NCCCCN=C(N)N)C[C@H]2CC[C@H](OS(=O)(=O)O)C[C@@H]21
REMARK SMILES IDX 22 1 36 2 46 3 35 4 23 5 45 6 37 7 39 8 38 9 20 10 21 11
REMARK SMILES IDX 5 12 6 13 7 14 8 15 9 17 11 18 12 19 17 20 19 21 15 22 14 23
REMARK SMILES IDX 13 24 18 25 16 26 10 28 3 30 4 31 2 32 1 33 24 34 25 35
REMARK SMILES IDX 26 36 27 38 28 39 29 40 30 41 31 42 32 43 33 44 34 45 40 50
REMARK SMILES IDX 41 51 42 52 43 53 44 54
REMARK H PARENT 6 16 16 27 10 29 26 37 33 46 33 47 34 48 34 49 44 55
ROOT
ATOM      1  N   UNL     1     -10.589  -5.464   4.354  1.00  0.00    -0.326 N 
ATOM      2  C   UNL     1     -12.256  -5.062   5.967  1.00  0.00     0.014 C 
ATOM      3  C   UNL     1     -10.778  -5.430   5.807  1.00  0.00     0.091 C 
ATOM      4  C   UNL     1     -12.904  -5.757   4.779  1.00  0.00     0.041 C 
ATOM      5  C   UNL     1     -11.903  -5.389   3.669  1.00  0.00     0.175 C 
ATOM      6  C   UNL     1      -9.944  -4.444   6.624  1.00  0.00     0.059 C 
ATOM      7  C   UNL     1     -12.744  -5.374   7.368  1.00  0.00     0.008 C 
ATOM      8  C   UNL     1     -10.657  -3.929   7.893  1.00  0.00     0.143 C 
ATOM      9  C   UNL     1     -11.703  -4.933   8.418  1.00  0.00     0.034 C 
ENDROOT
BRANCH   1  10
ATOM     10  C   UNL     1      -9.457  -5.759   3.613  1.00  0.00     0.246 C 
ATOM     11  O   UNL     1      -9.430  -6.799   2.946  1.00  0.00    -0.272 OA
BRANCH  10  12
ATOM     12  C   UNL     1      -8.265  -4.759   3.603  1.00  0.00     0.174 C 
BRANCH  12  13
ATOM     13  N   UNL     1      -8.613  -3.577   2.816  1.00  0.00    -0.342 N 
ATOM     14  C   UNL     1      -8.826  -2.319   3.334  1.00  0.00     0.249 C 
ATOM     15  O   UNL     1      -8.720  -2.043   4.522  1.00  0.00    -0.272 OA
ATOM     16  H   UNL     1      -8.888  -3.682   1.843  1.00  0.00     0.164 HD
BRANCH  14  17
ATOM     17  C   UNL     1      -9.196  -1.284   2.249  1.00  0.00     0.207 C 
BRANCH  17  18
ATOM     18  C   UNL     1      -8.073  -0.254   2.088  1.00  0.00     0.077 C 
BRANCH  18  19
ATOM     19  C   UNL     1      -6.715  -0.912   1.997  1.00  0.00    -0.043 A 
ATOM     20  C   UNL     1      -4.527  -1.359   2.945  1.00  0.00     0.083 A 
ATOM     21  C   UNL     1      -5.798  -0.792   3.053  1.00  0.00     0.028 A 
ATOM     22  C   UNL     1      -4.165  -2.046   1.786  1.00  0.00     0.134 A 
ATOM     23  C   UNL     1      -5.064  -2.172   0.733  1.00  0.00     0.048 A 
ATOM     24  C   UNL     1      -6.335  -1.604   0.837  1.00  0.00     0.008 A 
ATOM     25  Cl  UNL     1      -3.414  -1.201   4.253  1.00  0.00    -0.080 Cl
BRANCH  22  26
ATOM     26  O   UNL     1      -2.927  -2.609   1.630  1.00  0.00    -0.506 OA
ATOM     27  H   UNL     1      -2.346  -1.913   1.272  1.00  0.00     0.293 HD
ENDBRANCH  22  26
ENDBRANCH  18  19
ENDBRANCH  17  18
BRANCH  17  28
ATOM     28  O   UNL     1     -10.420  -0.607   2.576  1.00  0.00    -0.383 OA
ATOM     29  H   UNL     1     -10.422   0.222   2.046  1.00  0.00     0.211 HD
ENDBRANCH  17  28
ENDBRANCH  14  17
ENDBRANCH  12  13
BRANCH  12  30
ATOM     30  C   UNL     1      -6.937  -5.414   3.133  1.00  0.00     0.018 C 
ATOM     31  C   UNL     1      -5.736  -4.806   3.874  1.00  0.00     0.010 C 
BRANCH  30  32
ATOM     32  C   UNL     1      -6.713  -5.335   1.603  1.00  0.00     0.002 C 
ATOM     33  C   UNL     1      -5.917  -6.487   1.002  1.00  0.00     0.004 C 
ENDBRANCH  30  32
ENDBRANCH  12  30
ENDBRANCH  10  12
ENDBRANCH   1  10
BRANCH   5  34
ATOM     34  C   UNL     1     -12.156  -3.960   3.120  1.00  0.00     0.242 C 
ATOM     35  O   UNL     1     -12.176  -2.969   3.849  1.00  0.00    -0.273 OA
ATOM     36  N   UNL     1     -12.410  -3.888   1.768  1.00  0.00    -0.354 N 
ATOM     37  H   UNL     1     -12.499  -4.756   1.238  1.00  0.00     0.163 HD
BRANCH  36  38
ATOM     38  C   UNL     1     -12.454  -2.628   1.056  1.00  0.00     0.116 C 
BRANCH  38  39
ATOM     39  C   UNL     1     -12.318  -2.877  -0.445  1.00  0.00     0.023 C 
BRANCH  39  40
ATOM     40  C   UNL     1     -11.194  -3.853  -0.774  1.00  0.00     0.026 C 
BRANCH  40  41
ATOM     41  C   UNL     1     -11.744  -5.099  -1.468  1.00  0.00     0.146 C 
BRANCH  41  42
ATOM     42  N   UNL     1     -12.195  -6.060  -0.469  1.00  0.00    -0.254 NA
ATOM     43  C   UNL     1     -11.349  -6.855   0.071  1.00  0.00     0.185 C 
ATOM     44  N   UNL     1     -10.024  -6.974  -0.129  1.00  0.00    -0.370 N 
ATOM     45  N   UNL     1     -11.785  -7.737   0.985  1.00  0.00    -0.370 N 
ATOM     46  H   UNL     1      -9.531  -7.796   0.178  1.00  0.00     0.159 HD
ATOM     47  H   UNL     1      -9.526  -6.374  -0.779  1.00  0.00     0.159 HD
ATOM     48  H   UNL     1     -12.772  -7.708   1.201  1.00  0.00     0.159 HD
ATOM     49  H   UNL     1     -11.167  -8.218   1.615  1.00  0.00     0.159 HD
ENDBRANCH  41  42
ENDBRANCH  40  41
ENDBRANCH  39  40
ENDBRANCH  38  39
ENDBRANCH  36  38
ENDBRANCH   5  34
BRANCH   8  50
ATOM     50  O   UNL     1     -11.315  -2.692   7.617  1.00  0.00    -0.245 OA
BRANCH  50  51
ATOM     51  S   UNL     1     -11.121  -1.436   8.633  1.00  0.00     0.397 S 
ATOM     52  O   UNL     1      -9.703  -1.230   8.822  1.00  0.00    -0.169 OA
ATOM     53  O   UNL     1     -12.025  -1.575   9.755  1.00  0.00    -0.169 OA
BRANCH  51  54
ATOM     54  O   UNL     1     -11.628  -0.200   7.738  1.00  0.00    -0.264 OA
ATOM     55  H   UNL     1     -11.177  -0.255   6.870  1.00  0.00     0.236 HD
ENDBRANCH  51  54
ENDBRANCH  50  51
ENDBRANCH   8  50
TORSDOF 19
ENDMDL
MODEL 41
REMARK VINA RESULT:    -5.976     18.441     21.339
REMARK INTER + INTRA:         -15.284
REMARK INTER:                 -11.420
REMARK INTRA:                  -3.864
REMARK UNBOUND:                -3.195
REMARK SMILES CC[C@@H](C)[C@@H](NC(=O)[C@@H](O)Cc1ccc(O)c(Cl)c1)C(=O)N1[C@H](C(=O)NCCCCN=C(N)N)C[C@H]2CC[C@H](OS(=O)(=O)O)C[C@@H]21
REMARK SMILES IDX 22 1 36 2 46 3 35 4 23 5 45 6 37 7 39 8 38 9 20 10 21 11
REMARK SMILES IDX 5 12 6 13 7 14 8 15 9 17 11 18 12 19 17 20 19 21 15 22 14 23
REMARK SMILES IDX 13 24 18 25 16 26 10 28 3 30 4 31 2 32 1 33 24 34 25 35
REMARK SMILES IDX 26 36 27 38 28 39 29 40 30 41 31 42 32 43 33 44 34 45 40 50
REMARK SMILES IDX 41 51 42 52 43 53 44 54
REMARK H PARENT 6 16 16 27 10 29 26 37 33 46 33 47 34 48 34 49 44 55
ROOT
ATOM      1  N   UNL     1       4.856   3.850   9.155  1.00  0.00    -0.326 N 
ATOM      2  C   UNL     1       3.926   5.919   8.526  1.00  0.00     0.014 C 
ATOM      3  C   UNL     1       4.332   5.085   9.745  1.00  0.00     0.091 C 
ATOM      4  C   UNL     1       3.439   4.863   7.545  1.00  0.00     0.041 C 
ATOM      5  C   UNL     1       4.551   3.810   7.704  1.00  0.00     0.175 C 
ATOM      6  C   UNL     1       5.265   5.925  10.615  1.00  0.00     0.059 C 
ATOM      7  C   UNL     1       2.997   7.048   8.926  1.00  0.00     0.008 C 
ATOM      8  C   UNL     1       4.968   7.439  10.564  1.00  0.00     0.143 C 
ATOM      9  C   UNL     1       3.493   7.728  10.219  1.00  0.00     0.034 C 
ENDROOT
BRANCH   1  10
ATOM     10  C   UNL     1       5.355   2.714   9.771  1.00  0.00     0.246 C 
ATOM     11  O   UNL     1       4.565   1.857  10.182  1.00  0.00    -0.272 OA
BRANCH  10  12
ATOM     12  C   UNL     1       6.894   2.522   9.894  1.00  0.00     0.174 C 
BRANCH  12  13
ATOM     13  N   UNL     1       7.248   1.133   9.601  1.00  0.00    -0.342 N 
ATOM     14  C   UNL     1       7.718   0.677   8.390  1.00  0.00     0.249 C 
ATOM     15  O   UNL     1       7.920   1.398   7.421  1.00  0.00    -0.272 OA
ATOM     16  H   UNL     1       6.986   0.398  10.253  1.00  0.00     0.164 HD
BRANCH  14  17
ATOM     17  C   UNL     1       7.984  -0.844   8.389  1.00  0.00     0.207 C 
BRANCH  17  18
ATOM     18  C   UNL     1       9.489  -1.124   8.450  1.00  0.00     0.077 C 
BRANCH  18  19
ATOM     19  C   UNL     1      10.026  -1.010   9.859  1.00  0.00    -0.043 A 
ATOM     20  C   UNL     1      11.575  -0.026  11.445  1.00  0.00     0.083 A 
ATOM     21  C   UNL     1      11.048  -0.094  10.155  1.00  0.00     0.028 A 
ATOM     22  C   UNL     1      11.088  -0.869  12.444  1.00  0.00     0.134 A 
ATOM     23  C   UNL     1      10.076  -1.781  12.164  1.00  0.00     0.048 A 
ATOM     24  C   UNL     1       9.548  -1.853  10.874  1.00  0.00     0.008 A 
ATOM     25  Cl  UNL     1      12.830   1.105  11.790  1.00  0.00    -0.080 Cl
BRANCH  22  26
ATOM     26  O   UNL     1      11.581  -0.846  13.721  1.00  0.00    -0.506 OA
ATOM     27  H   UNL     1      12.082  -0.015  13.813  1.00  0.00     0.293 HD
ENDBRANCH  22  26
ENDBRANCH  18  19
ENDBRANCH  17  18
BRANCH  17  28
ATOM     28  O   UNL     1       7.430  -1.466   7.219  1.00  0.00    -0.383 OA
ATOM     29  H   UNL     1       8.086  -2.142   6.933  1.00  0.00     0.211 HD
ENDBRANCH  17  28
ENDBRANCH  14  17
ENDBRANCH  12  13
BRANCH  12  30
ATOM     30  C   UNL     1       7.451   2.998  11.263  1.00  0.00     0.018 C 
ATOM     31  C   UNL     1       8.413   4.182  11.079  1.00  0.00     0.010 C 
BRANCH  30  32
ATOM     32  C   UNL     1       8.138   1.876  12.079  1.00  0.00     0.002 C 
ATOM     33  C   UNL     1       9.244   2.339  13.019  1.00  0.00     0.004 C 
ENDBRANCH  30  32
ENDBRANCH  12  30
ENDBRANCH  10  12
ENDBRANCH   1  10
BRANCH   5  34
ATOM     34  C   UNL     1       5.807   4.174   6.867  1.00  0.00     0.242 C 
ATOM     35  O   UNL     1       6.811   4.675   7.373  1.00  0.00    -0.273 OA
ATOM     36  N   UNL     1       5.695   3.947   5.514  1.00  0.00    -0.354 N 
ATOM     37  H   UNL     1       4.796   3.643   5.139  1.00  0.00     0.163 HD
BRANCH  36  38
ATOM     38  C   UNL     1       6.832   4.024   4.621  1.00  0.00     0.116 C 
BRANCH  38  39
ATOM     39  C   UNL     1       6.708   5.258   3.729  1.00  0.00     0.023 C 
BRANCH  39  40
ATOM     40  C   UNL     1       7.734   6.332   4.074  1.00  0.00     0.026 C 
BRANCH  40  41
ATOM     41  C   UNL     1       7.199   7.264   5.160  1.00  0.00     0.146 C 
BRANCH  41  42
ATOM     42  N   UNL     1       5.766   7.456   4.982  1.00  0.00    -0.254 NA
ATOM     43  C   UNL     1       5.332   8.538   4.453  1.00  0.00     0.185 C 
ATOM     44  N   UNL     1       6.007   9.609   3.996  1.00  0.00    -0.370 N 
ATOM     45  N   UNL     1       4.007   8.697   4.302  1.00  0.00    -0.370 N 
ATOM     46  H   UNL     1       5.535  10.481   3.834  1.00  0.00     0.159 HD
ATOM     47  H   UNL     1       7.021   9.650   4.021  1.00  0.00     0.159 HD
ATOM     48  H   UNL     1       3.425   7.931   4.613  1.00  0.00     0.159 HD
ATOM     49  H   UNL     1       3.608   9.390   3.695  1.00  0.00     0.159 HD
ENDBRANCH  41  42
ENDBRANCH  40  41
ENDBRANCH  39  40
ENDBRANCH  38  39
ENDBRANCH  36  38
ENDBRANCH   5  34
BRANCH   8  50
ATOM     50  O   UNL     1       5.794   8.068   9.584  1.00  0.00    -0.245 OA
BRANCH  50  51
ATOM     51  S   UNL     1       7.378   8.280   9.886  1.00  0.00     0.397 S 
ATOM     52  O   UNL     1       8.118   7.358   9.053  1.00  0.00    -0.169 OA
ATOM     53  O   UNL     1       7.595   8.354  11.316  1.00  0.00    -0.169 OA
BRANCH  51  54
ATOM     54  O   UNL     1       7.646   9.740   9.267  1.00  0.00    -0.264 OA
ATOM     55  H   UNL     1       7.043  10.368   9.715  1.00  0.00     0.236 HD
ENDBRANCH  51  54
ENDBRANCH  50  51
ENDBRANCH   8  50
TORSDOF 19
ENDMDL
MODEL 42
REMARK VINA RESULT:    -5.961      3.383      8.278
REMARK INTER + INTRA:         -15.254
REMARK INTER:                 -11.412
REMARK INTRA:                  -3.842
REMARK UNBOUND:                -3.195
REMARK SMILES CC[C@@H](C)[C@@H](NC(=O)[C@@H](O)Cc1ccc(O)c(Cl)c1)C(=O)N1[C@H](C(=O)NCCCCN=C(N)N)C[C@H]2CC[C@H](OS(=O)(=O)O)C[C@@H]21
REMARK SMILES IDX 22 1 36 2 46 3 35 4 23 5 45 6 37 7 39 8 38 9 20 10 21 11
REMARK SMILES IDX 5 12 6 13 7 14 8 15 9 17 11 18 12 19 17 20 19 21 15 22 14 23
REMARK SMILES IDX 13 24 18 25 16 26 10 28 3 30 4 31 2 32 1 33 24 34 25 35
REMARK SMILES IDX 26 36 27 38 28 39 29 40 30 41 31 42 32 43 33 44 34 45 40 50
REMARK SMILES IDX 41 51 42 52 43 53 44 54
REMARK H PARENT 6 16 16 27 10 29 26 37 33 46 33 47 34 48 34 49 44 55
ROOT
ATOM      1  N   UNL     1     -11.218  -4.468   2.717  1.00  0.00    -0.326 N 
ATOM      2  C   UNL     1      -9.530  -5.416   4.057  1.00  0.00     0.014 C 
ATOM      3  C   UNL     1      -9.759  -4.503   2.849  1.00  0.00     0.091 C 
ATOM      4  C   UNL     1     -10.657  -6.429   3.928  1.00  0.00     0.041 C 
ATOM      5  C   UNL     1     -11.832  -5.490   3.600  1.00  0.00     0.175 C 
ATOM      6  C   UNL     1      -9.022  -3.186   3.093  1.00  0.00     0.059 C 
ATOM      7  C   UNL     1      -8.095  -5.902   4.105  1.00  0.00     0.008 C 
ATOM      8  C   UNL     1      -7.734  -3.341   3.929  1.00  0.00     0.143 C 
ATOM      9  C   UNL     1      -7.119  -4.749   3.791  1.00  0.00     0.034 C 
ENDROOT
BRANCH   1  10
ATOM     10  C   UNL     1     -12.010  -3.817   1.787  1.00  0.00     0.246 C 
ATOM     11  O   UNL     1     -12.700  -2.859   2.150  1.00  0.00    -0.272 OA
BRANCH  10  12
ATOM     12  C   UNL     1     -11.982  -4.276   0.300  1.00  0.00     0.174 C 
BRANCH  12  13
ATOM     13  N   UNL     1     -11.636  -5.694   0.222  1.00  0.00    -0.342 N 
ATOM     14  C   UNL     1     -12.234  -6.609  -0.616  1.00  0.00     0.249 C 
ATOM     15  O   UNL     1     -13.114  -6.324  -1.419  1.00  0.00    -0.272 OA
ATOM     16  H   UNL     1     -11.037  -6.107   0.933  1.00  0.00     0.164 HD
BRANCH  14  17
ATOM     17  C   UNL     1     -11.661  -8.032  -0.450  1.00  0.00     0.207 C 
BRANCH  17  18
ATOM     18  C   UNL     1     -11.053  -8.206   0.945  1.00  0.00     0.077 C 
BRANCH  18  19
ATOM     19  C   UNL     1      -9.570  -8.496   0.880  1.00  0.00    -0.043 A 
ATOM     20  C   UNL     1      -7.734 -10.081   0.923  1.00  0.00     0.083 A 
ATOM     21  C   UNL     1      -9.105  -9.820   0.934  1.00  0.00     0.028 A 
ATOM     22  C   UNL     1      -6.822  -9.027   0.861  1.00  0.00     0.134 A 
ATOM     23  C   UNL     1      -7.270  -7.712   0.808  1.00  0.00     0.048 A 
ATOM     24  C   UNL     1      -8.641  -7.446   0.820  1.00  0.00     0.008 A 
ATOM     25  Cl  UNL     1      -7.181 -11.713   0.990  1.00  0.00    -0.080 Cl
BRANCH  22  26
ATOM     26  O   UNL     1      -5.469  -9.233   0.859  1.00  0.00    -0.506 OA
ATOM     27  H   UNL     1      -5.185  -9.216  -0.073  1.00  0.00     0.293 HD
ENDBRANCH  22  26
ENDBRANCH  18  19
ENDBRANCH  17  18
BRANCH  17  28
ATOM     28  O   UNL     1     -10.659  -8.305  -1.444  1.00  0.00    -0.383 OA
ATOM     29  H   UNL     1     -11.140  -8.394  -2.298  1.00  0.00     0.211 HD
ENDBRANCH  17  28
ENDBRANCH  14  17
ENDBRANCH  12  13
BRANCH  12  30
ATOM     30  C   UNL     1     -11.060  -3.392  -0.583  1.00  0.00     0.018 C 
ATOM     31  C   UNL     1     -11.801  -2.919  -1.844  1.00  0.00     0.010 C 
BRANCH  30  32
ATOM     32  C   UNL     1      -9.730  -4.080  -0.975  1.00  0.00     0.002 C 
ATOM     33  C   UNL     1      -8.466  -3.355  -0.530  1.00  0.00     0.004 C 
ENDBRANCH  30  32
ENDBRANCH  12  30
ENDBRANCH  10  12
ENDBRANCH   1  10
BRANCH   5  34
ATOM     34  C   UNL     1     -12.413  -4.833   4.881  1.00  0.00     0.242 C 
ATOM     35  O   UNL     1     -13.084  -3.801   4.844  1.00  0.00    -0.273 OA
ATOM     36  N   UNL     1     -12.079  -5.455   6.062  1.00  0.00    -0.354 N 
ATOM     37  H   UNL     1     -11.422  -6.236   6.037  1.00  0.00     0.163 HD
BRANCH  36  38
ATOM     38  C   UNL     1     -12.703  -5.110   7.322  1.00  0.00     0.116 C 
BRANCH  38  39
ATOM     39  C   UNL     1     -11.673  -4.480   8.256  1.00  0.00     0.023 C 
BRANCH  39  40
ATOM     40  C   UNL     1     -12.316  -3.618   9.338  1.00  0.00     0.026 C 
BRANCH  40  41
ATOM     41  C   UNL     1     -11.343  -2.544   9.825  1.00  0.00     0.146 C 
BRANCH  41  42
ATOM     42  N   UNL     1     -10.918  -1.719   8.702  1.00  0.00    -0.254 NA
ATOM     43  C   UNL     1     -10.779  -0.456   8.862  1.00  0.00     0.185 C 
ATOM     44  N   UNL     1     -10.964   0.303   9.957  1.00  0.00    -0.370 N 
ATOM     45  N   UNL     1     -10.391   0.288   7.813  1.00  0.00    -0.370 N 
ATOM     46  H   UNL     1     -11.056   1.302   9.879  1.00  0.00     0.159 HD
ATOM     47  H   UNL     1     -11.246  -0.101  10.844  1.00  0.00     0.159 HD
ATOM     48  H   UNL     1     -10.220  -0.209   6.949  1.00  0.00     0.159 HD
ATOM     49  H   UNL     1     -10.035   1.222   7.911  1.00  0.00     0.159 HD
ENDBRANCH  41  42
ENDBRANCH  40  41
ENDBRANCH  39  40
ENDBRANCH  38  39
ENDBRANCH  36  38
ENDBRANCH   5  34
BRANCH   8  50
ATOM     50  O   UNL     1      -8.013  -3.101   5.309  1.00  0.00    -0.245 OA
BRANCH  50  51
ATOM     51  S   UNL     1      -7.783  -1.615   5.928  1.00  0.00     0.397 S 
ATOM     52  O   UNL     1      -8.885  -0.780   5.506  1.00  0.00    -0.169 OA
ATOM     53  O   UNL     1      -6.405  -1.213   5.729  1.00  0.00    -0.169 OA
BRANCH  51  54
ATOM     54  O   UNL     1      -8.003  -1.869   7.500  1.00  0.00    -0.264 OA
ATOM     55  H   UNL     1      -7.529  -2.692   7.739  1.00  0.00     0.236 HD
ENDBRANCH  51  54
ENDBRANCH  50  51
ENDBRANCH   8  50
TORSDOF 19
ENDMDL
MODEL 43
REMARK VINA RESULT:    -5.930     17.682     20.768
REMARK INTER + INTRA:         -15.192
REMARK INTER:                  -9.804
REMARK INTRA:                  -5.388
REMARK UNBOUND:                -3.195
REMARK SMILES CC[C@@H](C)[C@@H](NC(=O)[C@@H](O)Cc1ccc(O)c(Cl)c1)C(=O)N1[C@H](C(=O)NCCCCN=C(N)N)C[C@H]2CC[C@H](OS(=O)(=O)O)C[C@@H]21
REMARK SMILES IDX 22 1 36 2 46 3 35 4 23 5 45 6 37 7 39 8 38 9 20 10 21 11
REMARK SMILES IDX 5 12 6 13 7 14 8 15 9 17 11 18 12 19 17 20 19 21 15 22 14 23
REMARK SMILES IDX 13 24 18 25 16 26 10 28 3 30 4 31 2 32 1 33 24 34 25 35
REMARK SMILES IDX 26 36 27 38 28 39 29 40 30 41 31 42 32 43 33 44 34 45 40 50
REMARK SMILES IDX 41 51 42 52 43 53 44 54
REMARK H PARENT 6 16 16 27 10 29 26 37 33 46 33 47 34 48 34 49 44 55
ROOT
ATOM      1  N   UNL     1       6.619   3.045   7.216  1.00  0.00    -0.326 N 
ATOM      2  C   UNL     1       4.439   3.911   7.018  1.00  0.00     0.014 C 
ATOM      3  C   UNL     1       5.780   4.135   7.722  1.00  0.00     0.091 C 
ATOM      4  C   UNL     1       4.356   2.394   6.931  1.00  0.00     0.041 C 
ATOM      5  C   UNL     1       5.788   2.069   6.469  1.00  0.00     0.175 C 
ATOM      6  C   UNL     1       6.226   5.573   7.464  1.00  0.00     0.059 C 
ATOM      7  C   UNL     1       3.328   4.678   7.708  1.00  0.00     0.008 C 
ATOM      8  C   UNL     1       5.056   6.571   7.320  1.00  0.00     0.143 C 
ATOM      9  C   UNL     1       3.798   6.101   8.077  1.00  0.00     0.034 C 
ENDROOT
BRANCH   1  10
ATOM     10  C   UNL     1       7.933   2.725   7.515  1.00  0.00     0.246 C 
ATOM     11  O   UNL     1       8.181   1.634   8.039  1.00  0.00    -0.272 OA
BRANCH  10  12
ATOM     12  C   UNL     1       9.069   3.723   7.147  1.00  0.00     0.174 C 
BRANCH  12  13
ATOM     13  N   UNL     1       8.952   4.115   5.743  1.00  0.00    -0.342 N 
ATOM     14  C   UNL     1       9.173   5.384   5.256  1.00  0.00     0.249 C 
ATOM     15  O   UNL     1       9.522   6.330   5.952  1.00  0.00    -0.272 OA
ATOM     16  H   UNL     1       8.521   3.480   5.076  1.00  0.00     0.164 HD
BRANCH  14  17
ATOM     17  C   UNL     1       8.952   5.484   3.732  1.00  0.00     0.207 C 
BRANCH  17  18
ATOM     18  C   UNL     1       9.901   4.537   2.990  1.00  0.00     0.077 C 
BRANCH  18  19
ATOM     19  C   UNL     1       9.183   3.751   1.916  1.00  0.00    -0.043 A 
ATOM     20  C   UNL     1       9.155   1.946   0.296  1.00  0.00     0.083 A 
ATOM     21  C   UNL     1       9.799   2.639   1.322  1.00  0.00     0.028 A 
ATOM     22  C   UNL     1       7.896   2.359  -0.142  1.00  0.00     0.134 A 
ATOM     23  C   UNL     1       7.275   3.458   0.437  1.00  0.00     0.048 A 
ATOM     24  C   UNL     1       7.918   4.155   1.463  1.00  0.00     0.008 A 
ATOM     25  Cl  UNL     1       9.928   0.582  -0.422  1.00  0.00    -0.080 Cl
BRANCH  22  26
ATOM     26  O   UNL     1       7.230   1.717  -1.152  1.00  0.00    -0.506 OA
ATOM     27  H   UNL     1       6.300   2.006  -1.102  1.00  0.00     0.293 HD
ENDBRANCH  22  26
ENDBRANCH  18  19
ENDBRANCH  17  18
BRANCH  17  28
ATOM     28  O   UNL     1       9.160   6.828   3.266  1.00  0.00    -0.383 OA
ATOM     29  H   UNL     1       9.402   6.751   2.315  1.00  0.00     0.211 HD
ENDBRANCH  17  28
ENDBRANCH  14  17
ENDBRANCH  12  13
BRANCH  12  30
ATOM     30  C   UNL     1      10.481   3.179   7.495  1.00  0.00     0.018 C 
ATOM     31  C   UNL     1      11.328   4.261   8.183  1.00  0.00     0.010 C 
BRANCH  30  32
ATOM     32  C   UNL     1      11.242   2.602   6.277  1.00  0.00     0.002 C 
ATOM     33  C   UNL     1      12.744   2.435   6.467  1.00  0.00     0.004 C 
ENDBRANCH  30  32
ENDBRANCH  12  30
ENDBRANCH  10  12
ENDBRANCH   1  10
BRANCH   5  34
ATOM     34  C   UNL     1       5.954   2.264   4.938  1.00  0.00     0.242 C 
ATOM     35  O   UNL     1       6.444   3.284   4.454  1.00  0.00    -0.273 OA
ATOM     36  N   UNL     1       5.464   1.238   4.161  1.00  0.00    -0.354 N 
ATOM     37  H   UNL     1       4.961   0.475   4.615  1.00  0.00     0.163 HD
BRANCH  36  38
ATOM     38  C   UNL     1       5.725   1.153   2.739  1.00  0.00     0.116 C 
BRANCH  38  39
ATOM     39  C   UNL     1       6.438  -0.159   2.421  1.00  0.00     0.023 C 
BRANCH  39  40
ATOM     40  C   UNL     1       7.877  -0.177   2.925  1.00  0.00     0.026 C 
BRANCH  40  41
ATOM     41  C   UNL     1       8.140  -1.424   3.768  1.00  0.00     0.146 C 
BRANCH  41  42
ATOM     42  N   UNL     1       7.285  -1.411   4.948  1.00  0.00    -0.254 NA
ATOM     43  C   UNL     1       7.784  -1.112   6.088  1.00  0.00     0.185 C 
ATOM     44  N   UNL     1       9.045  -0.783   6.422  1.00  0.00    -0.370 N 
ATOM     45  N   UNL     1       6.980  -1.110   7.164  1.00  0.00    -0.370 N 
ATOM     46  H   UNL     1       9.347  -0.813   7.381  1.00  0.00     0.159 HD
ATOM     47  H   UNL     1       9.782  -0.723   5.726  1.00  0.00     0.159 HD
ATOM     48  H   UNL     1       6.009  -1.339   6.998  1.00  0.00     0.159 HD
ATOM     49  H   UNL     1       7.230  -0.666   8.029  1.00  0.00     0.159 HD
ENDBRANCH  41  42
ENDBRANCH  40  41
ENDBRANCH  39  40
ENDBRANCH  38  39
ENDBRANCH  36  38
ENDBRANCH   5  34
BRANCH   8  50
ATOM     50  O   UNL     1       4.721   6.738   5.942  1.00  0.00    -0.245 OA
BRANCH  50  51
ATOM     51  S   UNL     1       5.613   7.731   5.013  1.00  0.00     0.397 S 
ATOM     52  O   UNL     1       6.176   6.948   3.936  1.00  0.00    -0.169 OA
ATOM     53  O   UNL     1       6.439   8.572   5.854  1.00  0.00    -0.169 OA
BRANCH  51  54
ATOM     54  O   UNL     1       4.487   8.659   4.337  1.00  0.00    -0.264 OA
ATOM     55  H   UNL     1       3.917   8.084   3.786  1.00  0.00     0.236 HD
ENDBRANCH  51  54
ENDBRANCH  50  51
ENDBRANCH   8  50
TORSDOF 19
ENDMDL
MODEL 44
REMARK VINA RESULT:    -5.918     18.544     21.730
REMARK INTER + INTRA:         -15.167
REMARK INTER:                 -10.822
REMARK INTRA:                  -4.345
REMARK UNBOUND:                -3.195
REMARK SMILES CC[C@@H](C)[C@@H](NC(=O)[C@@H](O)Cc1ccc(O)c(Cl)c1)C(=O)N1[C@H](C(=O)NCCCCN=C(N)N)C[C@H]2CC[C@H](OS(=O)(=O)O)C[C@@H]21
REMARK SMILES IDX 22 1 36 2 46 3 35 4 23 5 45 6 37 7 39 8 38 9 20 10 21 11
REMARK SMILES IDX 5 12 6 13 7 14 8 15 9 17 11 18 12 19 17 20 19 21 15 22 14 23
REMARK SMILES IDX 13 24 18 25 16 26 10 28 3 30 4 31 2 32 1 33 24 34 25 35
REMARK SMILES IDX 26 36 27 38 28 39 29 40 30 41 31 42 32 43 33 44 34 45 40 50
REMARK SMILES IDX 41 51 42 52 43 53 44 54
REMARK H PARENT 6 16 16 27 10 29 26 37 33 46 33 47 34 48 34 49 44 55
ROOT
ATOM      1  N   UNL     1       7.800   4.665   6.276  1.00  0.00    -0.326 N 
ATOM      2  C   UNL     1       7.360   6.970   6.466  1.00  0.00     0.014 C 
ATOM      3  C   UNL     1       6.901   5.696   5.750  1.00  0.00     0.091 C 
ATOM      4  C   UNL     1       8.862   6.763   6.588  1.00  0.00     0.041 C 
ATOM      5  C   UNL     1       8.898   5.295   7.050  1.00  0.00     0.175 C 
ATOM      6  C   UNL     1       5.399   5.531   5.973  1.00  0.00     0.059 C 
ATOM      7  C   UNL     1       6.834   8.206   5.764  1.00  0.00     0.008 C 
ATOM      8  C   UNL     1       4.639   6.869   6.099  1.00  0.00     0.143 C 
ATOM      9  C   UNL     1       5.357   8.015   5.359  1.00  0.00     0.034 C 
ENDROOT
BRANCH   1  10
ATOM     10  C   UNL     1       7.873   3.315   5.979  1.00  0.00     0.246 C 
ATOM     11  O   UNL     1       7.205   2.515   6.644  1.00  0.00    -0.272 OA
BRANCH  10  12
ATOM     12  C   UNL     1       8.756   2.838   4.790  1.00  0.00     0.174 C 
BRANCH  12  13
ATOM     13  N   UNL     1       7.978   2.854   3.552  1.00  0.00    -0.342 N 
ATOM     14  C   UNL     1       7.959   3.890   2.644  1.00  0.00     0.249 C 
ATOM     15  O   UNL     1       8.622   4.912   2.762  1.00  0.00    -0.272 OA
ATOM     16  H   UNL     1       7.263   2.147   3.397  1.00  0.00     0.164 HD
BRANCH  14  17
ATOM     17  C   UNL     1       7.025   3.614   1.446  1.00  0.00     0.207 C 
BRANCH  17  18
ATOM     18  C   UNL     1       7.828   3.097   0.249  1.00  0.00     0.077 C 
BRANCH  18  19
ATOM     19  C   UNL     1       7.941   1.589   0.257  1.00  0.00    -0.043 A 
ATOM     20  C   UNL     1       7.049  -0.583   0.864  1.00  0.00     0.083 A 
ATOM     21  C   UNL     1       6.919   0.805   0.813  1.00  0.00     0.028 A 
ATOM     22  C   UNL     1       8.198  -1.195   0.362  1.00  0.00     0.134 A 
ATOM     23  C   UNL     1       9.218  -0.431  -0.192  1.00  0.00     0.048 A 
ATOM     24  C   UNL     1       9.092   0.959  -0.243  1.00  0.00     0.008 A 
ATOM     25  Cl  UNL     1       5.782  -1.530   1.552  1.00  0.00    -0.080 Cl
BRANCH  22  26
ATOM     26  O   UNL     1       8.375  -2.552   0.399  1.00  0.00    -0.506 OA
ATOM     27  H   UNL     1       7.719  -2.937  -0.211  1.00  0.00     0.293 HD
ENDBRANCH  22  26
ENDBRANCH  18  19
ENDBRANCH  17  18
BRANCH  17  28
ATOM     28  O   UNL     1       6.310   4.800   1.065  1.00  0.00    -0.383 OA
ATOM     29  H   UNL     1       6.444   5.446   1.795  1.00  0.00     0.211 HD
ENDBRANCH  17  28
ENDBRANCH  14  17
ENDBRANCH  12  13
BRANCH  12  30
ATOM     30  C   UNL     1       9.423   1.460   5.052  1.00  0.00     0.018 C 
ATOM     31  C   UNL     1      10.839   1.638   5.622  1.00  0.00     0.010 C 
BRANCH  30  32
ATOM     32  C   UNL     1       9.461   0.541   3.807  1.00  0.00     0.002 C 
ATOM     33  C   UNL     1      10.802   0.476   3.088  1.00  0.00     0.004 C 
ENDBRANCH  30  32
ENDBRANCH  12  30
ENDBRANCH  10  12
ENDBRANCH   1  10
BRANCH   5  34
ATOM     34  C   UNL     1       8.640   5.168   8.575  1.00  0.00     0.242 C 
ATOM     35  O   UNL     1       7.512   5.004   9.040  1.00  0.00    -0.273 OA
ATOM     36  N   UNL     1       9.754   5.308   9.372  1.00  0.00    -0.354 N 
ATOM     37  H   UNL     1      10.641   5.562   8.935  1.00  0.00     0.163 HD
BRANCH  36  38
ATOM     38  C   UNL     1       9.735   5.007  10.788  1.00  0.00     0.116 C 
BRANCH  38  39
ATOM     39  C   UNL     1      10.007   6.277  11.591  1.00  0.00     0.023 C 
BRANCH  39  40
ATOM     40  C   UNL     1       9.929   7.536  10.735  1.00  0.00     0.026 C 
BRANCH  40  41
ATOM     41  C   UNL     1       8.741   8.403  11.153  1.00  0.00     0.146 C 
BRANCH  41  42
ATOM     42  N   UNL     1       7.623   7.553  11.541  1.00  0.00    -0.254 NA
ATOM     43  C   UNL     1       6.576   7.511  10.806  1.00  0.00     0.185 C 
ATOM     44  N   UNL     1       6.298   8.153   9.657  1.00  0.00    -0.370 N 
ATOM     45  N   UNL     1       5.554   6.724  11.184  1.00  0.00    -0.370 N 
ATOM     46  H   UNL     1       5.352   8.216   9.321  1.00  0.00     0.159 HD
ATOM     47  H   UNL     1       6.967   8.780   9.222  1.00  0.00     0.159 HD
ATOM     48  H   UNL     1       5.686   6.197  12.037  1.00  0.00     0.159 HD
ATOM     49  H   UNL     1       4.815   6.456  10.559  1.00  0.00     0.159 HD
ENDBRANCH  41  42
ENDBRANCH  40  41
ENDBRANCH  39  40
ENDBRANCH  38  39
ENDBRANCH  36  38
ENDBRANCH   5  34
BRANCH   8  50
ATOM     50  O   UNL     1       4.506   7.229   7.475  1.00  0.00    -0.245 OA
BRANCH  50  51
ATOM     51  S   UNL     1       3.053   7.122   8.196  1.00  0.00     0.397 S 
ATOM     52  O   UNL     1       3.232   7.393   9.605  1.00  0.00    -0.169 OA
ATOM     53  O   UNL     1       2.366   5.934   7.733  1.00  0.00    -0.169 OA
BRANCH  51  54
ATOM     54  O   UNL     1       2.286   8.402   7.598  1.00  0.00    -0.264 OA
ATOM     55  H   UNL     1       2.018   8.188   6.681  1.00  0.00     0.236 HD
ENDBRANCH  51  54
ENDBRANCH  50  51
ENDBRANCH   8  50
TORSDOF 19
ENDMDL
MODEL 45
REMARK VINA RESULT:    -5.895      2.920      4.694
REMARK INTER + INTRA:         -15.120
REMARK INTER:                 -12.162
REMARK INTRA:                  -2.957
REMARK UNBOUND:                -3.195
REMARK SMILES CC[C@@H](C)[C@@H](NC(=O)[C@@H](O)Cc1ccc(O)c(Cl)c1)C(=O)N1[C@H](C(=O)NCCCCN=C(N)N)C[C@H]2CC[C@H](OS(=O)(=O)O)C[C@@H]21
REMARK SMILES IDX 22 1 36 2 46 3 35 4 23 5 45 6 37 7 39 8 38 9 20 10 21 11
REMARK SMILES IDX 5 12 6 13 7 14 8 15 9 17 11 18 12 19 17 20 19 21 15 22 14 23
REMARK SMILES IDX 13 24 18 25 16 26 10 28 3 30 4 31 2 32 1 33 24 34 25 35
REMARK SMILES IDX 26 36 27 38 28 39 29 40 30 41 31 42 32 43 33 44 34 45 40 50
REMARK SMILES IDX 41 51 42 52 43 53 44 54
REMARK H PARENT 6 16 16 27 10 29 26 37 33 46 33 47 34 48 34 49 44 55
ROOT
ATOM      1  N   UNL     1      -8.365  -4.181   3.136  1.00  0.00    -0.326 N 
ATOM      2  C   UNL     1      -7.574  -4.863   1.026  1.00  0.00     0.014 C 
ATOM      3  C   UNL     1      -8.121  -5.396   2.354  1.00  0.00     0.091 C 
ATOM      4  C   UNL     1      -6.776  -3.643   1.459  1.00  0.00     0.041 C 
ATOM      5  C   UNL     1      -7.766  -3.008   2.453  1.00  0.00     0.175 C 
ATOM      6  C   UNL     1      -9.304  -6.315   2.054  1.00  0.00     0.059 C 
ATOM      7  C   UNL     1      -6.884  -5.963   0.243  1.00  0.00     0.008 C 
ATOM      8  C   UNL     1      -9.181  -7.070   0.713  1.00  0.00     0.143 C 
ATOM      9  C   UNL     1      -7.711  -7.265   0.291  1.00  0.00     0.034 C 
ENDROOT
BRANCH   1  10
ATOM     10  C   UNL     1      -8.843  -4.038   4.428  1.00  0.00     0.246 C 
ATOM     11  O   UNL     1      -8.173  -4.477   5.369  1.00  0.00    -0.272 OA
BRANCH  10  12
ATOM     12  C   UNL     1     -10.188  -3.293   4.670  1.00  0.00     0.174 C 
BRANCH  12  13
ATOM     13  N   UNL     1     -10.275  -2.861   6.064  1.00  0.00    -0.342 N 
ATOM     14  C   UNL     1      -9.648  -1.753   6.589  1.00  0.00     0.249 C 
ATOM     15  O   UNL     1      -8.963  -0.981   5.930  1.00  0.00    -0.272 OA
ATOM     16  H   UNL     1     -10.677  -3.484   6.760  1.00  0.00     0.164 HD
BRANCH  14  17
ATOM     17  C   UNL     1      -9.920  -1.574   8.098  1.00  0.00     0.207 C 
BRANCH  17  18
ATOM     18  C   UNL     1     -11.425  -1.450   8.360  1.00  0.00     0.077 C 
BRANCH  18  19
ATOM     19  C   UNL     1     -11.948  -2.601   9.189  1.00  0.00    -0.043 A 
ATOM     20  C   UNL     1     -12.507  -3.552  11.349  1.00  0.00     0.083 A 
ATOM     21  C   UNL     1     -12.072  -2.472  10.581  1.00  0.00     0.028 A 
ATOM     22  C   UNL     1     -12.820  -4.765  10.734  1.00  0.00     0.134 A 
ATOM     23  C   UNL     1     -12.702  -4.907   9.357  1.00  0.00     0.048 A 
ATOM     24  C   UNL     1     -12.264  -3.827   8.585  1.00  0.00     0.008 A 
ATOM     25  Cl  UNL     1     -12.653  -3.374  13.058  1.00  0.00    -0.080 Cl
BRANCH  22  26
ATOM     26  O   UNL     1     -13.241  -5.855  11.447  1.00  0.00    -0.506 OA
ATOM     27  H   UNL     1     -13.346  -6.584  10.807  1.00  0.00     0.293 HD
ENDBRANCH  22  26
ENDBRANCH  18  19
ENDBRANCH  17  18
BRANCH  17  28
ATOM     28  O   UNL     1      -9.250  -0.411   8.610  1.00  0.00    -0.383 OA
ATOM     29  H   UNL     1      -9.804  -0.083   9.354  1.00  0.00     0.211 HD
ENDBRANCH  17  28
ENDBRANCH  14  17
ENDBRANCH  12  13
BRANCH  12  30
ATOM     30  C   UNL     1     -11.422  -4.125   4.229  1.00  0.00     0.018 C 
ATOM     31  C   UNL     1     -12.727  -3.377   4.547  1.00  0.00     0.010 C 
BRANCH  30  32
ATOM     32  C   UNL     1     -11.462  -5.548   4.837  1.00  0.00     0.002 C 
ATOM     33  C   UNL     1     -12.717  -5.880   5.635  1.00  0.00     0.004 C 
ENDBRANCH  30  32
ENDBRANCH  12  30
ENDBRANCH  10  12
ENDBRANCH   1  10
BRANCH   5  34
ATOM     34  C   UNL     1      -8.858  -2.180   1.723  1.00  0.00     0.242 C 
ATOM     35  O   UNL     1      -8.855  -0.950   1.715  1.00  0.00    -0.273 OA
ATOM     36  N   UNL     1      -9.857  -2.921   1.132  1.00  0.00    -0.354 N 
ATOM     37  H   UNL     1      -9.870  -3.932   1.275  1.00  0.00     0.163 HD
BRANCH  36  38
ATOM     38  C   UNL     1     -10.828  -2.331   0.234  1.00  0.00     0.116 C 
BRANCH  38  39
ATOM     39  C   UNL     1     -12.203  -2.312   0.898  1.00  0.00     0.023 C 
BRANCH  39  40
ATOM     40  C   UNL     1     -13.295  -1.803  -0.037  1.00  0.00     0.026 C 
BRANCH  40  41
ATOM     41  C   UNL     1     -12.704  -1.390  -1.386  1.00  0.00     0.146 C 
BRANCH  41  42
ATOM     42  N   UNL     1     -13.448  -2.028  -2.465  1.00  0.00    -0.254 NA
ATOM     43  C   UNL     1     -13.126  -3.207  -2.844  1.00  0.00     0.185 C 
ATOM     44  N   UNL     1     -12.158  -4.027  -2.396  1.00  0.00    -0.370 N 
ATOM     45  N   UNL     1     -13.821  -3.776  -3.843  1.00  0.00    -0.370 N 
ATOM     46  H   UNL     1     -11.862  -4.818  -2.942  1.00  0.00     0.159 HD
ATOM     47  H   UNL     1     -11.545  -3.760  -1.631  1.00  0.00     0.159 HD
ATOM     48  H   UNL     1     -14.576  -3.227  -4.233  1.00  0.00     0.159 HD
ATOM     49  H   UNL     1     -13.792  -4.761  -4.034  1.00  0.00     0.159 HD
ENDBRANCH  41  42
ENDBRANCH  40  41
ENDBRANCH  39  40
ENDBRANCH  38  39
ENDBRANCH  36  38
ENDBRANCH   5  34
BRANCH   8  50
ATOM     50  O   UNL     1      -9.856  -6.349  -0.319  1.00  0.00    -0.245 OA
BRANCH  50  51
ATOM     51  S   UNL     1     -11.142  -7.019  -1.057  1.00  0.00     0.397 S 
ATOM     52  O   UNL     1     -10.957  -6.884  -2.484  1.00  0.00    -0.169 OA
ATOM     53  O   UNL     1     -12.359  -6.585  -0.404  1.00  0.00    -0.169 OA
BRANCH  51  54
ATOM     54  O   UNL     1     -10.937  -8.581  -0.735  1.00  0.00    -0.264 OA
ATOM     55  H   UNL     1     -10.027  -8.825  -1.003  1.00  0.00     0.236 HD
ENDBRANCH  51  54
ENDBRANCH  50  51
ENDBRANCH   8  50
TORSDOF 19
ENDMDL
MODEL 46
REMARK VINA RESULT:    -5.849     20.893     24.530
REMARK INTER + INTRA:         -15.028
REMARK INTER:                 -10.414
REMARK INTRA:                  -4.614
REMARK UNBOUND:                -3.195
REMARK SMILES CC[C@@H](C)[C@@H](NC(=O)[C@@H](O)Cc1ccc(O)c(Cl)c1)C(=O)N1[C@H](C(=O)NCCCCN=C(N)N)C[C@H]2CC[C@H](OS(=O)(=O)O)C[C@@H]21
REMARK SMILES IDX 22 1 36 2 46 3 35 4 23 5 45 6 37 7 39 8 38 9 20 10 21 11
REMARK SMILES IDX 5 12 6 13 7 14 8 15 9 17 11 18 12 19 17 20 19 21 15 22 14 23
REMARK SMILES IDX 13 24 18 25 16 26 10 28 3 30 4 31 2 32 1 33 24 34 25 35
REMARK SMILES IDX 26 36 27 38 28 39 29 40 30 41 31 42 32 43 33 44 34 45 40 50
REMARK SMILES IDX 41 51 42 52 43 53 44 54
REMARK H PARENT 6 16 16 27 10 29 26 37 33 46 33 47 34 48 34 49 44 55
ROOT
ATOM      1  N   UNL     1       8.830   6.204   9.794  1.00  0.00    -0.326 N 
ATOM      2  C   UNL     1       8.670   8.436  10.525  1.00  0.00     0.014 C 
ATOM      3  C   UNL     1       9.450   7.136  10.741  1.00  0.00     0.091 C 
ATOM      4  C   UNL     1       7.267   7.937  10.216  1.00  0.00     0.041 C 
ATOM      5  C   UNL     1       7.593   6.799   9.232  1.00  0.00     0.175 C 
ATOM      6  C   UNL     1      10.940   7.436  10.592  1.00  0.00     0.059 C 
ATOM      7  C   UNL     1       8.881   9.392  11.682  1.00  0.00     0.008 C 
ATOM      8  C   UNL     1      11.335   8.859  11.041  1.00  0.00     0.143 C 
ATOM      9  C   UNL     1      10.366   9.422  12.100  1.00  0.00     0.034 C 
ENDROOT
BRANCH   1  10
ATOM     10  C   UNL     1       9.107   4.869   9.553  1.00  0.00     0.246 C 
ATOM     11  O   UNL     1       8.200   4.037   9.662  1.00  0.00    -0.272 OA
BRANCH  10  12
ATOM     12  C   UNL     1      10.539   4.451   9.108  1.00  0.00     0.174 C 
BRANCH  12  13
ATOM     13  N   UNL     1      10.824   4.986   7.777  1.00  0.00    -0.342 N 
ATOM     14  C   UNL     1      11.983   5.640   7.420  1.00  0.00     0.249 C 
ATOM     15  O   UNL     1      12.925   5.822   8.180  1.00  0.00    -0.272 OA
ATOM     16  H   UNL     1      10.078   5.049   7.089  1.00  0.00     0.164 HD
BRANCH  14  17
ATOM     17  C   UNL     1      11.976   6.102   5.947  1.00  0.00     0.207 C 
BRANCH  17  18
ATOM     18  C   UNL     1      13.195   5.544   5.205  1.00  0.00     0.077 C 
BRANCH  18  19
ATOM     19  C   UNL     1      13.048   4.068   4.912  1.00  0.00    -0.043 A 
ATOM     20  C   UNL     1      12.015   2.266   3.658  1.00  0.00     0.083 A 
ATOM     21  C   UNL     1      12.186   3.631   3.894  1.00  0.00     0.028 A 
ATOM     22  C   UNL     1      12.700   1.332   4.437  1.00  0.00     0.134 A 
ATOM     23  C   UNL     1      13.556   1.751   5.448  1.00  0.00     0.048 A 
ATOM     24  C   UNL     1      13.728   3.117   5.687  1.00  0.00     0.008 A 
ATOM     25  Cl  UNL     1      10.952   1.749   2.403  1.00  0.00    -0.080 Cl
BRANCH  22  26
ATOM     26  O   UNL     1      12.556  -0.016   4.250  1.00  0.00    -0.506 OA
ATOM     27  H   UNL     1      11.686  -0.150   3.832  1.00  0.00     0.293 HD
ENDBRANCH  22  26
ENDBRANCH  18  19
ENDBRANCH  17  18
BRANCH  17  28
ATOM     28  O   UNL     1      11.976   7.535   5.855  1.00  0.00    -0.383 OA
ATOM     29  H   UNL     1      12.914   7.814   5.959  1.00  0.00     0.211 HD
ENDBRANCH  17  28
ENDBRANCH  14  17
ENDBRANCH  12  13
BRANCH  12  30
ATOM     30  C   UNL     1      10.769   2.918   9.191  1.00  0.00     0.018 C 
ATOM     31  C   UNL     1      12.096   2.602   9.899  1.00  0.00     0.010 C 
BRANCH  30  32
ATOM     32  C   UNL     1      10.717   2.206   7.817  1.00  0.00     0.002 C 
ATOM     33  C   UNL     1       9.930   0.902   7.789  1.00  0.00     0.004 C 
ENDBRANCH  30  32
ENDBRANCH  12  30
ENDBRANCH  10  12
ENDBRANCH   1  10
BRANCH   5  34
ATOM     34  C   UNL     1       7.844   7.337   7.798  1.00  0.00     0.242 C 
ATOM     35  O   UNL     1       8.937   7.241   7.241  1.00  0.00    -0.273 OA
ATOM     36  N   UNL     1       6.772   7.976   7.216  1.00  0.00    -0.354 N 
ATOM     37  H   UNL     1       5.930   8.129   7.773  1.00  0.00     0.163 HD
BRANCH  36  38
ATOM     38  C   UNL     1       6.758   8.345   5.816  1.00  0.00     0.116 C 
BRANCH  38  39
ATOM     39  C   UNL     1       5.430   7.934   5.184  1.00  0.00     0.023 C 
BRANCH  39  40
ATOM     40  C   UNL     1       5.610   6.927   4.053  1.00  0.00     0.026 C 
BRANCH  40  41
ATOM     41  C   UNL     1       6.539   5.790   4.482  1.00  0.00     0.146 C 
BRANCH  41  42
ATOM     42  N   UNL     1       7.352   5.366   3.350  1.00  0.00    -0.254 NA
ATOM     43  C   UNL     1       8.596   5.668   3.316  1.00  0.00     0.185 C 
ATOM     44  N   UNL     1       9.344   6.355   4.198  1.00  0.00    -0.370 N 
ATOM     45  N   UNL     1       9.328   5.271   2.262  1.00  0.00    -0.370 N 
ATOM     46  H   UNL     1      10.240   6.727   3.931  1.00  0.00     0.159 HD
ATOM     47  H   UNL     1       8.952   6.718   5.061  1.00  0.00     0.159 HD
ATOM     48  H   UNL     1       8.841   4.739   1.553  1.00  0.00     0.159 HD
ATOM     49  H   UNL     1      10.332   5.258   2.270  1.00  0.00     0.159 HD
ENDBRANCH  41  42
ENDBRANCH  40  41
ENDBRANCH  39  40
ENDBRANCH  38  39
ENDBRANCH  36  38
ENDBRANCH   5  34
BRANCH   8  50
ATOM     50  O   UNL     1      11.344   9.743   9.919  1.00  0.00    -0.245 OA
BRANCH  50  51
ATOM     51  S   UNL     1      12.762  10.176   9.250  1.00  0.00     0.397 S 
ATOM     52  O   UNL     1      13.821   9.519   9.982  1.00  0.00    -0.169 OA
ATOM     53  O   UNL     1      12.773  11.605   9.016  1.00  0.00    -0.169 OA
BRANCH  51  54
ATOM     54  O   UNL     1      12.696   9.441   7.821  1.00  0.00    -0.264 OA
ATOM     55  H   UNL     1      13.219   8.616   7.886  1.00  0.00     0.236 HD
ENDBRANCH  51  54
ENDBRANCH  50  51
ENDBRANCH   8  50
TORSDOF 19
ENDMDL
MODEL 47
REMARK VINA RESULT:    -5.819      2.796      4.240
REMARK INTER + INTRA:         -14.967
REMARK INTER:                 -11.391
REMARK INTRA:                  -3.576
REMARK UNBOUND:                -3.195
REMARK SMILES CC[C@@H](C)[C@@H](NC(=O)[C@@H](O)Cc1ccc(O)c(Cl)c1)C(=O)N1[C@H](C(=O)NCCCCN=C(N)N)C[C@H]2CC[C@H](OS(=O)(=O)O)C[C@@H]21
REMARK SMILES IDX 22 1 36 2 46 3 35 4 23 5 45 6 37 7 39 8 38 9 20 10 21 11
REMARK SMILES IDX 5 12 6 13 7 14 8 15 9 17 11 18 12 19 17 20 19 21 15 22 14 23
REMARK SMILES IDX 13 24 18 25 16 26 10 28 3 30 4 31 2 32 1 33 24 34 25 35
REMARK SMILES IDX 26 36 27 38 28 39 29 40 30 41 31 42 32 43 33 44 34 45 40 50
REMARK SMILES IDX 41 51 42 52 43 53 44 54
REMARK H PARENT 6 16 16 27 10 29 26 37 33 46 33 47 34 48 34 49 44 55
ROOT
ATOM      1  N   UNL     1     -10.393  -5.574   4.199  1.00  0.00    -0.326 N 
ATOM      2  C   UNL     1      -9.582  -6.520   2.202  1.00  0.00     0.014 C 
ATOM      3  C   UNL     1     -10.752  -6.573   3.188  1.00  0.00     0.091 C 
ATOM      4  C   UNL     1      -8.394  -6.234   3.106  1.00  0.00     0.041 C 
ATOM      5  C   UNL     1      -8.991  -5.131   4.000  1.00  0.00     0.175 C 
ATOM      6  C   UNL     1     -12.051  -6.380   2.408  1.00  0.00     0.059 C 
ATOM      7  C   UNL     1      -9.563  -7.750   1.316  1.00  0.00     0.008 C 
ATOM      8  C   UNL     1     -12.002  -6.942   0.971  1.00  0.00     0.143 C 
ATOM      9  C   UNL     1     -10.988  -8.096   0.834  1.00  0.00     0.034 C 
ENDROOT
BRANCH   1  10
ATOM     10  C   UNL     1     -11.064  -5.194   5.349  1.00  0.00     0.246 C 
ATOM     11  O   UNL     1     -11.867  -4.256   5.294  1.00  0.00    -0.272 OA
BRANCH  10  12
ATOM     12  C   UNL     1     -10.827  -5.980   6.671  1.00  0.00     0.174 C 
BRANCH  12  13
ATOM     13  N   UNL     1     -11.535  -5.329   7.772  1.00  0.00    -0.342 N 
ATOM     14  C   UNL     1     -12.145  -5.986   8.817  1.00  0.00     0.249 C 
ATOM     15  O   UNL     1     -12.138  -7.203   8.955  1.00  0.00    -0.272 OA
ATOM     16  H   UNL     1     -11.757  -4.339   7.713  1.00  0.00     0.164 HD
BRANCH  14  17
ATOM     17  C   UNL     1     -12.824  -5.021   9.812  1.00  0.00     0.207 C 
BRANCH  17  18
ATOM     18  C   UNL     1     -11.852  -4.633  10.931  1.00  0.00     0.077 C 
BRANCH  18  19
ATOM     19  C   UNL     1     -11.092  -3.368  10.601  1.00  0.00    -0.043 A 
ATOM     20  C   UNL     1     -10.925  -1.268   9.398  1.00  0.00     0.083 A 
ATOM     21  C   UNL     1     -11.649  -2.411   9.739  1.00  0.00     0.028 A 
ATOM     22  C   UNL     1      -9.643  -1.075   9.913  1.00  0.00     0.134 A 
ATOM     23  C   UNL     1      -9.078  -2.014  10.768  1.00  0.00     0.048 A 
ATOM     24  C   UNL     1      -9.800  -3.160  11.110  1.00  0.00     0.008 A 
ATOM     25  Cl  UNL     1     -11.627  -0.104   8.337  1.00  0.00    -0.080 Cl
BRANCH  22  26
ATOM     26  O   UNL     1      -8.890   0.024   9.599  1.00  0.00    -0.506 OA
ATOM     27  H   UNL     1      -9.442   0.587   9.025  1.00  0.00     0.293 HD
ENDBRANCH  22  26
ENDBRANCH  18  19
ENDBRANCH  17  18
BRANCH  17  28
ATOM     28  O   UNL     1     -14.000  -5.613  10.387  1.00  0.00    -0.383 OA
ATOM     29  H   UNL     1     -13.759  -5.857  11.309  1.00  0.00     0.211 HD
ENDBRANCH  17  28
ENDBRANCH  14  17
ENDBRANCH  12  13
BRANCH  12  30
ATOM     30  C   UNL     1      -9.320  -6.194   6.979  1.00  0.00     0.018 C 
ATOM     31  C   UNL     1      -9.049  -7.648   7.395  1.00  0.00     0.010 C 
BRANCH  30  32
ATOM     32  C   UNL     1      -8.760  -5.221   8.046  1.00  0.00     0.002 C 
ATOM     33  C   UNL     1      -8.361  -3.846   7.527  1.00  0.00     0.004 C 
ENDBRANCH  30  32
ENDBRANCH  12  30
ENDBRANCH  10  12
ENDBRANCH   1  10
BRANCH   5  34
ATOM     34  C   UNL     1      -8.945  -3.744   3.306  1.00  0.00     0.242 C 
ATOM     35  O   UNL     1      -7.902  -3.267   2.858  1.00  0.00    -0.273 OA
ATOM     36  N   UNL     1     -10.141  -3.064   3.277  1.00  0.00    -0.354 N 
ATOM     37  H   UNL     1     -10.943  -3.458   3.771  1.00  0.00     0.163 HD
BRANCH  36  38
ATOM     38  C   UNL     1     -10.330  -1.864   2.487  1.00  0.00     0.116 C 
BRANCH  38  39
ATOM     39  C   UNL     1     -11.098  -2.199   1.211  1.00  0.00     0.023 C 
BRANCH  39  40
ATOM     40  C   UNL     1     -12.442  -2.861   1.496  1.00  0.00     0.026 C 
BRANCH  40  41
ATOM     41  C   UNL     1     -13.503  -2.383   0.505  1.00  0.00     0.146 C 
BRANCH  41  42
ATOM     42  N   UNL     1     -12.921  -2.278  -0.827  1.00  0.00    -0.254 NA
ATOM     43  C   UNL     1     -13.146  -1.236  -1.535  1.00  0.00     0.185 C 
ATOM     44  N   UNL     1     -13.875  -0.140  -1.255  1.00  0.00    -0.370 N 
ATOM     45  N   UNL     1     -12.604  -1.160  -2.762  1.00  0.00    -0.370 N 
ATOM     46  H   UNL     1     -14.166   0.484  -1.988  1.00  0.00     0.159 HD
ATOM     47  H   UNL     1     -14.344  -0.026  -0.362  1.00  0.00     0.159 HD
ATOM     48  H   UNL     1     -12.032  -1.942  -3.048  1.00  0.00     0.159 HD
ATOM     49  H   UNL     1     -12.535  -0.298  -3.273  1.00  0.00     0.159 HD
ENDBRANCH  41  42
ENDBRANCH  40  41
ENDBRANCH  39  40
ENDBRANCH  38  39
ENDBRANCH  36  38
ENDBRANCH   5  34
BRANCH   8  50
ATOM     50  O   UNL     1     -11.641  -5.910   0.053  1.00  0.00    -0.245 OA
BRANCH  50  51
ATOM     51  S   UNL     1     -11.867  -6.138  -1.542  1.00  0.00     0.397 S 
ATOM     52  O   UNL     1     -13.159  -6.760  -1.725  1.00  0.00    -0.169 OA
ATOM     53  O   UNL     1     -10.665  -6.695  -2.128  1.00  0.00    -0.169 OA
BRANCH  51  54
ATOM     54  O   UNL     1     -12.026  -4.630  -2.077  1.00  0.00    -0.264 OA
ATOM     55  H   UNL     1     -11.752  -4.617  -3.017  1.00  0.00     0.236 HD
ENDBRANCH  51  54
ENDBRANCH  50  51
ENDBRANCH   8  50
TORSDOF 19
ENDMDL
MODEL 48
REMARK VINA RESULT:    -5.806      4.026      6.616
REMARK INTER + INTRA:         -14.941
REMARK INTER:                 -12.073
REMARK INTRA:                  -2.868
REMARK UNBOUND:                -3.195
REMARK SMILES CC[C@@H](C)[C@@H](NC(=O)[C@@H](O)Cc1ccc(O)c(Cl)c1)C(=O)N1[C@H](C(=O)NCCCCN=C(N)N)C[C@H]2CC[C@H](OS(=O)(=O)O)C[C@@H]21
REMARK SMILES IDX 22 1 36 2 46 3 35 4 23 5 45 6 37 7 39 8 38 9 20 10 21 11
REMARK SMILES IDX 5 12 6 13 7 14 8 15 9 17 11 18 12 19 17 20 19 21 15 22 14 23
REMARK SMILES IDX 13 24 18 25 16 26 10 28 3 30 4 31 2 32 1 33 24 34 25 35
REMARK SMILES IDX 26 36 27 38 28 39 29 40 30 41 31 42 32 43 33 44 34 45 40 50
REMARK SMILES IDX 41 51 42 52 43 53 44 54
REMARK H PARENT 6 16 16 27 10 29 26 37 33 46 33 47 34 48 34 49 44 55
ROOT
ATOM      1  N   UNL     1     -10.187  -7.388  -0.295  1.00  0.00    -0.326 N 
ATOM      2  C   UNL     1     -11.584  -6.973  -2.144  1.00  0.00     0.014 C 
ATOM      3  C   UNL     1     -11.535  -6.911  -0.615  1.00  0.00     0.091 C 
ATOM      4  C   UNL     1     -10.736  -8.197  -2.456  1.00  0.00     0.041 C 
ATOM      5  C   UNL     1      -9.548  -7.954  -1.508  1.00  0.00     0.175 C 
ATOM      6  C   UNL     1     -11.928  -5.501  -0.176  1.00  0.00     0.059 C 
ATOM      7  C   UNL     1     -13.013  -6.911  -2.644  1.00  0.00     0.008 C 
ATOM      8  C   UNL     1     -12.943  -4.818  -1.116  1.00  0.00     0.143 C 
ATOM      9  C   UNL     1     -13.815  -5.842  -1.871  1.00  0.00     0.034 C 
ENDROOT
BRANCH   1  10
ATOM     10  C   UNL     1      -9.577  -7.568   0.935  1.00  0.00     0.246 C 
ATOM     11  O   UNL     1      -9.513  -8.705   1.414  1.00  0.00    -0.272 OA
BRANCH  10  12
ATOM     12  C   UNL     1      -8.950  -6.345   1.666  1.00  0.00     0.174 C 
BRANCH  12  13
ATOM     13  N   UNL     1      -9.987  -5.613   2.393  1.00  0.00    -0.342 N 
ATOM     14  C   UNL     1     -10.432  -5.923   3.659  1.00  0.00     0.249 C 
ATOM     15  O   UNL     1      -9.984  -6.841   4.334  1.00  0.00    -0.272 OA
ATOM     16  H   UNL     1     -10.557  -4.928   1.904  1.00  0.00     0.164 HD
BRANCH  14  17
ATOM     17  C   UNL     1     -11.547  -4.973   4.146  1.00  0.00     0.207 C 
BRANCH  17  18
ATOM     18  C   UNL     1     -12.564  -5.736   5.002  1.00  0.00     0.077 C 
BRANCH  18  19
ATOM     19  C   UNL     1     -12.546  -5.274   6.441  1.00  0.00    -0.043 A 
ATOM     20  C   UNL     1     -12.149  -3.537   8.088  1.00  0.00     0.083 A 
ATOM     21  C   UNL     1     -12.213  -3.947   6.755  1.00  0.00     0.028 A 
ATOM     22  C   UNL     1     -12.415  -4.447   9.112  1.00  0.00     0.134 A 
ATOM     23  C   UNL     1     -12.747  -5.764   8.815  1.00  0.00     0.048 A 
ATOM     24  C   UNL     1     -12.810  -6.178   7.482  1.00  0.00     0.008 A 
ATOM     25  Cl  UNL     1     -11.737  -1.903   8.454  1.00  0.00    -0.080 Cl
BRANCH  22  26
ATOM     26  O   UNL     1     -12.355  -4.094  10.433  1.00  0.00    -0.506 OA
ATOM     27  H   UNL     1     -13.192  -3.639  10.640  1.00  0.00     0.293 HD
ENDBRANCH  22  26
ENDBRANCH  18  19
ENDBRANCH  17  18
BRANCH  17  28
ATOM     28  O   UNL     1     -12.223  -4.357   3.038  1.00  0.00    -0.383 OA
ATOM     29  H   UNL     1     -11.754  -4.663   2.229  1.00  0.00     0.211 HD
ENDBRANCH  17  28
ENDBRANCH  14  17
ENDBRANCH  12  13
BRANCH  12  30
ATOM     30  C   UNL     1      -8.137  -5.429   0.713  1.00  0.00     0.018 C 
ATOM     31  C   UNL     1      -6.640  -5.472   1.059  1.00  0.00     0.010 C 
BRANCH  30  32
ATOM     32  C   UNL     1      -8.634  -3.963   0.684  1.00  0.00     0.002 C 
ATOM     33  C   UNL     1      -7.968  -3.069  -0.354  1.00  0.00     0.004 C 
ENDBRANCH  30  32
ENDBRANCH  12  30
ENDBRANCH  10  12
ENDBRANCH   1  10
BRANCH   5  34
ATOM     34  C   UNL     1      -8.529  -6.951  -2.113  1.00  0.00     0.242 C 
ATOM     35  O   UNL     1      -8.870  -5.854  -2.556  1.00  0.00    -0.273 OA
ATOM     36  N   UNL     1      -7.228  -7.398  -2.167  1.00  0.00    -0.354 N 
ATOM     37  H   UNL     1      -7.028  -8.361  -1.895  1.00  0.00     0.163 HD
BRANCH  36  38
ATOM     38  C   UNL     1      -6.123  -6.522  -2.496  1.00  0.00     0.116 C 
BRANCH  38  39
ATOM     39  C   UNL     1      -5.198  -7.209  -3.499  1.00  0.00     0.023 C 
BRANCH  39  40
ATOM     40  C   UNL     1      -5.918  -8.274  -4.320  1.00  0.00     0.026 C 
BRANCH  40  41
ATOM     41  C   UNL     1      -6.379  -7.705  -5.661  1.00  0.00     0.146 C 
BRANCH  41  42
ATOM     42  N   UNL     1      -7.635  -6.988  -5.486  1.00  0.00    -0.254 NA
ATOM     43  C   UNL     1      -8.741  -7.572  -5.760  1.00  0.00     0.185 C 
ATOM     44  N   UNL     1      -8.973  -8.818  -6.213  1.00  0.00    -0.370 N 
ATOM     45  N   UNL     1      -9.888  -6.892  -5.596  1.00  0.00    -0.370 N 
ATOM     46  H   UNL     1      -9.862  -9.060  -6.615  1.00  0.00     0.159 HD
ATOM     47  H   UNL     1      -8.216  -9.473  -6.380  1.00  0.00     0.159 HD
ATOM     48  H   UNL     1      -9.803  -5.947  -5.249  1.00  0.00     0.159 HD
ATOM     49  H   UNL     1     -10.786  -7.341  -5.559  1.00  0.00     0.159 HD
ENDBRANCH  41  42
ENDBRANCH  40  41
ENDBRANCH  39  40
ENDBRANCH  38  39
ENDBRANCH  36  38
ENDBRANCH   5  34
BRANCH   8  50
ATOM     50  O   UNL     1     -12.258  -4.012  -2.075  1.00  0.00    -0.245 OA
BRANCH  50  51
ATOM     51  S   UNL     1     -12.996  -2.703  -2.699  1.00  0.00     0.397 S 
ATOM     52  O   UNL     1     -13.719  -3.118  -3.880  1.00  0.00    -0.169 OA
ATOM     53  O   UNL     1     -12.070  -1.590  -2.727  1.00  0.00    -0.169 OA
BRANCH  51  54
ATOM     54  O   UNL     1     -14.115  -2.388  -1.588  1.00  0.00    -0.264 OA
ATOM     55  H   UNL     1     -14.928  -2.873  -1.838  1.00  0.00     0.236 HD
ENDBRANCH  51  54
ENDBRANCH  50  51
ENDBRANCH   8  50
TORSDOF 19
ENDMDL
MODEL 49
REMARK VINA RESULT:    -5.806      3.038      6.460
REMARK INTER + INTRA:         -14.940
REMARK INTER:                 -11.531
REMARK INTRA:                  -3.409
REMARK UNBOUND:                -3.195
REMARK SMILES CC[C@@H](C)[C@@H](NC(=O)[C@@H](O)Cc1ccc(O)c(Cl)c1)C(=O)N1[C@H](C(=O)NCCCCN=C(N)N)C[C@H]2CC[C@H](OS(=O)(=O)O)C[C@@H]21
REMARK SMILES IDX 22 1 36 2 46 3 35 4 23 5 45 6 37 7 39 8 38 9 20 10 21 11
REMARK SMILES IDX 5 12 6 13 7 14 8 15 9 17 11 18 12 19 17 20 19 21 15 22 14 23
REMARK SMILES IDX 13 24 18 25 16 26 10 28 3 30 4 31 2 32 1 33 24 34 25 35
REMARK SMILES IDX 26 36 27 38 28 39 29 40 30 41 31 42 32 43 33 44 34 45 40 50
REMARK SMILES IDX 41 51 42 52 43 53 44 54
REMARK H PARENT 6 16 16 27 10 29 26 37 33 46 33 47 34 48 34 49 44 55
ROOT
ATOM      1  N   UNL     1      -9.384  -2.207   3.183  1.00  0.00    -0.326 N 
ATOM      2  C   UNL     1      -7.975  -0.848   1.874  1.00  0.00     0.014 C 
ATOM      3  C   UNL     1      -7.965  -1.884   3.001  1.00  0.00     0.091 C 
ATOM      4  C   UNL     1      -9.263  -0.082   2.134  1.00  0.00     0.041 C 
ATOM      5  C   UNL     1     -10.223  -1.252   2.418  1.00  0.00     0.175 C 
ATOM      6  C   UNL     1      -7.010  -3.011   2.613  1.00  0.00     0.059 C 
ATOM      7  C   UNL     1      -6.661  -0.095   1.818  1.00  0.00     0.008 C 
ATOM      8  C   UNL     1      -5.818  -2.546   1.749  1.00  0.00     0.143 C 
ATOM      9  C   UNL     1      -5.471  -1.063   1.991  1.00  0.00     0.034 C 
ENDROOT
BRANCH   1  10
ATOM     10  C   UNL     1      -9.990  -3.071   4.078  1.00  0.00     0.246 C 
ATOM     11  O   UNL     1     -10.916  -2.656   4.782  1.00  0.00    -0.272 OA
BRANCH  10  12
ATOM     12  C   UNL     1      -9.523  -4.554   4.148  1.00  0.00     0.174 C 
BRANCH  12  13
ATOM     13  N   UNL     1     -10.038  -5.295   2.997  1.00  0.00    -0.342 N 
ATOM     14  C   UNL     1     -11.370  -5.522   2.736  1.00  0.00     0.249 C 
ATOM     15  O   UNL     1     -12.284  -5.100   3.434  1.00  0.00    -0.272 OA
ATOM     16  H   UNL     1      -9.399  -5.835   2.419  1.00  0.00     0.164 HD
BRANCH  14  17
ATOM     17  C   UNL     1     -11.593  -6.352   1.453  1.00  0.00     0.207 C 
BRANCH  17  18
ATOM     18  C   UNL     1     -10.408  -7.293   1.212  1.00  0.00     0.077 C 
BRANCH  18  19
ATOM     19  C   UNL     1     -10.359  -7.778  -0.220  1.00  0.00    -0.043 A 
ATOM     20  C   UNL     1      -9.194  -7.958  -2.340  1.00  0.00     0.083 A 
ATOM     21  C   UNL     1      -9.217  -7.553  -1.005  1.00  0.00     0.028 A 
ATOM     22  C   UNL     1     -10.307  -8.587  -2.898  1.00  0.00     0.134 A 
ATOM     23  C   UNL     1     -11.444  -8.817  -2.132  1.00  0.00     0.048 A 
ATOM     24  C   UNL     1     -11.471  -8.411  -0.796  1.00  0.00     0.008 A 
ATOM     25  Cl  UNL     1      -7.783  -7.672  -3.289  1.00  0.00    -0.080 Cl
BRANCH  22  26
ATOM     26  O   UNL     1     -10.335  -8.993  -4.205  1.00  0.00    -0.506 OA
ATOM     27  H   UNL     1     -10.186  -8.197  -4.748  1.00  0.00     0.293 HD
ENDBRANCH  22  26
ENDBRANCH  18  19
ENDBRANCH  17  18
BRANCH  17  28
ATOM     28  O   UNL     1     -11.765  -5.499   0.310  1.00  0.00    -0.383 OA
ATOM     29  H   UNL     1     -10.934  -5.573  -0.212  1.00  0.00     0.211 HD
ENDBRANCH  17  28
ENDBRANCH  14  17
ENDBRANCH  12  13
BRANCH  12  30
ATOM     30  C   UNL     1      -9.881  -5.233   5.498  1.00  0.00     0.018 C 
ATOM     31  C   UNL     1      -8.911  -4.792   6.605  1.00  0.00     0.010 C 
BRANCH  30  32
ATOM     32  C   UNL     1      -9.935  -6.778   5.421  1.00  0.00     0.002 C 
ATOM     33  C   UNL     1      -8.585  -7.480   5.476  1.00  0.00     0.004 C 
ENDBRANCH  30  32
ENDBRANCH  12  30
ENDBRANCH  10  12
ENDBRANCH   1  10
BRANCH   5  34
ATOM     34  C   UNL     1     -10.738  -1.901   1.105  1.00  0.00     0.242 C 
ATOM     35  O   UNL     1     -10.400  -3.031   0.754  1.00  0.00    -0.273 OA
ATOM     36  N   UNL     1     -11.553  -1.101   0.337  1.00  0.00    -0.354 N 
ATOM     37  H   UNL     1     -11.700  -0.131   0.621  1.00  0.00     0.163 HD
BRANCH  36  38
ATOM     38  C   UNL     1     -12.291  -1.613  -0.800  1.00  0.00     0.116 C 
BRANCH  38  39
ATOM     39  C   UNL     1     -13.517  -2.385  -0.317  1.00  0.00     0.023 C 
BRANCH  39  40
ATOM     40  C   UNL     1     -14.133  -3.246  -1.415  1.00  0.00     0.026 C 
BRANCH  40  41
ATOM     41  C   UNL     1     -13.428  -3.007  -2.750  1.00  0.00     0.146 C 
BRANCH  41  42
ATOM     42  N   UNL     1     -13.551  -4.192  -3.590  1.00  0.00    -0.254 NA
ATOM     43  C   UNL     1     -12.717  -5.153  -3.454  1.00  0.00     0.185 C 
ATOM     44  N   UNL     1     -11.672  -5.281  -2.615  1.00  0.00    -0.370 N 
ATOM     45  N   UNL     1     -12.844  -6.235  -4.241  1.00  0.00    -0.370 N 
ATOM     46  H   UNL     1     -10.962  -5.973  -2.782  1.00  0.00     0.159 HD
ATOM     47  H   UNL     1     -11.440  -4.559  -1.940  1.00  0.00     0.159 HD
ATOM     48  H   UNL     1     -13.613  -6.223  -4.897  1.00  0.00     0.159 HD
ATOM     49  H   UNL     1     -12.394  -7.109  -4.040  1.00  0.00     0.159 HD
ENDBRANCH  41  42
ENDBRANCH  40  41
ENDBRANCH  39  40
ENDBRANCH  38  39
ENDBRANCH  36  38
ENDBRANCH   5  34
BRANCH   8  50
ATOM     50  O   UNL     1      -6.120  -2.720   0.364  1.00  0.00    -0.245 OA
BRANCH  50  51
ATOM     51  S   UNL     1      -5.443  -3.951  -0.456  1.00  0.00     0.397 S 
ATOM     52  O   UNL     1      -4.952  -3.434  -1.713  1.00  0.00    -0.169 OA
ATOM     53  O   UNL     1      -6.311  -5.109  -0.398  1.00  0.00    -0.169 OA
BRANCH  51  54
ATOM     54  O   UNL     1      -4.137  -4.266   0.428  1.00  0.00    -0.264 OA
ATOM     55  H   UNL     1      -4.424  -4.777   1.212  1.00  0.00     0.236 HD
ENDBRANCH  51  54
ENDBRANCH  50  51
ENDBRANCH   8  50
TORSDOF 19
ENDMDL
MODEL 50
REMARK VINA RESULT:    -5.687      4.024      8.502
REMARK INTER + INTRA:         -14.700
REMARK INTER:                 -10.817
REMARK INTRA:                  -3.883
REMARK UNBOUND:                -3.195
REMARK SMILES CC[C@@H](C)[C@@H](NC(=O)[C@@H](O)Cc1ccc(O)c(Cl)c1)C(=O)N1[C@H](C(=O)NCCCCN=C(N)N)C[C@H]2CC[C@H](OS(=O)(=O)O)C[C@@H]21
REMARK SMILES IDX 22 1 36 2 46 3 35 4 23 5 45 6 37 7 39 8 38 9 20 10 21 11
REMARK SMILES IDX 5 12 6 13 7 14 8 15 9 17 11 18 12 19 17 20 19 21 15 22 14 23
REMARK SMILES IDX 13 24 18 25 16 26 10 28 3 30 4 31 2 32 1 33 24 34 25 35
REMARK SMILES IDX 26 36 27 38 28 39 29 40 30 41 31 42 32 43 33 44 34 45 40 50
REMARK SMILES IDX 41 51 42 52 43 53 44 54
REMARK H PARENT 6 16 16 27 10 29 26 37 33 46 33 47 34 48 34 49 44 55
ROOT
ATOM      1  N   UNL     1     -10.375  -5.026   3.171  1.00  0.00    -0.326 N 
ATOM      2  C   UNL     1     -12.148  -4.246   4.509  1.00  0.00     0.014 C 
ATOM      3  C   UNL     1     -11.358  -5.507   4.146  1.00  0.00     0.091 C 
ATOM      4  C   UNL     1     -12.171  -3.476   3.198  1.00  0.00     0.041 C 
ATOM      5  C   UNL     1     -10.703  -3.638   2.761  1.00  0.00     0.175 C 
ATOM      6  C   UNL     1     -10.846  -6.144   5.437  1.00  0.00     0.059 C 
ATOM      7  C   UNL     1     -13.458  -4.603   5.185  1.00  0.00     0.008 C 
ATOM      8  C   UNL     1     -11.780  -5.931   6.648  1.00  0.00     0.143 C 
ATOM      9  C   UNL     1     -13.247  -5.728   6.220  1.00  0.00     0.034 C 
ENDROOT
BRANCH   1  10
ATOM     10  C   UNL     1      -9.400  -5.722   2.477  1.00  0.00     0.246 C 
ATOM     11  O   UNL     1      -8.211  -5.446   2.673  1.00  0.00    -0.272 OA
BRANCH  10  12
ATOM     12  C   UNL     1      -9.817  -6.861   1.503  1.00  0.00     0.174 C 
BRANCH  12  13
ATOM     13  N   UNL     1      -8.650  -7.331   0.756  1.00  0.00    -0.342 N 
ATOM     14  C   UNL     1      -8.012  -8.534   0.962  1.00  0.00     0.249 C 
ATOM     15  O   UNL     1      -8.374  -9.365   1.785  1.00  0.00    -0.272 OA
ATOM     16  H   UNL     1      -8.145  -6.686   0.153  1.00  0.00     0.164 HD
BRANCH  14  17
ATOM     17  C   UNL     1      -6.800  -8.733   0.027  1.00  0.00     0.207 C 
BRANCH  17  18
ATOM     18  C   UNL     1      -7.266  -9.148  -1.372  1.00  0.00     0.077 C 
BRANCH  18  19
ATOM     19  C   UNL     1      -7.334  -7.968  -2.315  1.00  0.00    -0.043 A 
ATOM     20  C   UNL     1      -8.175  -6.947  -4.348  1.00  0.00     0.083 A 
ATOM     21  C   UNL     1      -8.153  -8.018  -3.454  1.00  0.00     0.028 A 
ATOM     22  C   UNL     1      -7.381  -5.824  -4.113  1.00  0.00     0.134 A 
ATOM     23  C   UNL     1      -6.566  -5.761  -2.989  1.00  0.00     0.048 A 
ATOM     24  C   UNL     1      -6.540  -6.832  -2.093  1.00  0.00     0.008 A 
ATOM     25  Cl  UNL     1      -9.188  -7.027  -5.742  1.00  0.00    -0.080 Cl
BRANCH  22  26
ATOM     26  O   UNL     1      -7.362  -4.754  -4.966  1.00  0.00    -0.506 OA
ATOM     27  H   UNL     1      -7.343  -5.118  -5.871  1.00  0.00     0.293 HD
ENDBRANCH  22  26
ENDBRANCH  18  19
ENDBRANCH  17  18
BRANCH  17  28
ATOM     28  O   UNL     1      -5.904  -9.728   0.547  1.00  0.00    -0.383 OA
ATOM     29  H   UNL     1      -5.130  -9.237   0.905  1.00  0.00     0.211 HD
ENDBRANCH  17  28
ENDBRANCH  14  17
ENDBRANCH  12  13
BRANCH  12  30
ATOM     30  C   UNL     1     -10.990  -6.454   0.572  1.00  0.00     0.018 C 
ATOM     31  C   UNL     1     -12.268  -7.228   0.933  1.00  0.00     0.010 C 
BRANCH  30  32
ATOM     32  C   UNL     1     -10.675  -6.621  -0.935  1.00  0.00     0.002 C 
ATOM     33  C   UNL     1     -10.397  -5.327  -1.689  1.00  0.00     0.004 C 
ENDBRANCH  30  32
ENDBRANCH  12  30
ENDBRANCH  10  12
ENDBRANCH   1  10
BRANCH   5  34
ATOM     34  C   UNL     1      -9.778  -2.619   3.478  1.00  0.00     0.242 C 
ATOM     35  O   UNL     1      -9.763  -1.424   3.185  1.00  0.00    -0.273 OA
ATOM     36  N   UNL     1      -8.936  -3.158   4.425  1.00  0.00    -0.354 N 
ATOM     37  H   UNL     1      -8.909  -4.172   4.539  1.00  0.00     0.163 HD
BRANCH  36  38
ATOM     38  C   UNL     1      -8.167  -2.334   5.334  1.00  0.00     0.116 C 
BRANCH  38  39
ATOM     39  C   UNL     1      -8.776  -2.397   6.733  1.00  0.00     0.023 C 
BRANCH  39  40
ATOM     40  C   UNL     1      -8.592  -1.097   7.508  1.00  0.00     0.026 C 
BRANCH  40  41
ATOM     41  C   UNL     1      -9.916  -0.342   7.624  1.00  0.00     0.146 C 
BRANCH  41  42
ATOM     42  N   UNL     1     -10.858  -1.120   8.418  1.00  0.00    -0.254 NA
ATOM     43  C   UNL     1     -11.021  -0.843   9.657  1.00  0.00     0.185 C 
ATOM     44  N   UNL     1     -10.441   0.104  10.416  1.00  0.00    -0.370 N 
ATOM     45  N   UNL     1     -11.891  -1.575  10.373  1.00  0.00    -0.370 N 
ATOM     46  H   UNL     1     -10.479   0.052  11.419  1.00  0.00     0.159 HD
ATOM     47  H   UNL     1      -9.766   0.757  10.030  1.00  0.00     0.159 HD
ATOM     48  H   UNL     1     -12.379  -2.307   9.873  1.00  0.00     0.159 HD
ATOM     49  H   UNL     1     -12.247  -1.279  11.264  1.00  0.00     0.159 HD
ENDBRANCH  41  42
ENDBRANCH  40  41
ENDBRANCH  39  40
ENDBRANCH  38  39
ENDBRANCH  36  38
ENDBRANCH   5  34
BRANCH   8  50
ATOM     50  O   UNL     1     -11.363  -4.787   7.393  1.00  0.00    -0.245 OA
BRANCH  50  51
ATOM     51  S   UNL     1     -11.361  -4.845   9.019  1.00  0.00     0.397 S 
ATOM     52  O   UNL     1     -12.665  -4.427   9.482  1.00  0.00    -0.169 OA
ATOM     53  O   UNL     1     -10.145  -4.241   9.525  1.00  0.00    -0.169 OA
BRANCH  51  54
ATOM     54  O   UNL     1     -11.282  -6.426   9.298  1.00  0.00    -0.264 OA
ATOM     55  H   UNL     1     -11.457  -6.570  10.251  1.00  0.00     0.236 HD
ENDBRANCH  51  54
ENDBRANCH  50  51
ENDBRANCH   8  50
TORSDOF 19
ENDMDL
