MODEL 1
REMARK VINA RESULT:    -6.758      0.000      0.000
REMARK INTER + INTRA:         -22.913
REMARK INTER:                 -16.832
REMARK INTRA:                  -6.081
REMARK UNBOUND:                -6.081
REMARK SMILES CCCCCCC[C@H](N)[C@H](O)C(=O)N[C@H](C)C(=O)N(C)[C@H](CC(C)C)C(=O)N[C@@H](Cc1ccc(O)cc1)C(=O)N[C@@H](Cc1ccc(O)cc1)C(=O)O
REMARK SMILES IDX 18 1 17 2 15 3 16 4 14 5 12 6 13 7 10 9 11 10 8 12 9 13 7 16
REMARK SMILES IDX 6 17 5 18 4 19 3 20 2 21 1 22 19 23 20 24 21 25 22 26 23 27
REMARK SMILES IDX 24 28 25 29 26 30 27 31 28 32 29 34 30 35 31 36 32 37 37 38
REMARK SMILES IDX 33 39 36 40 34 41 35 42 38 44 39 45 40 46 41 48 42 49 43 50
REMARK SMILES IDX 44 51 49 52 45 53 48 54 46 55 47 56 50 58 51 59 52 60
REMARK H PARENT 14 8 11 11 9 14 9 15 28 33 35 43 40 47 47 57 52 61
ROOT
ATOM      1  O   UNL     1       0.959  -5.942  -7.716  1.00  0.00    -0.272 OA
ATOM      2  C   UNL     1       2.074  -5.998  -7.175  1.00  0.00     0.245 C 
ENDROOT
BRANCH   2   3
ATOM      3  C   UNL     1       3.154  -4.970  -7.594  1.00  0.00     0.168 C 
ATOM      4  C   UNL     1       3.316  -4.942  -9.110  1.00  0.00     0.041 C 
BRANCH   3   5
ATOM      5  N   UNL     1       2.973  -3.635  -7.045  1.00  0.00    -0.342 N 
ATOM      6  C   UNL     1       4.041  -2.800  -6.794  1.00  0.00     0.251 C 
ATOM      7  O   UNL     1       5.210  -3.126  -6.971  1.00  0.00    -0.272 OA
ATOM      8  H   UNL     1       2.051  -3.266  -6.824  1.00  0.00     0.164 HD
BRANCH   6   9
ATOM      9  C   UNL     1       3.606  -1.394  -6.352  1.00  0.00     0.219 C 
BRANCH   9  10
ATOM     10  O   UNL     1       2.231  -1.122  -6.649  1.00  0.00    -0.382 OA
ATOM     11  H   UNL     1       1.741  -1.724  -6.047  1.00  0.00     0.211 HD
ENDBRANCH   9  10
BRANCH   9  12
ATOM     12  C   UNL     1       3.915  -1.101  -4.860  1.00  0.00     0.089 C 
BRANCH  12  13
ATOM     13  N   UNL     1       3.241   0.162  -4.483  1.00  0.00    -0.325 NA
ATOM     14  H   UNL     1       3.785   0.627  -3.753  1.00  0.00     0.119 HD
ATOM     15  H   UNL     1       2.343  -0.059  -4.046  1.00  0.00     0.119 HD
ENDBRANCH  12  13
BRANCH  12  16
ATOM     16  C   UNL     1       3.544  -2.221  -3.859  1.00  0.00     0.022 C 
BRANCH  16  17
ATOM     17  C   UNL     1       2.148  -2.221  -3.221  1.00  0.00     0.002 C 
BRANCH  17  18
ATOM     18  C   UNL     1       1.111  -3.083  -3.939  1.00  0.00     0.000 C 
BRANCH  18  19
ATOM     19  C   UNL     1      -0.029  -3.570  -3.035  1.00  0.00    -0.000 C 
BRANCH  19  20
ATOM     20  C   UNL     1       0.409  -4.401  -1.826  1.00  0.00    -0.000 C 
BRANCH  20  21
ATOM     21  C   UNL     1      -0.390  -4.083  -0.559  1.00  0.00    -0.003 C 
ATOM     22  C   UNL     1      -1.391  -2.964  -0.801  1.00  0.00     0.004 C 
ENDBRANCH  20  21
ENDBRANCH  19  20
ENDBRANCH  18  19
ENDBRANCH  17  18
ENDBRANCH  16  17
ENDBRANCH  12  16
ENDBRANCH   9  12
ENDBRANCH   6   9
ENDBRANCH   3   5
ENDBRANCH   2   3
BRANCH   2  23
ATOM     23  N   UNL     1       2.296  -6.888  -6.130  1.00  0.00    -0.332 N 
ATOM     24  C   UNL     1       2.825  -8.235  -6.290  1.00  0.00     0.147 C 
BRANCH  23  25
ATOM     25  C   UNL     1       2.116  -6.450  -4.719  1.00  0.00     0.174 C 
BRANCH  25  26
ATOM     26  C   UNL     1       3.377  -6.674  -3.853  1.00  0.00     0.038 C 
BRANCH  26  27
ATOM     27  C   UNL     1       4.547  -5.685  -4.051  1.00  0.00    -0.015 C 
ATOM     28  C   UNL     1       5.175  -5.249  -2.727  1.00  0.00     0.007 C 
ATOM     29  C   UNL     1       5.619  -6.195  -5.011  1.00  0.00     0.007 C 
ENDBRANCH  26  27
ENDBRANCH  25  26
BRANCH  25  30
ATOM     30  C   UNL     1       0.835  -7.080  -4.125  1.00  0.00     0.243 C 
ATOM     31  O   UNL     1       0.858  -7.751  -3.094  1.00  0.00    -0.273 OA
ATOM     32  N   UNL     1      -0.321  -6.848  -4.826  1.00  0.00    -0.342 N 
ATOM     33  H   UNL     1      -0.283  -6.167  -5.590  1.00  0.00     0.164 HD
BRANCH  32  34
ATOM     34  C   UNL     1      -1.623  -7.388  -4.428  1.00  0.00     0.175 C 
BRANCH  34  35
ATOM     35  C   UNL     1      -2.363  -6.426  -3.486  1.00  0.00     0.070 C 
BRANCH  35  36
ATOM     36  C   UNL     1      -2.428  -6.935  -2.064  1.00  0.00    -0.045 A 
ATOM     37  C   UNL     1      -3.109  -6.195  -1.084  1.00  0.00     0.007 A 
ATOM     38  C   UNL     1      -1.796  -8.130  -1.698  1.00  0.00     0.007 A 
ATOM     39  C   UNL     1      -3.163  -6.649   0.234  1.00  0.00     0.046 A 
ATOM     40  C   UNL     1      -1.848  -8.585  -0.378  1.00  0.00     0.046 A 
ATOM     41  C   UNL     1      -2.534  -7.840   0.576  1.00  0.00     0.115 A 
BRANCH  41  42
ATOM     42  O   UNL     1      -2.607  -8.247   1.876  1.00  0.00    -0.508 OA
ATOM     43  H   UNL     1      -3.540  -8.230   2.147  1.00  0.00     0.293 HD
ENDBRANCH  41  42
ENDBRANCH  35  36
ENDBRANCH  34  35
BRANCH  34  44
ATOM     44  C   UNL     1      -2.434  -7.678  -5.711  1.00  0.00     0.243 C 
ATOM     45  O   UNL     1      -3.549  -8.192  -5.726  1.00  0.00    -0.273 OA
ATOM     46  N   UNL     1      -1.734  -7.425  -6.871  1.00  0.00    -0.341 N 
ATOM     47  H   UNL     1      -0.769  -7.110  -6.807  1.00  0.00     0.164 HD
BRANCH  46  48
ATOM     48  C   UNL     1      -2.269  -7.687  -8.209  1.00  0.00     0.196 C 
BRANCH  48  49
ATOM     49  C   UNL     1      -2.694  -6.384  -8.907  1.00  0.00     0.072 C 
BRANCH  49  50
ATOM     50  C   UNL     1      -4.196  -6.216  -8.961  1.00  0.00    -0.045 A 
ATOM     51  C   UNL     1      -4.897  -5.824  -7.811  1.00  0.00     0.007 A 
ATOM     52  C   UNL     1      -4.907  -6.466 -10.141  1.00  0.00     0.007 A 
ATOM     53  C   UNL     1      -6.284  -5.678  -7.845  1.00  0.00     0.046 A 
ATOM     54  C   UNL     1      -6.296  -6.322 -10.175  1.00  0.00     0.046 A 
ATOM     55  C   UNL     1      -6.973  -5.927  -9.026  1.00  0.00     0.115 A 
BRANCH  55  56
ATOM     56  O   UNL     1      -8.328  -5.776  -9.017  1.00  0.00    -0.508 OA
ATOM     57  H   UNL     1      -8.695  -6.262  -9.772  1.00  0.00     0.293 HD
ENDBRANCH  55  56
ENDBRANCH  49  50
ENDBRANCH  48  49
BRANCH  48  58
ATOM     58  C   UNL     1      -1.195  -8.393  -9.048  1.00  0.00     0.326 C 
ATOM     59  O   UNL     1      -1.300  -8.797 -10.194  1.00  0.00    -0.250 OA
BRANCH  58  60
ATOM     60  O   UNL     1      -0.015  -8.547  -8.397  1.00  0.00    -0.480 OA
ATOM     61  H   UNL     1      -0.162  -8.076  -7.548  1.00  0.00     0.296 HD
ENDBRANCH  58  60
ENDBRANCH  48  58
ENDBRANCH  46  48
ENDBRANCH  34  44
ENDBRANCH  32  34
ENDBRANCH  25  30
ENDBRANCH  23  25
ENDBRANCH   2  23
TORSDOF 28
ENDMDL
MODEL 2
REMARK VINA RESULT:    -6.645      1.626      2.258
REMARK INTER + INTRA:         -22.630
REMARK INTER:                 -17.963
REMARK INTRA:                  -4.668
REMARK UNBOUND:                -6.081
REMARK SMILES CCCCCCC[C@H](N)[C@H](O)C(=O)N[C@H](C)C(=O)N(C)[C@H](CC(C)C)C(=O)N[C@@H](Cc1ccc(O)cc1)C(=O)N[C@@H](Cc1ccc(O)cc1)C(=O)O
REMARK SMILES IDX 18 1 17 2 15 3 16 4 14 5 12 6 13 7 10 9 11 10 8 12 9 13 7 16
REMARK SMILES IDX 6 17 5 18 4 19 3 20 2 21 1 22 19 23 20 24 21 25 22 26 23 27
REMARK SMILES IDX 24 28 25 29 26 30 27 31 28 32 29 34 30 35 31 36 32 37 37 38
REMARK SMILES IDX 33 39 36 40 34 41 35 42 38 44 39 45 40 46 41 48 42 49 43 50
REMARK SMILES IDX 44 51 49 52 45 53 48 54 46 55 47 56 50 58 51 59 52 60
REMARK H PARENT 14 8 11 11 9 14 9 15 28 33 35 43 40 47 47 57 52 61
ROOT
ATOM      1  O   UNL     1       1.046  -5.785  -7.719  1.00  0.00    -0.272 OA
ATOM      2  C   UNL     1       2.183  -5.930  -7.245  1.00  0.00     0.245 C 
ENDROOT
BRANCH   2   3
ATOM      3  C   UNL     1       3.291  -4.931  -7.659  1.00  0.00     0.168 C 
ATOM      4  C   UNL     1       3.484  -4.931  -9.172  1.00  0.00     0.041 C 
BRANCH   3   5
ATOM      5  N   UNL     1       3.127  -3.584  -7.134  1.00  0.00    -0.342 N 
ATOM      6  C   UNL     1       4.207  -2.764  -6.882  1.00  0.00     0.251 C 
ATOM      7  O   UNL     1       5.372  -3.113  -7.038  1.00  0.00    -0.272 OA
ATOM      8  H   UNL     1       2.209  -3.196  -6.932  1.00  0.00     0.164 HD
BRANCH   6   9
ATOM      9  C   UNL     1       3.790  -1.343  -6.469  1.00  0.00     0.219 C 
BRANCH   9  10
ATOM     10  O   UNL     1       2.406  -1.077  -6.724  1.00  0.00    -0.382 OA
ATOM     11  H   UNL     1       2.198  -0.332  -6.118  1.00  0.00     0.211 HD
ENDBRANCH   9  10
BRANCH   9  12
ATOM     12  C   UNL     1       4.155  -1.004  -5.000  1.00  0.00     0.089 C 
BRANCH  12  13
ATOM     13  N   UNL     1       3.311   0.130  -4.559  1.00  0.00    -0.325 NA
ATOM     14  H   UNL     1       2.402   0.071  -5.020  1.00  0.00     0.119 HD
ATOM     15  H   UNL     1       3.726   1.002  -4.896  1.00  0.00     0.119 HD
ENDBRANCH  12  13
BRANCH  12  16
ATOM     16  C   UNL     1       4.050  -2.171  -3.989  1.00  0.00     0.022 C 
BRANCH  16  17
ATOM     17  C   UNL     1       2.778  -2.312  -3.141  1.00  0.00     0.002 C 
BRANCH  17  18
ATOM     18  C   UNL     1       1.570  -2.881  -3.882  1.00  0.00     0.000 C 
BRANCH  18  19
ATOM     19  C   UNL     1       0.326  -1.985  -3.829  1.00  0.00    -0.000 C 
BRANCH  19  20
ATOM     20  C   UNL     1       0.226  -1.083  -2.596  1.00  0.00    -0.000 C 
BRANCH  20  21
ATOM     21  C   UNL     1      -1.212  -0.670  -2.270  1.00  0.00    -0.003 C 
ATOM     22  C   UNL     1      -1.534  -0.899  -0.801  1.00  0.00     0.004 C 
ENDBRANCH  20  21
ENDBRANCH  19  20
ENDBRANCH  18  19
ENDBRANCH  17  18
ENDBRANCH  16  17
ENDBRANCH  12  16
ENDBRANCH   9  12
ENDBRANCH   6   9
ENDBRANCH   3   5
ENDBRANCH   2   3
BRANCH   2  23
ATOM     23  N   UNL     1       2.412  -6.897  -6.272  1.00  0.00    -0.332 N 
ATOM     24  C   UNL     1       2.629  -8.310  -6.546  1.00  0.00     0.147 C 
BRANCH  23  25
ATOM     25  C   UNL     1       2.580  -6.502  -4.846  1.00  0.00     0.174 C 
BRANCH  25  26
ATOM     26  C   UNL     1       3.816  -7.152  -4.183  1.00  0.00     0.038 C 
BRANCH  26  27
ATOM     27  C   UNL     1       5.053  -6.251  -3.972  1.00  0.00    -0.015 C 
ATOM     28  C   UNL     1       5.022  -5.522  -2.629  1.00  0.00     0.007 C 
ATOM     29  C   UNL     1       6.378  -6.986  -4.154  1.00  0.00     0.007 C 
ENDBRANCH  26  27
ENDBRANCH  25  26
BRANCH  25  30
ATOM     30  C   UNL     1       1.263  -6.736  -4.071  1.00  0.00     0.243 C 
ATOM     31  O   UNL     1       1.216  -7.450  -3.070  1.00  0.00    -0.273 OA
ATOM     32  N   UNL     1       0.156  -6.103  -4.576  1.00  0.00    -0.342 N 
ATOM     33  H   UNL     1       0.302  -5.418  -5.322  1.00  0.00     0.164 HD
BRANCH  32  34
ATOM     34  C   UNL     1      -1.179  -6.232  -3.987  1.00  0.00     0.175 C 
BRANCH  34  35
ATOM     35  C   UNL     1      -1.684  -4.886  -3.445  1.00  0.00     0.070 C 
BRANCH  35  36
ATOM     36  C   UNL     1      -1.642  -4.811  -1.935  1.00  0.00    -0.045 A 
ATOM     37  C   UNL     1      -0.465  -4.412  -1.284  1.00  0.00     0.007 A 
ATOM     38  C   UNL     1      -2.761  -5.159  -1.167  1.00  0.00     0.007 A 
ATOM     39  C   UNL     1      -0.412  -4.353   0.108  1.00  0.00     0.046 A 
ATOM     40  C   UNL     1      -2.709  -5.101   0.228  1.00  0.00     0.046 A 
ATOM     41  C   UNL     1      -1.534  -4.697   0.853  1.00  0.00     0.115 A 
BRANCH  41  42
ATOM     42  O   UNL     1      -1.440  -4.629   2.212  1.00  0.00    -0.508 OA
ATOM     43  H   UNL     1      -0.560  -4.288   2.440  1.00  0.00     0.293 HD
ENDBRANCH  41  42
ENDBRANCH  35  36
ENDBRANCH  34  35
BRANCH  34  44
ATOM     44  C   UNL     1      -2.124  -6.810  -5.066  1.00  0.00     0.243 C 
ATOM     45  O   UNL     1      -1.774  -7.588  -5.949  1.00  0.00    -0.273 OA
ATOM     46  N   UNL     1      -3.391  -6.268  -5.033  1.00  0.00    -0.341 N 
ATOM     47  H   UNL     1      -3.599  -5.539  -4.355  1.00  0.00     0.164 HD
BRANCH  46  48
ATOM     48  C   UNL     1      -4.439  -6.610  -5.997  1.00  0.00     0.196 C 
BRANCH  48  49
ATOM     49  C   UNL     1      -3.875  -6.708  -7.425  1.00  0.00     0.072 C 
BRANCH  49  50
ATOM     50  C   UNL     1      -4.883  -6.303  -8.477  1.00  0.00    -0.045 A 
ATOM     51  C   UNL     1      -6.031  -5.589  -8.107  1.00  0.00     0.007 A 
ATOM     52  C   UNL     1      -4.699  -6.650  -9.822  1.00  0.00     0.007 A 
ATOM     53  C   UNL     1      -6.975  -5.222  -9.067  1.00  0.00     0.046 A 
ATOM     54  C   UNL     1      -5.644  -6.283 -10.783  1.00  0.00     0.046 A 
ATOM     55  C   UNL     1      -6.774  -5.571 -10.397  1.00  0.00     0.115 A 
BRANCH  55  56
ATOM     56  O   UNL     1      -7.720  -5.195 -11.304  1.00  0.00    -0.508 OA
ATOM     57  H   UNL     1      -7.622  -5.748 -12.096  1.00  0.00     0.293 HD
ENDBRANCH  55  56
ENDBRANCH  49  50
ENDBRANCH  48  49
BRANCH  48  58
ATOM     58  C   UNL     1      -5.066  -7.952  -5.598  1.00  0.00     0.326 C 
ATOM     59  O   UNL     1      -6.078  -8.129  -4.939  1.00  0.00    -0.250 OA
BRANCH  58  60
ATOM     60  O   UNL     1      -4.387  -9.029  -6.069  1.00  0.00    -0.480 OA
ATOM     61  H   UNL     1      -3.471  -8.690  -6.172  1.00  0.00     0.296 HD
ENDBRANCH  58  60
ENDBRANCH  48  58
ENDBRANCH  46  48
ENDBRANCH  34  44
ENDBRANCH  32  34
ENDBRANCH  25  30
ENDBRANCH  23  25
ENDBRANCH   2  23
TORSDOF 28
ENDMDL
MODEL 3
REMARK VINA RESULT:    -6.635      3.042      6.369
REMARK INTER + INTRA:         -22.607
REMARK INTER:                 -18.160
REMARK INTRA:                  -4.446
REMARK UNBOUND:                -6.081
REMARK SMILES CCCCCCC[C@H](N)[C@H](O)C(=O)N[C@H](C)C(=O)N(C)[C@H](CC(C)C)C(=O)N[C@@H](Cc1ccc(O)cc1)C(=O)N[C@@H](Cc1ccc(O)cc1)C(=O)O
REMARK SMILES IDX 18 1 17 2 15 3 16 4 14 5 12 6 13 7 10 9 11 10 8 12 9 13 7 16
REMARK SMILES IDX 6 17 5 18 4 19 3 20 2 21 1 22 19 23 20 24 21 25 22 26 23 27
REMARK SMILES IDX 24 28 25 29 26 30 27 31 28 32 29 34 30 35 31 36 32 37 37 38
REMARK SMILES IDX 33 39 36 40 34 41 35 42 38 44 39 45 40 46 41 48 42 49 43 50
REMARK SMILES IDX 44 51 49 52 45 53 48 54 46 55 47 56 50 58 51 59 52 60
REMARK H PARENT 14 8 11 11 9 14 9 15 28 33 35 43 40 47 47 57 52 61
ROOT
ATOM      1  O   UNL     1      -1.170  -7.219  -0.811  1.00  0.00    -0.272 OA
ATOM      2  C   UNL     1      -2.297  -7.389  -1.300  1.00  0.00     0.245 C 
ENDROOT
BRANCH   2   3
ATOM      3  C   UNL     1      -3.401  -6.346  -0.996  1.00  0.00     0.168 C 
ATOM      4  C   UNL     1      -4.363  -6.869   0.064  1.00  0.00     0.041 C 
BRANCH   3   5
ATOM      5  N   UNL     1      -2.912  -5.014  -0.675  1.00  0.00    -0.342 N 
ATOM      6  C   UNL     1      -2.734  -4.050  -1.645  1.00  0.00     0.251 C 
ATOM      7  O   UNL     1      -2.929  -4.249  -2.840  1.00  0.00    -0.272 OA
ATOM      8  H   UNL     1      -2.683  -4.743   0.278  1.00  0.00     0.164 HD
BRANCH   6   9
ATOM      9  C   UNL     1      -2.348  -2.682  -1.060  1.00  0.00     0.219 C 
BRANCH   9  10
ATOM     10  O   UNL     1      -2.724  -2.544   0.315  1.00  0.00    -0.382 OA
ATOM     11  H   UNL     1      -2.657  -3.459   0.667  1.00  0.00     0.211 HD
ENDBRANCH   9  10
BRANCH   9  12
ATOM     12  C   UNL     1      -0.850  -2.335  -1.259  1.00  0.00     0.089 C 
BRANCH  12  13
ATOM     13  N   UNL     1      -0.100  -3.597  -1.454  1.00  0.00    -0.325 NA
ATOM     14  H   UNL     1       0.317  -3.599  -2.387  1.00  0.00     0.119 HD
ATOM     15  H   UNL     1      -0.760  -4.378  -1.456  1.00  0.00     0.119 HD
ENDBRANCH  12  13
BRANCH  12  16
ATOM     16  C   UNL     1      -0.530  -1.344  -2.403  1.00  0.00     0.022 C 
BRANCH  16  17
ATOM     17  C   UNL     1       0.406  -1.788  -3.536  1.00  0.00     0.002 C 
BRANCH  17  18
ATOM     18  C   UNL     1       1.848  -1.303  -3.409  1.00  0.00     0.000 C 
BRANCH  18  19
ATOM     19  C   UNL     1       2.896  -2.414  -3.560  1.00  0.00    -0.000 C 
BRANCH  19  20
ATOM     20  C   UNL     1       2.398  -3.689  -4.247  1.00  0.00    -0.000 C 
BRANCH  20  21
ATOM     21  C   UNL     1       3.145  -4.001  -5.546  1.00  0.00    -0.003 C 
ATOM     22  C   UNL     1       2.478  -5.133  -6.311  1.00  0.00     0.004 C 
ENDBRANCH  20  21
ENDBRANCH  19  20
ENDBRANCH  18  19
ENDBRANCH  17  18
ENDBRANCH  16  17
ENDBRANCH  12  16
ENDBRANCH   9  12
ENDBRANCH   6   9
ENDBRANCH   3   5
ENDBRANCH   2   3
BRANCH   2  23
ATOM     23  N   UNL     1      -2.516  -8.428  -2.199  1.00  0.00    -0.332 N 
ATOM     24  C   UNL     1      -3.081  -9.721  -1.844  1.00  0.00     0.147 C 
BRANCH  23  25
ATOM     25  C   UNL     1      -2.292  -8.221  -3.656  1.00  0.00     0.174 C 
BRANCH  25  26
ATOM     26  C   UNL     1      -1.305  -7.068  -3.955  1.00  0.00     0.038 C 
BRANCH  26  27
ATOM     27  C   UNL     1      -0.042  -7.422  -4.771  1.00  0.00    -0.015 C 
ATOM     28  C   UNL     1       1.193  -7.601  -3.888  1.00  0.00     0.007 C 
ATOM     29  C   UNL     1      -0.228  -8.631  -5.685  1.00  0.00     0.007 C 
ENDBRANCH  26  27
ENDBRANCH  25  26
BRANCH  25  30
ATOM     30  C   UNL     1      -3.647  -8.085  -4.388  1.00  0.00     0.243 C 
ATOM     31  O   UNL     1      -4.255  -9.065  -4.816  1.00  0.00    -0.273 OA
ATOM     32  N   UNL     1      -4.117  -6.805  -4.534  1.00  0.00    -0.342 N 
ATOM     33  H   UNL     1      -3.628  -6.061  -4.030  1.00  0.00     0.164 HD
BRANCH  32  34
ATOM     34  C   UNL     1      -5.369  -6.485  -5.225  1.00  0.00     0.175 C 
BRANCH  34  35
ATOM     35  C   UNL     1      -6.082  -5.294  -4.566  1.00  0.00     0.070 C 
BRANCH  35  36
ATOM     36  C   UNL     1      -7.458  -5.649  -4.048  1.00  0.00    -0.045 A 
ATOM     37  C   UNL     1      -7.609  -6.677  -3.106  1.00  0.00     0.007 A 
ATOM     38  C   UNL     1      -8.596  -4.979  -4.514  1.00  0.00     0.007 A 
ATOM     39  C   UNL     1      -8.875  -7.021  -2.632  1.00  0.00     0.046 A 
ATOM     40  C   UNL     1      -9.865  -5.324  -4.042  1.00  0.00     0.046 A 
ATOM     41  C   UNL     1      -9.992  -6.342  -3.103  1.00  0.00     0.115 A 
BRANCH  41  42
ATOM     42  O   UNL     1     -11.212  -6.711  -2.618  1.00  0.00    -0.508 OA
ATOM     43  H   UNL     1     -11.363  -7.642  -2.850  1.00  0.00     0.293 HD
ENDBRANCH  41  42
ENDBRANCH  35  36
ENDBRANCH  34  35
BRANCH  34  44
ATOM     44  C   UNL     1      -5.040  -6.212  -6.710  1.00  0.00     0.243 C 
ATOM     45  O   UNL     1      -3.934  -5.877  -7.125  1.00  0.00    -0.273 OA
ATOM     46  N   UNL     1      -6.146  -6.250  -7.533  1.00  0.00    -0.341 N 
ATOM     47  H   UNL     1      -7.061  -6.417  -7.123  1.00  0.00     0.164 HD
BRANCH  46  48
ATOM     48  C   UNL     1      -6.093  -5.958  -8.967  1.00  0.00     0.196 C 
BRANCH  48  49
ATOM     49  C   UNL     1      -5.985  -7.247  -9.798  1.00  0.00     0.072 C 
BRANCH  49  50
ATOM     50  C   UNL     1      -4.591  -7.477 -10.337  1.00  0.00    -0.045 A 
ATOM     51  C   UNL     1      -4.242  -8.730 -10.860  1.00  0.00     0.007 A 
ATOM     52  C   UNL     1      -3.629  -6.460 -10.303  1.00  0.00     0.007 A 
ATOM     53  C   UNL     1      -2.955  -8.958 -11.348  1.00  0.00     0.046 A 
ATOM     54  C   UNL     1      -2.340  -6.688 -10.790  1.00  0.00     0.046 A 
ATOM     55  C   UNL     1      -2.014  -7.936 -11.310  1.00  0.00     0.115 A 
BRANCH  55  56
ATOM     56  O   UNL     1      -0.767  -8.200 -11.794  1.00  0.00    -0.508 OA
ATOM     57  H   UNL     1      -0.595  -9.150 -11.694  1.00  0.00     0.293 HD
ENDBRANCH  55  56
ENDBRANCH  49  50
ENDBRANCH  48  49
BRANCH  48  58
ATOM     58  C   UNL     1      -7.362  -5.192  -9.367  1.00  0.00     0.326 C 
ATOM     59  O   UNL     1      -7.430  -4.068  -9.837  1.00  0.00    -0.250 OA
BRANCH  58  60
ATOM     60  O   UNL     1      -8.505  -5.896  -9.166  1.00  0.00    -0.480 OA
ATOM     61  H   UNL     1      -8.491  -6.079  -8.202  1.00  0.00     0.296 HD
ENDBRANCH  58  60
ENDBRANCH  48  58
ENDBRANCH  46  48
ENDBRANCH  34  44
ENDBRANCH  32  34
ENDBRANCH  25  30
ENDBRANCH  23  25
ENDBRANCH   2  23
TORSDOF 28
ENDMDL
MODEL 4
REMARK VINA RESULT:    -6.622      2.535      8.387
REMARK INTER + INTRA:         -22.574
REMARK INTER:                 -17.874
REMARK INTRA:                  -4.700
REMARK UNBOUND:                -6.081
REMARK SMILES CCCCCCC[C@H](N)[C@H](O)C(=O)N[C@H](C)C(=O)N(C)[C@H](CC(C)C)C(=O)N[C@@H](Cc1ccc(O)cc1)C(=O)N[C@@H](Cc1ccc(O)cc1)C(=O)O
REMARK SMILES IDX 18 1 17 2 15 3 16 4 14 5 12 6 13 7 10 9 11 10 8 12 9 13 7 16
REMARK SMILES IDX 6 17 5 18 4 19 3 20 2 21 1 22 19 23 20 24 21 25 22 26 23 27
REMARK SMILES IDX 24 28 25 29 26 30 27 31 28 32 29 34 30 35 31 36 32 37 37 38
REMARK SMILES IDX 33 39 36 40 34 41 35 42 38 44 39 45 40 46 41 48 42 49 43 50
REMARK SMILES IDX 44 51 49 52 45 53 48 54 46 55 47 56 50 58 51 59 52 60
REMARK H PARENT 14 8 11 11 9 14 9 15 28 33 35 43 40 47 47 57 52 61
ROOT
ATOM      1  O   UNL     1      -1.262  -6.130  -3.913  1.00  0.00    -0.272 OA
ATOM      2  C   UNL     1      -0.868  -6.922  -4.781  1.00  0.00     0.245 C 
ENDROOT
BRANCH   2   3
ATOM      3  C   UNL     1      -1.922  -7.707  -5.602  1.00  0.00     0.168 C 
ATOM      4  C   UNL     1      -2.956  -8.348  -4.683  1.00  0.00     0.041 C 
BRANCH   3   5
ATOM      5  N   UNL     1      -2.546  -6.952  -6.677  1.00  0.00    -0.342 N 
ATOM      6  C   UNL     1      -2.135  -7.076  -7.987  1.00  0.00     0.251 C 
ATOM      7  O   UNL     1      -1.201  -7.788  -8.339  1.00  0.00    -0.272 OA
ATOM      8  H   UNL     1      -3.309  -6.302  -6.503  1.00  0.00     0.164 HD
BRANCH   6   9
ATOM      9  C   UNL     1      -3.027  -6.295  -8.966  1.00  0.00     0.219 C 
BRANCH   9  10
ATOM     10  O   UNL     1      -2.272  -5.504  -9.891  1.00  0.00    -0.382 OA
ATOM     11  H   UNL     1      -2.360  -4.591  -9.540  1.00  0.00     0.211 HD
ENDBRANCH   9  10
BRANCH   9  12
ATOM     12  C   UNL     1      -4.044  -7.196  -9.714  1.00  0.00     0.089 C 
BRANCH  12  13
ATOM     13  N   UNL     1      -4.351  -8.365  -8.859  1.00  0.00    -0.325 NA
ATOM     14  H   UNL     1      -3.999  -8.192  -7.915  1.00  0.00     0.119 HD
ATOM     15  H   UNL     1      -3.821  -9.171  -9.197  1.00  0.00     0.119 HD
ENDBRANCH  12  13
BRANCH  12  16
ATOM     16  C   UNL     1      -5.355  -6.508 -10.165  1.00  0.00     0.022 C 
BRANCH  16  17
ATOM     17  C   UNL     1      -6.660  -6.827  -9.422  1.00  0.00     0.002 C 
BRANCH  17  18
ATOM     18  C   UNL     1      -7.736  -5.748  -9.518  1.00  0.00     0.000 C 
BRANCH  18  19
ATOM     19  C   UNL     1      -8.295  -5.548 -10.933  1.00  0.00    -0.000 C 
BRANCH  19  20
ATOM     20  C   UNL     1      -9.312  -6.600 -11.386  1.00  0.00    -0.000 C 
BRANCH  20  21
ATOM     21  C   UNL     1     -10.751  -6.246 -11.002  1.00  0.00    -0.003 C 
ATOM     22  C   UNL     1     -11.562  -7.492 -10.681  1.00  0.00     0.004 C 
ENDBRANCH  20  21
ENDBRANCH  19  20
ENDBRANCH  18  19
ENDBRANCH  17  18
ENDBRANCH  16  17
ENDBRANCH  12  16
ENDBRANCH   9  12
ENDBRANCH   6   9
ENDBRANCH   3   5
ENDBRANCH   2   3
BRANCH   2  23
ATOM     23  N   UNL     1       0.487  -7.002  -5.086  1.00  0.00    -0.332 N 
ATOM     24  C   UNL     1       1.210  -8.244  -5.314  1.00  0.00     0.147 C 
BRANCH  23  25
ATOM     25  C   UNL     1       1.276  -5.763  -5.331  1.00  0.00     0.174 C 
BRANCH  25  26
ATOM     26  C   UNL     1       2.594  -6.030  -6.096  1.00  0.00     0.038 C 
BRANCH  26  27
ATOM     27  C   UNL     1       3.037  -4.962  -7.120  1.00  0.00    -0.015 C 
ATOM     28  C   UNL     1       4.553  -4.931  -7.313  1.00  0.00     0.007 C 
ATOM     29  C   UNL     1       2.327  -5.080  -8.466  1.00  0.00     0.007 C 
ENDBRANCH  26  27
ENDBRANCH  25  26
BRANCH  25  30
ATOM     30  C   UNL     1       1.470  -4.987  -4.009  1.00  0.00     0.243 C 
ATOM     31  O   UNL     1       2.240  -5.378  -3.133  1.00  0.00    -0.273 OA
ATOM     32  N   UNL     1       0.726  -3.842  -3.878  1.00  0.00    -0.342 N 
ATOM     33  H   UNL     1       0.220  -3.509  -4.703  1.00  0.00     0.164 HD
BRANCH  32  34
ATOM     34  C   UNL     1       0.762  -2.995  -2.683  1.00  0.00     0.175 C 
BRANCH  34  35
ATOM     35  C   UNL     1       1.318  -1.599  -3.004  1.00  0.00     0.070 C 
BRANCH  35  36
ATOM     36  C   UNL     1       2.570  -1.649  -3.850  1.00  0.00    -0.045 A 
ATOM     37  C   UNL     1       2.519  -1.272  -5.201  1.00  0.00     0.007 A 
ATOM     38  C   UNL     1       3.785  -2.089  -3.310  1.00  0.00     0.007 A 
ATOM     39  C   UNL     1       3.666  -1.328  -5.993  1.00  0.00     0.046 A 
ATOM     40  C   UNL     1       4.934  -2.146  -4.103  1.00  0.00     0.046 A 
ATOM     41  C   UNL     1       4.864  -1.763  -5.439  1.00  0.00     0.115 A 
BRANCH  41  42
ATOM     42  O   UNL     1       5.961  -1.805  -6.248  1.00  0.00    -0.508 OA
ATOM     43  H   UNL     1       5.712  -2.251  -7.075  1.00  0.00     0.293 HD
ENDBRANCH  41  42
ENDBRANCH  35  36
ENDBRANCH  34  35
BRANCH  34  44
ATOM     44  C   UNL     1      -0.668  -2.927  -2.102  1.00  0.00     0.243 C 
ATOM     45  O   UNL     1      -1.285  -1.886  -1.895  1.00  0.00    -0.273 OA
ATOM     46  N   UNL     1      -1.158  -4.154  -1.705  1.00  0.00    -0.341 N 
ATOM     47  H   UNL     1      -0.563  -4.974  -1.790  1.00  0.00     0.164 HD
BRANCH  46  48
ATOM     48  C   UNL     1      -2.463  -4.331  -1.064  1.00  0.00     0.196 C 
BRANCH  48  49
ATOM     49  C   UNL     1      -2.967  -5.777  -1.211  1.00  0.00     0.072 C 
BRANCH  49  50
ATOM     50  C   UNL     1      -4.244  -5.869  -2.015  1.00  0.00    -0.045 A 
ATOM     51  C   UNL     1      -5.212  -6.828  -1.683  1.00  0.00     0.007 A 
ATOM     52  C   UNL     1      -4.471  -5.020  -3.106  1.00  0.00     0.007 A 
ATOM     53  C   UNL     1      -6.388  -6.931  -2.425  1.00  0.00     0.046 A 
ATOM     54  C   UNL     1      -5.649  -5.124  -3.850  1.00  0.00     0.046 A 
ATOM     55  C   UNL     1      -6.598  -6.079  -3.503  1.00  0.00     0.115 A 
BRANCH  55  56
ATOM     56  O   UNL     1      -7.760  -6.213  -4.204  1.00  0.00    -0.508 OA
ATOM     57  H   UNL     1      -8.329  -5.454  -4.000  1.00  0.00     0.293 HD
ENDBRANCH  55  56
ENDBRANCH  49  50
ENDBRANCH  48  49
BRANCH  48  58
ATOM     58  C   UNL     1      -2.340  -3.978   0.425  1.00  0.00     0.326 C 
ATOM     59  O   UNL     1      -1.947  -4.701   1.326  1.00  0.00    -0.250 OA
BRANCH  58  60
ATOM     60  O   UNL     1      -2.710  -2.704   0.711  1.00  0.00    -0.480 OA
ATOM     61  H   UNL     1      -3.057  -2.372  -0.145  1.00  0.00     0.296 HD
ENDBRANCH  58  60
ENDBRANCH  48  58
ENDBRANCH  46  48
ENDBRANCH  34  44
ENDBRANCH  32  34
ENDBRANCH  25  30
ENDBRANCH  23  25
ENDBRANCH   2  23
TORSDOF 28
ENDMDL
MODEL 5
REMARK VINA RESULT:    -6.608      1.655      2.199
REMARK INTER + INTRA:         -22.540
REMARK INTER:                 -16.803
REMARK INTRA:                  -5.737
REMARK UNBOUND:                -6.081
REMARK SMILES CCCCCCC[C@H](N)[C@H](O)C(=O)N[C@H](C)C(=O)N(C)[C@H](CC(C)C)C(=O)N[C@@H](Cc1ccc(O)cc1)C(=O)N[C@@H](Cc1ccc(O)cc1)C(=O)O
REMARK SMILES IDX 18 1 17 2 15 3 16 4 14 5 12 6 13 7 10 9 11 10 8 12 9 13 7 16
REMARK SMILES IDX 6 17 5 18 4 19 3 20 2 21 1 22 19 23 20 24 21 25 22 26 23 27
REMARK SMILES IDX 24 28 25 29 26 30 27 31 28 32 29 34 30 35 31 36 32 37 37 38
REMARK SMILES IDX 33 39 36 40 34 41 35 42 38 44 39 45 40 46 41 48 42 49 43 50
REMARK SMILES IDX 44 51 49 52 45 53 48 54 46 55 47 56 50 58 51 59 52 60
REMARK H PARENT 14 8 11 11 9 14 9 15 28 33 35 43 40 47 47 57 52 61
ROOT
ATOM      1  O   UNL     1       1.153  -5.948  -7.822  1.00  0.00    -0.272 OA
ATOM      2  C   UNL     1       2.261  -5.944  -7.266  1.00  0.00     0.245 C 
ENDROOT
BRANCH   2   3
ATOM      3  C   UNL     1       3.238  -4.780  -7.569  1.00  0.00     0.168 C 
ATOM      4  C   UNL     1       3.514  -4.682  -9.066  1.00  0.00     0.041 C 
BRANCH   3   5
ATOM      5  N   UNL     1       2.854  -3.496  -7.003  1.00  0.00    -0.342 N 
ATOM      6  C   UNL     1       3.735  -2.732  -6.268  1.00  0.00     0.251 C 
ATOM      7  O   UNL     1       4.879  -3.087  -6.002  1.00  0.00    -0.272 OA
ATOM      8  H   UNL     1       1.919  -3.113  -7.128  1.00  0.00     0.164 HD
BRANCH   6   9
ATOM      9  C   UNL     1       3.160  -1.357  -5.894  1.00  0.00     0.219 C 
BRANCH   9  10
ATOM     10  O   UNL     1       2.096  -0.948  -6.762  1.00  0.00    -0.382 OA
ATOM     11  H   UNL     1       1.441  -1.677  -6.684  1.00  0.00     0.211 HD
ENDBRANCH   9  10
BRANCH   9  12
ATOM     12  C   UNL     1       2.726  -1.262  -4.408  1.00  0.00     0.089 C 
BRANCH  12  13
ATOM     13  N   UNL     1       2.847   0.149  -3.974  1.00  0.00    -0.325 NA
ATOM     14  H   UNL     1       1.968   0.445  -3.546  1.00  0.00     0.119 HD
ATOM     15  H   UNL     1       2.954   0.741  -4.801  1.00  0.00     0.119 HD
ENDBRANCH  12  13
BRANCH  12  16
ATOM     16  C   UNL     1       1.312  -1.800  -4.079  1.00  0.00     0.022 C 
BRANCH  16  17
ATOM     17  C   UNL     1       0.736  -1.576  -2.674  1.00  0.00     0.002 C 
BRANCH  17  18
ATOM     18  C   UNL     1      -0.526  -0.718  -2.624  1.00  0.00     0.000 C 
BRANCH  18  19
ATOM     19  C   UNL     1      -1.670  -1.338  -1.810  1.00  0.00    -0.000 C 
BRANCH  19  20
ATOM     20  C   UNL     1      -1.730  -2.868  -1.832  1.00  0.00    -0.000 C 
BRANCH  20  21
ATOM     21  C   UNL     1      -1.519  -3.496  -0.452  1.00  0.00    -0.003 C 
ATOM     22  C   UNL     1      -0.337  -4.453  -0.453  1.00  0.00     0.004 C 
ENDBRANCH  20  21
ENDBRANCH  19  20
ENDBRANCH  18  19
ENDBRANCH  17  18
ENDBRANCH  16  17
ENDBRANCH  12  16
ENDBRANCH   9  12
ENDBRANCH   6   9
ENDBRANCH   3   5
ENDBRANCH   2   3
BRANCH   2  23
ATOM     23  N   UNL     1       2.559  -6.899  -6.300  1.00  0.00    -0.332 N 
ATOM     24  C   UNL     1       3.074  -8.230  -6.586  1.00  0.00     0.147 C 
BRANCH  23  25
ATOM     25  C   UNL     1       2.482  -6.555  -4.854  1.00  0.00     0.174 C 
BRANCH  25  26
ATOM     26  C   UNL     1       3.788  -6.873  -4.089  1.00  0.00     0.038 C 
BRANCH  26  27
ATOM     27  C   UNL     1       4.173  -5.920  -2.935  1.00  0.00    -0.015 C 
ATOM     28  C   UNL     1       5.686  -5.789  -2.765  1.00  0.00     0.007 C 
ATOM     29  C   UNL     1       3.523  -4.543  -3.041  1.00  0.00     0.007 C 
ENDBRANCH  26  27
ENDBRANCH  25  26
BRANCH  25  30
ATOM     30  C   UNL     1       1.222  -7.190  -4.222  1.00  0.00     0.243 C 
ATOM     31  O   UNL     1       1.249  -7.723  -3.114  1.00  0.00    -0.273 OA
ATOM     32  N   UNL     1       0.081  -7.123  -4.979  1.00  0.00    -0.342 N 
ATOM     33  H   UNL     1       0.104  -6.543  -5.821  1.00  0.00     0.164 HD
BRANCH  32  34
ATOM     34  C   UNL     1      -1.199  -7.695  -4.552  1.00  0.00     0.175 C 
BRANCH  34  35
ATOM     35  C   UNL     1      -2.049  -6.662  -3.798  1.00  0.00     0.070 C 
BRANCH  35  36
ATOM     36  C   UNL     1      -2.314  -7.058  -2.362  1.00  0.00    -0.045 A 
ATOM     37  C   UNL     1      -3.273  -6.364  -1.608  1.00  0.00     0.007 A 
ATOM     38  C   UNL     1      -1.596  -8.099  -1.760  1.00  0.00     0.007 A 
ATOM     39  C   UNL     1      -3.514  -6.713  -0.279  1.00  0.00     0.046 A 
ATOM     40  C   UNL     1      -1.835  -8.448  -0.429  1.00  0.00     0.046 A 
ATOM     41  C   UNL     1      -2.794  -7.752   0.300  1.00  0.00     0.115 A 
BRANCH  41  42
ATOM     42  O   UNL     1      -3.058  -8.059   1.602  1.00  0.00    -0.508 OA
ATOM     43  H   UNL     1      -3.861  -8.606   1.629  1.00  0.00     0.293 HD
ENDBRANCH  41  42
ENDBRANCH  35  36
ENDBRANCH  34  35
BRANCH  34  44
ATOM     44  C   UNL     1      -1.924  -8.235  -5.806  1.00  0.00     0.243 C 
ATOM     45  O   UNL     1      -1.836  -9.389  -6.216  1.00  0.00    -0.273 OA
ATOM     46  N   UNL     1      -2.591  -7.259  -6.516  1.00  0.00    -0.341 N 
ATOM     47  H   UNL     1      -2.538  -6.294  -6.200  1.00  0.00     0.164 HD
BRANCH  46  48
ATOM     48  C   UNL     1      -3.295  -7.517  -7.775  1.00  0.00     0.196 C 
BRANCH  48  49
ATOM     49  C   UNL     1      -4.819  -7.406  -7.597  1.00  0.00     0.072 C 
BRANCH  49  50
ATOM     50  C   UNL     1      -5.205  -6.679  -6.329  1.00  0.00    -0.045 A 
ATOM     51  C   UNL     1      -5.555  -7.409  -5.184  1.00  0.00     0.007 A 
ATOM     52  C   UNL     1      -5.242  -5.280  -6.283  1.00  0.00     0.007 A 
ATOM     53  C   UNL     1      -5.926  -6.750  -4.012  1.00  0.00     0.046 A 
ATOM     54  C   UNL     1      -5.615  -4.619  -5.110  1.00  0.00     0.046 A 
ATOM     55  C   UNL     1      -5.953  -5.361  -3.984  1.00  0.00     0.115 A 
BRANCH  55  56
ATOM     56  O   UNL     1      -6.323  -4.755  -2.820  1.00  0.00    -0.508 OA
ATOM     57  H   UNL     1      -6.585  -3.842  -3.020  1.00  0.00     0.293 HD
ENDBRANCH  55  56
ENDBRANCH  49  50
ENDBRANCH  48  49
BRANCH  48  58
ATOM     58  C   UNL     1      -2.824  -6.504  -8.827  1.00  0.00     0.326 C 
ATOM     59  O   UNL     1      -3.521  -5.783  -9.522  1.00  0.00    -0.250 OA
BRANCH  58  60
ATOM     60  O   UNL     1      -1.474  -6.435  -8.946  1.00  0.00    -0.480 OA
ATOM     61  H   UNL     1      -1.281  -5.485  -8.785  1.00  0.00     0.296 HD
ENDBRANCH  58  60
ENDBRANCH  48  58
ENDBRANCH  46  48
ENDBRANCH  34  44
ENDBRANCH  32  34
ENDBRANCH  25  30
ENDBRANCH  23  25
ENDBRANCH   2  23
TORSDOF 28
ENDMDL
MODEL 6
REMARK VINA RESULT:    -6.502      2.224      3.732
REMARK INTER + INTRA:         -22.274
REMARK INTER:                 -17.277
REMARK INTRA:                  -4.998
REMARK UNBOUND:                -6.081
REMARK SMILES CCCCCCC[C@H](N)[C@H](O)C(=O)N[C@H](C)C(=O)N(C)[C@H](CC(C)C)C(=O)N[C@@H](Cc1ccc(O)cc1)C(=O)N[C@@H](Cc1ccc(O)cc1)C(=O)O
REMARK SMILES IDX 18 1 17 2 15 3 16 4 14 5 12 6 13 7 10 9 11 10 8 12 9 13 7 16
REMARK SMILES IDX 6 17 5 18 4 19 3 20 2 21 1 22 19 23 20 24 21 25 22 26 23 27
REMARK SMILES IDX 24 28 25 29 26 30 27 31 28 32 29 34 30 35 31 36 32 37 37 38
REMARK SMILES IDX 33 39 36 40 34 41 35 42 38 44 39 45 40 46 41 48 42 49 43 50
REMARK SMILES IDX 44 51 49 52 45 53 48 54 46 55 47 56 50 58 51 59 52 60
REMARK H PARENT 14 8 11 11 9 14 9 15 28 33 35 43 40 47 47 57 52 61
ROOT
ATOM      1  O   UNL     1       1.278  -5.503  -5.902  1.00  0.00    -0.272 OA
ATOM      2  C   UNL     1       1.888  -5.989  -6.866  1.00  0.00     0.245 C 
ENDROOT
BRANCH   2   3
ATOM      3  C   UNL     1       2.925  -5.108  -7.608  1.00  0.00     0.168 C 
ATOM      4  C   UNL     1       2.930  -5.418  -9.100  1.00  0.00     0.041 C 
BRANCH   3   5
ATOM      5  N   UNL     1       2.808  -3.681  -7.351  1.00  0.00    -0.342 N 
ATOM      6  C   UNL     1       3.554  -3.053  -6.376  1.00  0.00     0.251 C 
ATOM      7  O   UNL     1       4.330  -3.644  -5.633  1.00  0.00    -0.272 OA
ATOM      8  H   UNL     1       2.171  -3.091  -7.881  1.00  0.00     0.164 HD
BRANCH   6   9
ATOM      9  C   UNL     1       3.373  -1.526  -6.380  1.00  0.00     0.219 C 
BRANCH   9  10
ATOM     10  O   UNL     1       2.061  -1.127  -6.793  1.00  0.00    -0.382 OA
ATOM     11  H   UNL     1       1.715  -0.634  -6.017  1.00  0.00     0.211 HD
ENDBRANCH   9  10
BRANCH   9  12
ATOM     12  C   UNL     1       3.751  -0.865  -5.029  1.00  0.00     0.089 C 
BRANCH  12  13
ATOM     13  N   UNL     1       4.440   0.415  -5.311  1.00  0.00    -0.325 NA
ATOM     14  H   UNL     1       4.877   0.758  -4.454  1.00  0.00     0.119 HD
ATOM     15  H   UNL     1       3.741   1.120  -5.555  1.00  0.00     0.119 HD
ENDBRANCH  12  13
BRANCH  12  16
ATOM     16  C   UNL     1       2.585  -0.634  -4.038  1.00  0.00     0.022 C 
BRANCH  16  17
ATOM     17  C   UNL     1       1.936  -1.844  -3.353  1.00  0.00     0.002 C 
BRANCH  17  18
ATOM     18  C   UNL     1       0.412  -1.888  -3.431  1.00  0.00     0.000 C 
BRANCH  18  19
ATOM     19  C   UNL     1      -0.185  -3.284  -3.207  1.00  0.00    -0.000 C 
BRANCH  19  20
ATOM     20  C   UNL     1       0.475  -4.102  -2.093  1.00  0.00    -0.000 C 
BRANCH  20  21
ATOM     21  C   UNL     1      -0.321  -4.085  -0.785  1.00  0.00    -0.003 C 
ATOM     22  C   UNL     1      -1.754  -3.629  -1.013  1.00  0.00     0.004 C 
ENDBRANCH  20  21
ENDBRANCH  19  20
ENDBRANCH  18  19
ENDBRANCH  17  18
ENDBRANCH  16  17
ENDBRANCH  12  16
ENDBRANCH   9  12
ENDBRANCH   6   9
ENDBRANCH   3   5
ENDBRANCH   2   3
BRANCH   2  23
ATOM     23  N   UNL     1       1.727  -7.333  -7.186  1.00  0.00    -0.332 N 
ATOM     24  C   UNL     1       2.739  -8.358  -6.979  1.00  0.00     0.147 C 
BRANCH  23  25
ATOM     25  C   UNL     1       0.410  -7.839  -7.660  1.00  0.00     0.174 C 
BRANCH  25  26
ATOM     26  C   UNL     1      -0.320  -6.840  -8.589  1.00  0.00     0.038 C 
BRANCH  26  27
ATOM     27  C   UNL     1      -0.233  -7.105 -10.108  1.00  0.00    -0.015 C 
ATOM     28  C   UNL     1       0.438  -8.439 -10.431  1.00  0.00     0.007 C 
ATOM     29  C   UNL     1      -1.578  -6.993 -10.823  1.00  0.00     0.007 C 
ENDBRANCH  26  27
ENDBRANCH  25  26
BRANCH  25  30
ATOM     30  C   UNL     1      -0.444  -8.308  -6.460  1.00  0.00     0.243 C 
ATOM     31  O   UNL     1      -0.502  -9.491  -6.127  1.00  0.00    -0.273 OA
ATOM     32  N   UNL     1      -1.132  -7.323  -5.800  1.00  0.00    -0.342 N 
ATOM     33  H   UNL     1      -0.922  -6.352  -6.046  1.00  0.00     0.164 HD
BRANCH  32  34
ATOM     34  C   UNL     1      -2.011  -7.587  -4.657  1.00  0.00     0.175 C 
BRANCH  34  35
ATOM     35  C   UNL     1      -1.780  -6.571  -3.528  1.00  0.00     0.070 C 
BRANCH  35  36
ATOM     36  C   UNL     1      -2.277  -7.063  -2.187  1.00  0.00    -0.045 A 
ATOM     37  C   UNL     1      -1.470  -7.903  -1.405  1.00  0.00     0.007 A 
ATOM     38  C   UNL     1      -3.550  -6.711  -1.719  1.00  0.00     0.007 A 
ATOM     39  C   UNL     1      -1.926  -8.374  -0.173  1.00  0.00     0.046 A 
ATOM     40  C   UNL     1      -4.007  -7.183  -0.486  1.00  0.00     0.046 A 
ATOM     41  C   UNL     1      -3.189  -8.010   0.277  1.00  0.00     0.115 A 
BRANCH  41  42
ATOM     42  O   UNL     1      -3.598  -8.493   1.484  1.00  0.00    -0.508 OA
ATOM     43  H   UNL     1      -3.064  -8.072   2.178  1.00  0.00     0.293 HD
ENDBRANCH  41  42
ENDBRANCH  35  36
ENDBRANCH  34  35
BRANCH  34  44
ATOM     44  C   UNL     1      -3.471  -7.567  -5.162  1.00  0.00     0.243 C 
ATOM     45  O   UNL     1      -4.198  -8.555  -5.224  1.00  0.00    -0.273 OA
ATOM     46  N   UNL     1      -3.860  -6.345  -5.670  1.00  0.00    -0.341 N 
ATOM     47  H   UNL     1      -3.183  -5.587  -5.704  1.00  0.00     0.164 HD
BRANCH  46  48
ATOM     48  C   UNL     1      -5.175  -6.102  -6.267  1.00  0.00     0.196 C 
BRANCH  48  49
ATOM     49  C   UNL     1      -5.867  -4.889  -5.622  1.00  0.00     0.072 C 
BRANCH  49  50
ATOM     50  C   UNL     1      -7.095  -5.273  -4.830  1.00  0.00    -0.045 A 
ATOM     51  C   UNL     1      -7.011  -6.275  -3.852  1.00  0.00     0.007 A 
ATOM     52  C   UNL     1      -8.330  -4.657  -5.070  1.00  0.00     0.007 A 
ATOM     53  C   UNL     1      -8.141  -6.648  -3.124  1.00  0.00     0.046 A 
ATOM     54  C   UNL     1      -9.462  -5.031  -4.342  1.00  0.00     0.046 A 
ATOM     55  C   UNL     1      -9.357  -6.023  -3.373  1.00  0.00     0.115 A 
BRANCH  55  56
ATOM     56  O   UNL     1     -10.438  -6.418  -2.641  1.00  0.00    -0.508 OA
ATOM     57  H   UNL     1     -10.168  -7.154  -2.069  1.00  0.00     0.293 HD
ENDBRANCH  55  56
ENDBRANCH  49  50
ENDBRANCH  48  49
BRANCH  48  58
ATOM     58  C   UNL     1      -5.002  -5.856  -7.772  1.00  0.00     0.326 C 
ATOM     59  O   UNL     1      -5.881  -5.648  -8.593  1.00  0.00    -0.250 OA
BRANCH  58  60
ATOM     60  O   UNL     1      -3.707  -5.870  -8.178  1.00  0.00    -0.480 OA
ATOM     61  H   UNL     1      -3.390  -6.753  -7.891  1.00  0.00     0.296 HD
ENDBRANCH  58  60
ENDBRANCH  48  58
ENDBRANCH  46  48
ENDBRANCH  34  44
ENDBRANCH  32  34
ENDBRANCH  25  30
ENDBRANCH  23  25
ENDBRANCH   2  23
TORSDOF 28
ENDMDL
MODEL 7
REMARK VINA RESULT:    -6.435      1.767      3.068
REMARK INTER + INTRA:         -22.109
REMARK INTER:                 -17.562
REMARK INTRA:                  -4.547
REMARK UNBOUND:                -6.081
REMARK SMILES CCCCCCC[C@H](N)[C@H](O)C(=O)N[C@H](C)C(=O)N(C)[C@H](CC(C)C)C(=O)N[C@@H](Cc1ccc(O)cc1)C(=O)N[C@@H](Cc1ccc(O)cc1)C(=O)O
REMARK SMILES IDX 18 1 17 2 15 3 16 4 14 5 12 6 13 7 10 9 11 10 8 12 9 13 7 16
REMARK SMILES IDX 6 17 5 18 4 19 3 20 2 21 1 22 19 23 20 24 21 25 22 26 23 27
REMARK SMILES IDX 24 28 25 29 26 30 27 31 28 32 29 34 30 35 31 36 32 37 37 38
REMARK SMILES IDX 33 39 36 40 34 41 35 42 38 44 39 45 40 46 41 48 42 49 43 50
REMARK SMILES IDX 44 51 49 52 45 53 48 54 46 55 47 56 50 58 51 59 52 60
REMARK H PARENT 14 8 11 11 9 14 9 15 28 33 35 43 40 47 47 57 52 61
ROOT
ATOM      1  O   UNL     1       1.407  -5.647  -5.758  1.00  0.00    -0.272 OA
ATOM      2  C   UNL     1       1.961  -5.973  -6.818  1.00  0.00     0.245 C 
ENDROOT
BRANCH   2   3
ATOM      3  C   UNL     1       2.952  -4.979  -7.474  1.00  0.00     0.168 C 
ATOM      4  C   UNL     1       2.938  -5.122  -8.992  1.00  0.00     0.041 C 
BRANCH   3   5
ATOM      5  N   UNL     1       2.792  -3.594  -7.058  1.00  0.00    -0.342 N 
ATOM      6  C   UNL     1       3.876  -2.770  -6.840  1.00  0.00     0.251 C 
ATOM      7  O   UNL     1       5.040  -3.144  -6.937  1.00  0.00    -0.272 OA
ATOM      8  H   UNL     1       1.875  -3.181  -6.911  1.00  0.00     0.164 HD
BRANCH   6   9
ATOM      9  C   UNL     1       3.469  -1.317  -6.549  1.00  0.00     0.219 C 
BRANCH   9  10
ATOM     10  O   UNL     1       2.079  -1.073  -6.795  1.00  0.00    -0.382 OA
ATOM     11  H   UNL     1       1.671  -1.964  -6.724  1.00  0.00     0.211 HD
ENDBRANCH   9  10
BRANCH   9  12
ATOM     12  C   UNL     1       3.867  -0.846  -5.126  1.00  0.00     0.089 C 
BRANCH  12  13
ATOM     13  N   UNL     1       4.316   0.563  -5.209  1.00  0.00    -0.325 NA
ATOM     14  H   UNL     1       5.334   0.597  -5.123  1.00  0.00     0.119 HD
ATOM     15  H   UNL     1       3.963   1.071  -4.395  1.00  0.00     0.119 HD
ENDBRANCH  12  13
BRANCH  12  16
ATOM     16  C   UNL     1       2.782  -0.995  -4.034  1.00  0.00     0.022 C 
BRANCH  16  17
ATOM     17  C   UNL     1       2.523  -2.378  -3.422  1.00  0.00     0.002 C 
BRANCH  17  18
ATOM     18  C   UNL     1       1.117  -2.930  -3.648  1.00  0.00     0.000 C 
BRANCH  18  19
ATOM     19  C   UNL     1       0.001  -2.061  -3.054  1.00  0.00    -0.000 C 
BRANCH  19  20
ATOM     20  C   UNL     1      -0.471  -2.474  -1.657  1.00  0.00    -0.000 C 
BRANCH  20  21
ATOM     21  C   UNL     1      -0.337  -3.977  -1.399  1.00  0.00    -0.003 C 
ATOM     22  C   UNL     1      -0.489  -4.301   0.079  1.00  0.00     0.004 C 
ENDBRANCH  20  21
ENDBRANCH  19  20
ENDBRANCH  18  19
ENDBRANCH  17  18
ENDBRANCH  16  17
ENDBRANCH  12  16
ENDBRANCH   9  12
ENDBRANCH   6   9
ENDBRANCH   3   5
ENDBRANCH   2   3
BRANCH   2  23
ATOM     23  N   UNL     1       1.783  -7.254  -7.331  1.00  0.00    -0.332 N 
ATOM     24  C   UNL     1       2.828  -8.263  -7.413  1.00  0.00     0.147 C 
BRANCH  23  25
ATOM     25  C   UNL     1       0.426  -7.723  -7.723  1.00  0.00     0.174 C 
BRANCH  25  26
ATOM     26  C   UNL     1      -0.305  -6.735  -8.663  1.00  0.00     0.038 C 
BRANCH  26  27
ATOM     27  C   UNL     1      -0.389  -7.122 -10.157  1.00  0.00    -0.015 C 
ATOM     28  C   UNL     1       0.457  -8.351 -10.491  1.00  0.00     0.007 C 
ATOM     29  C   UNL     1      -1.820  -7.303 -10.658  1.00  0.00     0.007 C 
ENDBRANCH  26  27
ENDBRANCH  25  26
BRANCH  25  30
ATOM     30  C   UNL     1      -0.390  -8.104  -6.467  1.00  0.00     0.243 C 
ATOM     31  O   UNL     1      -0.239  -9.183  -5.895  1.00  0.00    -0.273 OA
ATOM     32  N   UNL     1      -1.293  -7.165  -6.039  1.00  0.00    -0.342 N 
ATOM     33  H   UNL     1      -1.261  -6.241  -6.478  1.00  0.00     0.164 HD
BRANCH  32  34
ATOM     34  C   UNL     1      -2.171  -7.365  -4.882  1.00  0.00     0.175 C 
BRANCH  34  35
ATOM     35  C   UNL     1      -1.878  -6.341  -3.775  1.00  0.00     0.070 C 
BRANCH  35  36
ATOM     36  C   UNL     1      -2.066  -6.910  -2.387  1.00  0.00    -0.045 A 
ATOM     37  C   UNL     1      -3.054  -6.384  -1.541  1.00  0.00     0.007 A 
ATOM     38  C   UNL     1      -1.249  -7.947  -1.918  1.00  0.00     0.007 A 
ATOM     39  C   UNL     1      -3.227  -6.894  -0.254  1.00  0.00     0.046 A 
ATOM     40  C   UNL     1      -1.420  -8.457  -0.629  1.00  0.00     0.046 A 
ATOM     41  C   UNL     1      -2.409  -7.926   0.192  1.00  0.00     0.115 A 
BRANCH  41  42
ATOM     42  O   UNL     1      -2.608  -8.393   1.457  1.00  0.00    -0.508 OA
ATOM     43  H   UNL     1      -3.370  -7.926   1.838  1.00  0.00     0.293 HD
ENDBRANCH  41  42
ENDBRANCH  35  36
ENDBRANCH  34  35
BRANCH  34  44
ATOM     44  C   UNL     1      -3.634  -7.283  -5.372  1.00  0.00     0.243 C 
ATOM     45  O   UNL     1      -4.588  -6.981  -4.660  1.00  0.00    -0.273 OA
ATOM     46  N   UNL     1      -3.803  -7.713  -6.671  1.00  0.00    -0.341 N 
ATOM     47  H   UNL     1      -2.998  -8.066  -7.183  1.00  0.00     0.164 HD
BRANCH  46  48
ATOM     48  C   UNL     1      -5.108  -7.791  -7.331  1.00  0.00     0.196 C 
BRANCH  48  49
ATOM     49  C   UNL     1      -4.997  -7.474  -8.831  1.00  0.00     0.072 C 
BRANCH  49  50
ATOM     50  C   UNL     1      -6.031  -6.472  -9.293  1.00  0.00    -0.045 A 
ATOM     51  C   UNL     1      -6.550  -5.536  -8.386  1.00  0.00     0.007 A 
ATOM     52  C   UNL     1      -6.499  -6.475 -10.613  1.00  0.00     0.007 A 
ATOM     53  C   UNL     1      -7.514  -4.616  -8.797  1.00  0.00     0.046 A 
ATOM     54  C   UNL     1      -7.465  -5.554 -11.024  1.00  0.00     0.046 A 
ATOM     55  C   UNL     1      -7.964  -4.631 -10.112  1.00  0.00     0.115 A 
BRANCH  55  56
ATOM     56  O   UNL     1      -8.908  -3.715 -10.472  1.00  0.00    -0.508 OA
ATOM     57  H   UNL     1      -9.552  -3.640  -9.751  1.00  0.00     0.293 HD
ENDBRANCH  55  56
ENDBRANCH  49  50
ENDBRANCH  48  49
BRANCH  48  58
ATOM     58  C   UNL     1      -5.678  -9.204  -7.144  1.00  0.00     0.326 C 
ATOM     59  O   UNL     1      -5.601 -10.141  -7.922  1.00  0.00    -0.250 OA
BRANCH  58  60
ATOM     60  O   UNL     1      -6.317  -9.378  -5.959  1.00  0.00    -0.480 OA
ATOM     61  H   UNL     1      -6.735 -10.261  -6.055  1.00  0.00     0.296 HD
ENDBRANCH  58  60
ENDBRANCH  48  58
ENDBRANCH  46  48
ENDBRANCH  34  44
ENDBRANCH  32  34
ENDBRANCH  25  30
ENDBRANCH  23  25
ENDBRANCH   2  23
TORSDOF 28
ENDMDL
MODEL 8
REMARK VINA RESULT:    -6.366      2.557      3.802
REMARK INTER + INTRA:         -21.937
REMARK INTER:                 -17.647
REMARK INTRA:                  -4.290
REMARK UNBOUND:                -6.081
REMARK SMILES CCCCCCC[C@H](N)[C@H](O)C(=O)N[C@H](C)C(=O)N(C)[C@H](CC(C)C)C(=O)N[C@@H](Cc1ccc(O)cc1)C(=O)N[C@@H](Cc1ccc(O)cc1)C(=O)O
REMARK SMILES IDX 18 1 17 2 15 3 16 4 14 5 12 6 13 7 10 9 11 10 8 12 9 13 7 16
REMARK SMILES IDX 6 17 5 18 4 19 3 20 2 21 1 22 19 23 20 24 21 25 22 26 23 27
REMARK SMILES IDX 24 28 25 29 26 30 27 31 28 32 29 34 30 35 31 36 32 37 37 38
REMARK SMILES IDX 33 39 36 40 34 41 35 42 38 44 39 45 40 46 41 48 42 49 43 50
REMARK SMILES IDX 44 51 49 52 45 53 48 54 46 55 47 56 50 58 51 59 52 60
REMARK H PARENT 14 8 11 11 9 14 9 15 28 33 35 43 40 47 47 57 52 61
ROOT
ATOM      1  O   UNL     1       1.682  -5.000  -5.660  1.00  0.00    -0.272 OA
ATOM      2  C   UNL     1       2.574  -5.622  -6.255  1.00  0.00     0.245 C 
ENDROOT
BRANCH   2   3
ATOM      3  C   UNL     1       3.642  -4.819  -7.038  1.00  0.00     0.168 C 
ATOM      4  C   UNL     1       3.092  -4.353  -8.382  1.00  0.00     0.041 C 
BRANCH   3   5
ATOM      5  N   UNL     1       4.252  -3.727  -6.295  1.00  0.00    -0.342 N 
ATOM      6  C   UNL     1       3.710  -2.459  -6.286  1.00  0.00     0.251 C 
ATOM      7  O   UNL     1       2.712  -2.147  -6.927  1.00  0.00    -0.272 OA
ATOM      8  H   UNL     1       5.103  -3.857  -5.753  1.00  0.00     0.164 HD
BRANCH   6   9
ATOM      9  C   UNL     1       4.438  -1.508  -5.324  1.00  0.00     0.219 C 
BRANCH   9  10
ATOM     10  O   UNL     1       3.908  -0.177  -5.356  1.00  0.00    -0.382 OA
ATOM     11  H   UNL     1       2.963  -0.299  -5.118  1.00  0.00     0.211 HD
ENDBRANCH   9  10
BRANCH   9  12
ATOM     12  C   UNL     1       4.498  -2.041  -3.869  1.00  0.00     0.089 C 
BRANCH  12  13
ATOM     13  N   UNL     1       5.815  -1.686  -3.294  1.00  0.00    -0.325 NA
ATOM     14  H   UNL     1       5.758  -1.721  -2.275  1.00  0.00     0.119 HD
ATOM     15  H   UNL     1       6.022  -0.710  -3.517  1.00  0.00     0.119 HD
ENDBRANCH  12  13
BRANCH  12  16
ATOM     16  C   UNL     1       3.363  -1.571  -2.927  1.00  0.00     0.022 C 
BRANCH  16  17
ATOM     17  C   UNL     1       2.031  -2.334  -2.923  1.00  0.00     0.002 C 
BRANCH  17  18
ATOM     18  C   UNL     1       0.965  -1.776  -3.863  1.00  0.00     0.000 C 
BRANCH  18  19
ATOM     19  C   UNL     1      -0.391  -1.525  -3.190  1.00  0.00    -0.000 C 
BRANCH  19  20
ATOM     20  C   UNL     1      -0.331  -0.724  -1.886  1.00  0.00    -0.000 C 
BRANCH  20  21
ATOM     21  C   UNL     1      -1.491  -1.038  -0.936  1.00  0.00    -0.003 C 
ATOM     22  C   UNL     1      -2.733  -1.469  -1.701  1.00  0.00     0.004 C 
ENDBRANCH  20  21
ENDBRANCH  19  20
ENDBRANCH  18  19
ENDBRANCH  17  18
ENDBRANCH  16  17
ENDBRANCH  12  16
ENDBRANCH   9  12
ENDBRANCH   6   9
ENDBRANCH   3   5
ENDBRANCH   2   3
BRANCH   2  23
ATOM     23  N   UNL     1       2.673  -7.002  -6.112  1.00  0.00    -0.332 N 
ATOM     24  C   UNL     1       3.917  -7.720  -5.877  1.00  0.00     0.147 C 
BRANCH  23  25
ATOM     25  C   UNL     1       1.445  -7.842  -6.065  1.00  0.00     0.174 C 
BRANCH  25  26
ATOM     26  C   UNL     1       0.624  -7.783  -7.374  1.00  0.00     0.038 C 
BRANCH  26  27
ATOM     27  C   UNL     1       1.395  -8.004  -8.695  1.00  0.00    -0.015 C 
ATOM     28  C   UNL     1       2.030  -9.392  -8.775  1.00  0.00     0.007 C 
ATOM     29  C   UNL     1       0.559  -7.723  -9.941  1.00  0.00     0.007 C 
ENDBRANCH  26  27
ENDBRANCH  25  26
BRANCH  25  30
ATOM     30  C   UNL     1       0.622  -7.511  -4.799  1.00  0.00     0.243 C 
ATOM     31  O   UNL     1       1.063  -7.705  -3.667  1.00  0.00    -0.273 OA
ATOM     32  N   UNL     1      -0.628  -6.994  -5.023  1.00  0.00    -0.342 N 
ATOM     33  H   UNL     1      -0.867  -6.731  -5.983  1.00  0.00     0.164 HD
BRANCH  32  34
ATOM     34  C   UNL     1      -1.558  -6.647  -3.945  1.00  0.00     0.175 C 
BRANCH  34  35
ATOM     35  C   UNL     1      -1.425  -5.170  -3.546  1.00  0.00     0.070 C 
BRANCH  35  36
ATOM     36  C   UNL     1      -1.472  -4.961  -2.049  1.00  0.00    -0.045 A 
ATOM     37  C   UNL     1      -0.320  -4.551  -1.361  1.00  0.00     0.007 A 
ATOM     38  C   UNL     1      -2.650  -5.194  -1.328  1.00  0.00     0.007 A 
ATOM     39  C   UNL     1      -0.350  -4.369   0.022  1.00  0.00     0.046 A 
ATOM     40  C   UNL     1      -2.681  -5.013   0.057  1.00  0.00     0.046 A 
ATOM     41  C   UNL     1      -1.529  -4.601   0.719  1.00  0.00     0.115 A 
BRANCH  41  42
ATOM     42  O   UNL     1      -1.516  -4.414   2.070  1.00  0.00    -0.508 OA
ATOM     43  H   UNL     1      -0.943  -5.092   2.465  1.00  0.00     0.293 HD
ENDBRANCH  41  42
ENDBRANCH  35  36
ENDBRANCH  34  35
BRANCH  34  44
ATOM     44  C   UNL     1      -2.988  -6.992  -4.416  1.00  0.00     0.243 C 
ATOM     45  O   UNL     1      -3.451  -8.128  -4.457  1.00  0.00    -0.273 OA
ATOM     46  N   UNL     1      -3.676  -5.908  -4.921  1.00  0.00    -0.341 N 
ATOM     47  H   UNL     1      -3.207  -5.007  -4.973  1.00  0.00     0.164 HD
BRANCH  46  48
ATOM     48  C   UNL     1      -5.022  -6.001  -5.489  1.00  0.00     0.196 C 
BRANCH  48  49
ATOM     49  C   UNL     1      -5.897  -4.812  -5.055  1.00  0.00     0.072 C 
BRANCH  49  50
ATOM     50  C   UNL     1      -7.196  -5.248  -4.416  1.00  0.00    -0.045 A 
ATOM     51  C   UNL     1      -8.408  -4.686  -4.844  1.00  0.00     0.007 A 
ATOM     52  C   UNL     1      -7.210  -6.194  -3.383  1.00  0.00     0.007 A 
ATOM     53  C   UNL     1      -9.612  -5.071  -4.253  1.00  0.00     0.046 A 
ATOM     54  C   UNL     1      -8.415  -6.578  -2.791  1.00  0.00     0.046 A 
ATOM     55  C   UNL     1      -9.607  -6.013  -3.232  1.00  0.00     0.115 A 
BRANCH  55  56
ATOM     56  O   UNL     1     -10.804  -6.360  -2.680  1.00  0.00    -0.508 OA
ATOM     57  H   UNL     1     -10.636  -6.760  -1.812  1.00  0.00     0.293 HD
ENDBRANCH  55  56
ENDBRANCH  49  50
ENDBRANCH  48  49
BRANCH  48  58
ATOM     58  C   UNL     1      -4.917  -6.031  -7.020  1.00  0.00     0.326 C 
ATOM     59  O   UNL     1      -5.673  -5.509  -7.823  1.00  0.00    -0.250 OA
BRANCH  58  60
ATOM     60  O   UNL     1      -3.839  -6.718  -7.475  1.00  0.00    -0.480 OA
ATOM     61  H   UNL     1      -3.223  -6.008  -7.758  1.00  0.00     0.296 HD
ENDBRANCH  58  60
ENDBRANCH  48  58
ENDBRANCH  46  48
ENDBRANCH  34  44
ENDBRANCH  32  34
ENDBRANCH  25  30
ENDBRANCH  23  25
ENDBRANCH   2  23
TORSDOF 28
ENDMDL
MODEL 9
REMARK VINA RESULT:    -6.204      2.092      7.489
REMARK INTER + INTRA:         -21.533
REMARK INTER:                 -16.775
REMARK INTRA:                  -4.758
REMARK UNBOUND:                -6.081
REMARK SMILES CCCCCCC[C@H](N)[C@H](O)C(=O)N[C@H](C)C(=O)N(C)[C@H](CC(C)C)C(=O)N[C@@H](Cc1ccc(O)cc1)C(=O)N[C@@H](Cc1ccc(O)cc1)C(=O)O
REMARK SMILES IDX 18 1 17 2 15 3 16 4 14 5 12 6 13 7 10 9 11 10 8 12 9 13 7 16
REMARK SMILES IDX 6 17 5 18 4 19 3 20 2 21 1 22 19 23 20 24 21 25 22 26 23 27
REMARK SMILES IDX 24 28 25 29 26 30 27 31 28 32 29 34 30 35 31 36 32 37 37 38
REMARK SMILES IDX 33 39 36 40 34 41 35 42 38 44 39 45 40 46 41 48 42 49 43 50
REMARK SMILES IDX 44 51 49 52 45 53 48 54 46 55 47 56 50 58 51 59 52 60
REMARK H PARENT 14 8 11 11 9 14 9 15 28 33 35 43 40 47 47 57 52 61
ROOT
ATOM      1  O   UNL     1      -0.042  -7.629  -3.765  1.00  0.00    -0.272 OA
ATOM      2  C   UNL     1       0.451  -7.855  -4.880  1.00  0.00     0.245 C 
ENDROOT
BRANCH   2   3
ATOM      3  C   UNL     1      -0.448  -8.486  -5.972  1.00  0.00     0.168 C 
ATOM      4  C   UNL     1      -1.793  -8.908  -5.390  1.00  0.00     0.041 C 
BRANCH   3   5
ATOM      5  N   UNL     1      -0.606  -7.682  -7.174  1.00  0.00    -0.342 N 
ATOM      6  C   UNL     1      -0.117  -8.094  -8.396  1.00  0.00     0.251 C 
ATOM      7  O   UNL     1       0.514  -9.133  -8.556  1.00  0.00    -0.272 OA
ATOM      8  H   UNL     1      -1.082  -6.783  -7.159  1.00  0.00     0.164 HD
BRANCH   6   9
ATOM      9  C   UNL     1      -0.523  -7.157  -9.545  1.00  0.00     0.219 C 
BRANCH   9  10
ATOM     10  O   UNL     1       0.078  -7.522 -10.793  1.00  0.00    -0.382 OA
ATOM     11  H   UNL     1       0.228  -8.489 -10.704  1.00  0.00     0.211 HD
ENDBRANCH   9  10
BRANCH   9  12
ATOM     12  C   UNL     1      -2.059  -7.009  -9.696  1.00  0.00     0.089 C 
BRANCH  12  13
ATOM     13  N   UNL     1      -2.384  -5.566  -9.772  1.00  0.00    -0.325 NA
ATOM     14  H   UNL     1      -3.347  -5.455 -10.094  1.00  0.00     0.119 HD
ATOM     15  H   UNL     1      -1.808  -5.135 -10.499  1.00  0.00     0.119 HD
ENDBRANCH  12  13
BRANCH  12  16
ATOM     16  C   UNL     1      -2.699  -7.761 -10.887  1.00  0.00     0.022 C 
BRANCH  16  17
ATOM     17  C   UNL     1      -4.111  -8.343 -10.732  1.00  0.00     0.002 C 
BRANCH  17  18
ATOM     18  C   UNL     1      -4.748  -8.131  -9.360  1.00  0.00     0.000 C 
BRANCH  18  19
ATOM     19  C   UNL     1      -5.974  -7.208  -9.377  1.00  0.00    -0.000 C 
BRANCH  19  20
ATOM     20  C   UNL     1      -6.029  -6.221 -10.546  1.00  0.00    -0.000 C 
BRANCH  20  21
ATOM     21  C   UNL     1      -7.458  -5.872 -10.970  1.00  0.00    -0.003 C 
ATOM     22  C   UNL     1      -8.079  -4.847 -10.034  1.00  0.00     0.004 C 
ENDBRANCH  20  21
ENDBRANCH  19  20
ENDBRANCH  18  19
ENDBRANCH  17  18
ENDBRANCH  16  17
ENDBRANCH  12  16
ENDBRANCH   9  12
ENDBRANCH   6   9
ENDBRANCH   3   5
ENDBRANCH   2   3
BRANCH   2  23
ATOM     23  N   UNL     1       1.745  -7.435  -5.168  1.00  0.00    -0.332 N 
ATOM     24  C   UNL     1       2.875  -8.326  -5.379  1.00  0.00     0.147 C 
BRANCH  23  25
ATOM     25  C   UNL     1       2.030  -5.993  -5.409  1.00  0.00     0.174 C 
BRANCH  25  26
ATOM     26  C   UNL     1       3.359  -5.761  -6.164  1.00  0.00     0.038 C 
BRANCH  26  27
ATOM     27  C   UNL     1       3.390  -4.603  -7.187  1.00  0.00    -0.015 C 
ATOM     28  C   UNL     1       4.807  -4.277  -7.658  1.00  0.00     0.007 C 
ATOM     29  C   UNL     1       2.463  -4.821  -8.380  1.00  0.00     0.007 C 
ENDBRANCH  26  27
ENDBRANCH  25  26
BRANCH  25  30
ATOM     30  C   UNL     1       1.919  -5.201  -4.086  1.00  0.00     0.243 C 
ATOM     31  O   UNL     1       2.567  -5.510  -3.087  1.00  0.00    -0.273 OA
ATOM     32  N   UNL     1       1.051  -4.140  -4.101  1.00  0.00    -0.342 N 
ATOM     33  H   UNL     1       0.658  -3.861  -5.004  1.00  0.00     0.164 HD
BRANCH  32  34
ATOM     34  C   UNL     1       0.798  -3.294  -2.932  1.00  0.00     0.175 C 
BRANCH  34  35
ATOM     35  C   UNL     1       1.237  -1.843  -3.187  1.00  0.00     0.070 C 
BRANCH  35  36
ATOM     36  C   UNL     1       2.576  -1.751  -3.882  1.00  0.00    -0.045 A 
ATOM     37  C   UNL     1       3.744  -2.145  -3.211  1.00  0.00     0.007 A 
ATOM     38  C   UNL     1       2.676  -1.252  -5.187  1.00  0.00     0.007 A 
ATOM     39  C   UNL     1       4.986  -2.050  -3.839  1.00  0.00     0.046 A 
ATOM     40  C   UNL     1       3.919  -1.156  -5.817  1.00  0.00     0.046 A 
ATOM     41  C   UNL     1       5.064  -1.557  -5.136  1.00  0.00     0.115 A 
BRANCH  41  42
ATOM     42  O   UNL     1       6.297  -1.478  -5.713  1.00  0.00    -0.508 OA
ATOM     43  H   UNL     1       6.947  -1.848  -5.093  1.00  0.00     0.293 HD
ENDBRANCH  41  42
ENDBRANCH  35  36
ENDBRANCH  34  35
BRANCH  34  44
ATOM     44  C   UNL     1      -0.705  -3.390  -2.586  1.00  0.00     0.243 C 
ATOM     45  O   UNL     1      -1.427  -2.425  -2.356  1.00  0.00    -0.273 OA
ATOM     46  N   UNL     1      -1.149  -4.686  -2.426  1.00  0.00    -0.341 N 
ATOM     47  H   UNL     1      -0.483  -5.450  -2.512  1.00  0.00     0.164 HD
BRANCH  46  48
ATOM     48  C   UNL     1      -2.517  -5.026  -2.032  1.00  0.00     0.196 C 
BRANCH  48  49
ATOM     49  C   UNL     1      -3.055  -6.216  -2.843  1.00  0.00     0.072 C 
BRANCH  49  50
ATOM     50  C   UNL     1      -4.006  -5.791  -3.940  1.00  0.00    -0.045 A 
ATOM     51  C   UNL     1      -3.694  -6.065  -5.279  1.00  0.00     0.007 A 
ATOM     52  C   UNL     1      -5.190  -5.105  -3.641  1.00  0.00     0.007 A 
ATOM     53  C   UNL     1      -4.557  -5.666  -6.300  1.00  0.00     0.046 A 
ATOM     54  C   UNL     1      -6.053  -4.705  -4.664  1.00  0.00     0.046 A 
ATOM     55  C   UNL     1      -5.729  -4.990  -5.985  1.00  0.00     0.115 A 
BRANCH  55  56
ATOM     56  O   UNL     1      -6.544  -4.616  -7.012  1.00  0.00    -0.508 OA
ATOM     57  H   UNL     1      -6.938  -5.415  -7.397  1.00  0.00     0.293 HD
ENDBRANCH  55  56
ENDBRANCH  49  50
ENDBRANCH  48  49
BRANCH  48  58
ATOM     58  C   UNL     1      -2.534  -5.373  -0.536  1.00  0.00     0.326 C 
ATOM     59  O   UNL     1      -2.370  -6.471  -0.030  1.00  0.00    -0.250 OA
BRANCH  58  60
ATOM     60  O   UNL     1      -2.746  -4.299   0.266  1.00  0.00    -0.480 OA
ATOM     61  H   UNL     1      -2.738  -4.686   1.168  1.00  0.00     0.296 HD
ENDBRANCH  58  60
ENDBRANCH  48  58
ENDBRANCH  46  48
ENDBRANCH  34  44
ENDBRANCH  32  34
ENDBRANCH  25  30
ENDBRANCH  23  25
ENDBRANCH   2  23
TORSDOF 28
ENDMDL
MODEL 10
REMARK VINA RESULT:    -6.161      3.666      7.998
REMARK INTER + INTRA:         -21.426
REMARK INTER:                 -17.740
REMARK INTRA:                  -3.686
REMARK UNBOUND:                -6.081
REMARK SMILES CCCCCCC[C@H](N)[C@H](O)C(=O)N[C@H](C)C(=O)N(C)[C@H](CC(C)C)C(=O)N[C@@H](Cc1ccc(O)cc1)C(=O)N[C@@H](Cc1ccc(O)cc1)C(=O)O
REMARK SMILES IDX 18 1 17 2 15 3 16 4 14 5 12 6 13 7 10 9 11 10 8 12 9 13 7 16
REMARK SMILES IDX 6 17 5 18 4 19 3 20 2 21 1 22 19 23 20 24 21 25 22 26 23 27
REMARK SMILES IDX 24 28 25 29 26 30 27 31 28 32 29 34 30 35 31 36 32 37 37 38
REMARK SMILES IDX 33 39 36 40 34 41 35 42 38 44 39 45 40 46 41 48 42 49 43 50
REMARK SMILES IDX 44 51 49 52 45 53 48 54 46 55 47 56 50 58 51 59 52 60
REMARK H PARENT 14 8 11 11 9 14 9 15 28 33 35 43 40 47 47 57 52 61
ROOT
ATOM      1  O   UNL     1      -3.424  -5.854  -4.764  1.00  0.00    -0.272 OA
ATOM      2  C   UNL     1      -3.157  -7.046  -4.547  1.00  0.00     0.245 C 
ENDROOT
BRANCH   2   3
ATOM      3  C   UNL     1      -3.607  -7.674  -3.204  1.00  0.00     0.168 C 
ATOM      4  C   UNL     1      -3.397  -9.184  -3.215  1.00  0.00     0.041 C 
BRANCH   3   5
ATOM      5  N   UNL     1      -3.035  -7.055  -2.018  1.00  0.00    -0.342 N 
ATOM      6  C   UNL     1      -3.788  -6.267  -1.173  1.00  0.00     0.251 C 
ATOM      7  O   UNL     1      -4.967  -5.995  -1.373  1.00  0.00    -0.272 OA
ATOM      8  H   UNL     1      -2.057  -7.180  -1.767  1.00  0.00     0.164 HD
BRANCH   6   9
ATOM      9  C   UNL     1      -3.016  -5.840   0.085  1.00  0.00     0.219 C 
BRANCH   9  10
ATOM     10  O   UNL     1      -2.032  -6.802   0.484  1.00  0.00    -0.382 OA
ATOM     11  H   UNL     1      -1.545  -6.348   1.206  1.00  0.00     0.211 HD
ENDBRANCH   9  10
BRANCH   9  12
ATOM     12  C   UNL     1      -2.387  -4.427  -0.037  1.00  0.00     0.089 C 
BRANCH  12  13
ATOM     13  N   UNL     1      -2.806  -3.626   1.136  1.00  0.00    -0.325 NA
ATOM     14  H   UNL     1      -3.824  -3.546   1.141  1.00  0.00     0.119 HD
ATOM     15  H   UNL     1      -2.464  -2.669   1.022  1.00  0.00     0.119 HD
ENDBRANCH  12  13
BRANCH  12  16
ATOM     16  C   UNL     1      -0.847  -4.382  -0.189  1.00  0.00     0.022 C 
BRANCH  16  17
ATOM     17  C   UNL     1      -0.234  -4.430  -1.595  1.00  0.00     0.002 C 
BRANCH  17  18
ATOM     18  C   UNL     1      -0.987  -3.629  -2.655  1.00  0.00     0.000 C 
BRANCH  18  19
ATOM     19  C   UNL     1      -0.825  -2.109  -2.521  1.00  0.00    -0.000 C 
BRANCH  19  20
ATOM     20  C   UNL     1       0.621  -1.605  -2.541  1.00  0.00    -0.000 C 
BRANCH  20  21
ATOM     21  C   UNL     1       1.319  -1.841  -3.883  1.00  0.00    -0.003 C 
ATOM     22  C   UNL     1       2.568  -0.983  -4.017  1.00  0.00     0.004 C 
ENDBRANCH  20  21
ENDBRANCH  19  20
ENDBRANCH  18  19
ENDBRANCH  17  18
ENDBRANCH  16  17
ENDBRANCH  12  16
ENDBRANCH   9  12
ENDBRANCH   6   9
ENDBRANCH   3   5
ENDBRANCH   2   3
BRANCH   2  23
ATOM     23  N   UNL     1      -2.576  -7.821  -5.545  1.00  0.00    -0.332 N 
ATOM     24  C   UNL     1      -1.147  -7.890  -5.810  1.00  0.00     0.147 C 
BRANCH  23  25
ATOM     25  C   UNL     1      -3.409  -8.759  -6.347  1.00  0.00     0.174 C 
BRANCH  25  26
ATOM     26  C   UNL     1      -2.569  -9.826  -7.089  1.00  0.00     0.038 C 
BRANCH  26  27
ATOM     27  C   UNL     1      -3.208 -11.221  -7.264  1.00  0.00    -0.015 C 
ATOM     28  C   UNL     1      -4.133 -11.591  -6.105  1.00  0.00     0.007 C 
ATOM     29  C   UNL     1      -3.924 -11.398  -8.600  1.00  0.00     0.007 C 
ENDBRANCH  26  27
ENDBRANCH  25  26
BRANCH  25  30
ATOM     30  C   UNL     1      -4.362  -7.967  -7.271  1.00  0.00     0.243 C 
ATOM     31  O   UNL     1      -5.512  -8.342  -7.494  1.00  0.00    -0.273 OA
ATOM     32  N   UNL     1      -3.839  -6.827  -7.826  1.00  0.00    -0.342 N 
ATOM     33  H   UNL     1      -2.930  -6.507  -7.483  1.00  0.00     0.164 HD
BRANCH  32  34
ATOM     34  C   UNL     1      -4.588  -5.967  -8.746  1.00  0.00     0.175 C 
BRANCH  34  35
ATOM     35  C   UNL     1      -4.795  -6.651 -10.106  1.00  0.00     0.070 C 
BRANCH  35  36
ATOM     36  C   UNL     1      -3.535  -7.299 -10.633  1.00  0.00    -0.045 A 
ATOM     37  C   UNL     1      -2.334  -6.574 -10.666  1.00  0.00     0.007 A 
ATOM     38  C   UNL     1      -3.550  -8.614 -11.115  1.00  0.00     0.007 A 
ATOM     39  C   UNL     1      -1.169  -7.159 -11.163  1.00  0.00     0.046 A 
ATOM     40  C   UNL     1      -2.384  -9.200 -11.614  1.00  0.00     0.046 A 
ATOM     41  C   UNL     1      -1.203  -8.466 -11.632  1.00  0.00     0.115 A 
BRANCH  41  42
ATOM     42  O   UNL     1      -0.044  -9.000 -12.112  1.00  0.00    -0.508 OA
ATOM     43  H   UNL     1      -0.270  -9.729 -12.713  1.00  0.00     0.293 HD
ENDBRANCH  41  42
ENDBRANCH  35  36
ENDBRANCH  34  35
BRANCH  34  44
ATOM     44  C   UNL     1      -5.931  -5.600  -8.074  1.00  0.00     0.243 C 
ATOM     45  O   UNL     1      -7.021  -5.637  -8.636  1.00  0.00    -0.273 OA
ATOM     46  N   UNL     1      -5.786  -5.094  -6.800  1.00  0.00    -0.341 N 
ATOM     47  H   UNL     1      -4.850  -4.973  -6.419  1.00  0.00     0.164 HD
BRANCH  46  48
ATOM     48  C   UNL     1      -6.909  -4.615  -5.990  1.00  0.00     0.196 C 
BRANCH  48  49
ATOM     49  C   UNL     1      -6.686  -4.907  -4.496  1.00  0.00     0.072 C 
BRANCH  49  50
ATOM     50  C   UNL     1      -7.719  -5.854  -3.928  1.00  0.00    -0.045 A 
ATOM     51  C   UNL     1      -9.041  -5.421  -3.748  1.00  0.00     0.007 A 
ATOM     52  C   UNL     1      -7.372  -7.159  -3.557  1.00  0.00     0.007 A 
ATOM     53  C   UNL     1      -9.999  -6.282  -3.213  1.00  0.00     0.046 A 
ATOM     54  C   UNL     1      -8.332  -8.021  -3.019  1.00  0.00     0.046 A 
ATOM     55  C   UNL     1      -9.638  -7.574  -2.853  1.00  0.00     0.115 A 
BRANCH  55  56
ATOM     56  O   UNL     1     -10.604  -8.383  -2.332  1.00  0.00    -0.508 OA
ATOM     57  H   UNL     1     -10.403  -8.534  -1.394  1.00  0.00     0.293 HD
ENDBRANCH  55  56
ENDBRANCH  49  50
ENDBRANCH  48  49
BRANCH  48  58
ATOM     58  C   UNL     1      -7.068  -3.104  -6.202  1.00  0.00     0.326 C 
ATOM     59  O   UNL     1      -8.035  -2.520  -6.663  1.00  0.00    -0.250 OA
BRANCH  58  60
ATOM     60  O   UNL     1      -5.989  -2.384  -5.802  1.00  0.00    -0.480 OA
ATOM     61  H   UNL     1      -5.962  -1.642  -6.445  1.00  0.00     0.296 HD
ENDBRANCH  58  60
ENDBRANCH  48  58
ENDBRANCH  46  48
ENDBRANCH  34  44
ENDBRANCH  32  34
ENDBRANCH  25  30
ENDBRANCH  23  25
ENDBRANCH   2  23
TORSDOF 28
ENDMDL
MODEL 11
REMARK VINA RESULT:    -6.148      2.668      9.014
REMARK INTER + INTRA:         -21.393
REMARK INTER:                 -17.506
REMARK INTRA:                  -3.887
REMARK UNBOUND:                -6.081
REMARK SMILES CCCCCCC[C@H](N)[C@H](O)C(=O)N[C@H](C)C(=O)N(C)[C@H](CC(C)C)C(=O)N[C@@H](Cc1ccc(O)cc1)C(=O)N[C@@H](Cc1ccc(O)cc1)C(=O)O
REMARK SMILES IDX 18 1 17 2 15 3 16 4 14 5 12 6 13 7 10 9 11 10 8 12 9 13 7 16
REMARK SMILES IDX 6 17 5 18 4 19 3 20 2 21 1 22 19 23 20 24 21 25 22 26 23 27
REMARK SMILES IDX 24 28 25 29 26 30 27 31 28 32 29 34 30 35 31 36 32 37 37 38
REMARK SMILES IDX 33 39 36 40 34 41 35 42 38 44 39 45 40 46 41 48 42 49 43 50
REMARK SMILES IDX 44 51 49 52 45 53 48 54 46 55 47 56 50 58 51 59 52 60
REMARK H PARENT 14 8 11 11 9 14 9 15 28 33 35 43 40 47 47 57 52 61
ROOT
ATOM      1  O   UNL     1      -1.122  -7.602  -5.911  1.00  0.00    -0.272 OA
ATOM      2  C   UNL     1      -0.244  -7.475  -6.777  1.00  0.00     0.245 C 
ENDROOT
BRANCH   2   3
ATOM      3  C   UNL     1      -0.675  -7.120  -8.222  1.00  0.00     0.168 C 
ATOM      4  C   UNL     1       0.258  -7.767  -9.240  1.00  0.00     0.041 C 
BRANCH   3   5
ATOM      5  N   UNL     1      -2.073  -7.383  -8.525  1.00  0.00    -0.342 N 
ATOM      6  C   UNL     1      -2.815  -6.542  -9.328  1.00  0.00     0.251 C 
ATOM      7  O   UNL     1      -2.375  -5.503  -9.807  1.00  0.00    -0.272 OA
ATOM      8  H   UNL     1      -2.558  -8.198  -8.155  1.00  0.00     0.164 HD
BRANCH   6   9
ATOM      9  C   UNL     1      -4.220  -7.091  -9.625  1.00  0.00     0.219 C 
BRANCH   9  10
ATOM     10  O   UNL     1      -4.256  -8.522  -9.666  1.00  0.00    -0.382 OA
ATOM     11  H   UNL     1      -4.667  -8.768  -8.808  1.00  0.00     0.211 HD
ENDBRANCH   9  10
BRANCH   9  12
ATOM     12  C   UNL     1      -5.305  -6.539  -8.665  1.00  0.00     0.089 C 
BRANCH  12  13
ATOM     13  N   UNL     1      -4.694  -5.482  -7.827  1.00  0.00    -0.325 NA
ATOM     14  H   UNL     1      -3.687  -5.640  -7.768  1.00  0.00     0.119 HD
ATOM     15  H   UNL     1      -5.037  -5.579  -6.869  1.00  0.00     0.119 HD
ENDBRANCH  12  13
BRANCH  12  16
ATOM     16  C   UNL     1      -6.596  -6.009  -9.333  1.00  0.00     0.022 C 
BRANCH  16  17
ATOM     17  C   UNL     1      -7.520  -6.996 -10.061  1.00  0.00     0.002 C 
BRANCH  17  18
ATOM     18  C   UNL     1      -8.243  -6.423 -11.278  1.00  0.00     0.000 C 
BRANCH  18  19
ATOM     19  C   UNL     1      -9.537  -7.164 -11.641  1.00  0.00    -0.000 C 
BRANCH  19  20
ATOM     20  C   UNL     1     -10.661  -7.054 -10.607  1.00  0.00    -0.000 C 
BRANCH  20  21
ATOM     21  C   UNL     1     -11.836  -7.992 -10.897  1.00  0.00    -0.003 C 
ATOM     22  C   UNL     1     -11.466  -9.041 -11.934  1.00  0.00     0.004 C 
ENDBRANCH  20  21
ENDBRANCH  19  20
ENDBRANCH  18  19
ENDBRANCH  17  18
ENDBRANCH  16  17
ENDBRANCH  12  16
ENDBRANCH   9  12
ENDBRANCH   6   9
ENDBRANCH   3   5
ENDBRANCH   2   3
BRANCH   2  23
ATOM     23  N   UNL     1       1.099  -7.529  -6.420  1.00  0.00    -0.332 N 
ATOM     24  C   UNL     1       1.824  -8.755  -6.120  1.00  0.00     0.147 C 
BRANCH  23  25
ATOM     25  C   UNL     1       1.934  -6.298  -6.448  1.00  0.00     0.174 C 
BRANCH  25  26
ATOM     26  C   UNL     1       3.349  -6.542  -7.024  1.00  0.00     0.038 C 
BRANCH  26  27
ATOM     27  C   UNL     1       3.969  -5.403  -7.863  1.00  0.00    -0.015 C 
ATOM     28  C   UNL     1       2.920  -4.620  -8.652  1.00  0.00     0.007 C 
ATOM     29  C   UNL     1       4.845  -4.455  -7.047  1.00  0.00     0.007 C 
ENDBRANCH  26  27
ENDBRANCH  25  26
BRANCH  25  30
ATOM     30  C   UNL     1       1.938  -5.626  -5.055  1.00  0.00     0.243 C 
ATOM     31  O   UNL     1       2.639  -6.042  -4.134  1.00  0.00    -0.273 OA
ATOM     32  N   UNL     1       1.106  -4.544  -4.916  1.00  0.00    -0.342 N 
ATOM     33  H   UNL     1       0.665  -4.174  -5.762  1.00  0.00     0.164 HD
BRANCH  32  34
ATOM     34  C   UNL     1       0.960  -3.802  -3.661  1.00  0.00     0.175 C 
BRANCH  34  35
ATOM     35  C   UNL     1       1.183  -2.296  -3.874  1.00  0.00     0.070 C 
BRANCH  35  36
ATOM     36  C   UNL     1       2.592  -1.970  -4.313  1.00  0.00    -0.045 A 
ATOM     37  C   UNL     1       2.811  -1.301  -5.527  1.00  0.00     0.007 A 
ATOM     38  C   UNL     1       3.694  -2.346  -3.534  1.00  0.00     0.007 A 
ATOM     39  C   UNL     1       4.109  -1.007  -5.948  1.00  0.00     0.046 A 
ATOM     40  C   UNL     1       4.993  -2.053  -3.955  1.00  0.00     0.046 A 
ATOM     41  C   UNL     1       5.189  -1.385  -5.159  1.00  0.00     0.115 A 
BRANCH  41  42
ATOM     42  O   UNL     1       6.440  -1.082  -5.607  1.00  0.00    -0.508 OA
ATOM     43  H   UNL     1       6.442  -0.156  -5.901  1.00  0.00     0.293 HD
ENDBRANCH  41  42
ENDBRANCH  35  36
ENDBRANCH  34  35
BRANCH  34  44
ATOM     44  C   UNL     1      -0.442  -4.103  -3.087  1.00  0.00     0.243 C 
ATOM     45  O   UNL     1      -1.218  -4.934  -3.551  1.00  0.00    -0.273 OA
ATOM     46  N   UNL     1      -0.811  -3.253  -2.066  1.00  0.00    -0.341 N 
ATOM     47  H   UNL     1      -0.180  -2.504  -1.794  1.00  0.00     0.164 HD
BRANCH  46  48
ATOM     48  C   UNL     1      -2.121  -3.301  -1.412  1.00  0.00     0.196 C 
BRANCH  48  49
ATOM     49  C   UNL     1      -2.017  -3.889   0.006  1.00  0.00     0.072 C 
BRANCH  49  50
ATOM     50  C   UNL     1      -2.539  -5.305   0.087  1.00  0.00    -0.045 A 
ATOM     51  C   UNL     1      -3.144  -5.893  -1.033  1.00  0.00     0.007 A 
ATOM     52  C   UNL     1      -2.447  -6.040   1.276  1.00  0.00     0.007 A 
ATOM     53  C   UNL     1      -3.641  -7.195  -0.966  1.00  0.00     0.046 A 
ATOM     54  C   UNL     1      -2.945  -7.343   1.344  1.00  0.00     0.046 A 
ATOM     55  C   UNL     1      -3.537  -7.910   0.221  1.00  0.00     0.115 A 
BRANCH  55  56
ATOM     56  O   UNL     1      -4.037  -9.178   0.246  1.00  0.00    -0.508 OA
ATOM     57  H   UNL     1      -3.862  -9.559   1.121  1.00  0.00     0.293 HD
ENDBRANCH  55  56
ENDBRANCH  49  50
ENDBRANCH  48  49
BRANCH  48  58
ATOM     58  C   UNL     1      -2.694  -1.879  -1.338  1.00  0.00     0.326 C 
ATOM     59  O   UNL     1      -2.251  -0.935  -0.705  1.00  0.00    -0.250 OA
BRANCH  58  60
ATOM     60  O   UNL     1      -3.810  -1.706  -2.091  1.00  0.00    -0.480 OA
ATOM     61  H   UNL     1      -4.539  -1.820  -1.444  1.00  0.00     0.296 HD
ENDBRANCH  58  60
ENDBRANCH  48  58
ENDBRANCH  46  48
ENDBRANCH  34  44
ENDBRANCH  32  34
ENDBRANCH  25  30
ENDBRANCH  23  25
ENDBRANCH   2  23
TORSDOF 28
ENDMDL
MODEL 12
REMARK VINA RESULT:    -6.099      4.139     11.082
REMARK INTER + INTRA:         -21.271
REMARK INTER:                 -18.187
REMARK INTRA:                  -3.084
REMARK UNBOUND:                -6.081
REMARK SMILES CCCCCCC[C@H](N)[C@H](O)C(=O)N[C@H](C)C(=O)N(C)[C@H](CC(C)C)C(=O)N[C@@H](Cc1ccc(O)cc1)C(=O)N[C@@H](Cc1ccc(O)cc1)C(=O)O
REMARK SMILES IDX 18 1 17 2 15 3 16 4 14 5 12 6 13 7 10 9 11 10 8 12 9 13 7 16
REMARK SMILES IDX 6 17 5 18 4 19 3 20 2 21 1 22 19 23 20 24 21 25 22 26 23 27
REMARK SMILES IDX 24 28 25 29 26 30 27 31 28 32 29 34 30 35 31 36 32 37 37 38
REMARK SMILES IDX 33 39 36 40 34 41 35 42 38 44 39 45 40 46 41 48 42 49 43 50
REMARK SMILES IDX 44 51 49 52 45 53 48 54 46 55 47 56 50 58 51 59 52 60
REMARK H PARENT 14 8 11 11 9 14 9 15 28 33 35 43 40 47 47 57 52 61
ROOT
ATOM      1  O   UNL     1      -5.925  -5.494  -8.017  1.00  0.00    -0.272 OA
ATOM      2  C   UNL     1      -5.376  -6.410  -8.647  1.00  0.00     0.245 C 
ENDROOT
BRANCH   2   3
ATOM      3  C   UNL     1      -6.082  -6.971  -9.906  1.00  0.00     0.168 C 
ATOM      4  C   UNL     1      -5.524  -8.340 -10.276  1.00  0.00     0.041 C 
BRANCH   3   5
ATOM      5  N   UNL     1      -7.535  -6.978  -9.840  1.00  0.00    -0.342 N 
ATOM      6  C   UNL     1      -8.310  -6.317 -10.769  1.00  0.00     0.251 C 
ATOM      7  O   UNL     1      -7.844  -5.648 -11.686  1.00  0.00    -0.272 OA
ATOM      8  H   UNL     1      -8.036  -7.470  -9.103  1.00  0.00     0.164 HD
BRANCH   6   9
ATOM      9  C   UNL     1      -9.813  -6.580 -10.585  1.00  0.00     0.219 C 
BRANCH   9  10
ATOM     10  O   UNL     1     -10.615  -5.427 -10.871  1.00  0.00    -0.382 OA
ATOM     11  H   UNL     1      -9.953  -4.720 -11.036  1.00  0.00     0.211 HD
ENDBRANCH   9  10
BRANCH   9  12
ATOM     12  C   UNL     1     -10.318  -7.812 -11.380  1.00  0.00     0.089 C 
BRANCH  12  13
ATOM     13  N   UNL     1      -9.617  -9.014 -10.874  1.00  0.00    -0.325 NA
ATOM     14  H   UNL     1      -9.736  -9.071  -9.861  1.00  0.00     0.119 HD
ATOM     15  H   UNL     1      -8.611  -8.895 -11.017  1.00  0.00     0.119 HD
ENDBRANCH  12  13
BRANCH  12  16
ATOM     16  C   UNL     1     -11.848  -8.046 -11.369  1.00  0.00     0.022 C 
BRANCH  16  17
ATOM     17  C   UNL     1     -12.395  -9.389 -10.868  1.00  0.00     0.002 C 
BRANCH  17  18
ATOM     18  C   UNL     1     -13.042 -10.262 -11.941  1.00  0.00     0.000 C 
BRANCH  18  19
ATOM     19  C   UNL     1     -12.989  -9.661 -13.352  1.00  0.00    -0.000 C 
BRANCH  19  20
ATOM     20  C   UNL     1     -14.344  -9.257 -13.938  1.00  0.00    -0.000 C 
BRANCH  20  21
ATOM     21  C   UNL     1     -15.523  -9.965 -13.266  1.00  0.00    -0.003 C 
ATOM     22  C   UNL     1     -16.560 -10.407 -14.287  1.00  0.00     0.004 C 
ENDBRANCH  20  21
ENDBRANCH  19  20
ENDBRANCH  18  19
ENDBRANCH  17  18
ENDBRANCH  16  17
ENDBRANCH  12  16
ENDBRANCH   9  12
ENDBRANCH   6   9
ENDBRANCH   3   5
ENDBRANCH   2   3
BRANCH   2  23
ATOM     23  N   UNL     1      -4.099  -6.831  -8.291  1.00  0.00    -0.332 N 
ATOM     24  C   UNL     1      -2.878  -6.436  -8.979  1.00  0.00     0.147 C 
BRANCH  23  25
ATOM     25  C   UNL     1      -3.890  -7.640  -7.060  1.00  0.00     0.174 C 
BRANCH  25  26
ATOM     26  C   UNL     1      -5.161  -8.405  -6.619  1.00  0.00     0.038 C 
BRANCH  26  27
ATOM     27  C   UNL     1      -5.012  -9.921  -6.361  1.00  0.00    -0.015 C 
ATOM     28  C   UNL     1      -5.385 -10.760  -7.583  1.00  0.00     0.007 C 
ATOM     29  C   UNL     1      -3.633 -10.315  -5.839  1.00  0.00     0.007 C 
ENDBRANCH  26  27
ENDBRANCH  25  26
BRANCH  25  30
ATOM     30  C   UNL     1      -3.274  -6.764  -5.945  1.00  0.00     0.243 C 
ATOM     31  O   UNL     1      -3.887  -5.822  -5.445  1.00  0.00    -0.273 OA
ATOM     32  N   UNL     1      -2.003  -7.104  -5.558  1.00  0.00    -0.342 N 
ATOM     33  H   UNL     1      -1.617  -7.981  -5.917  1.00  0.00     0.164 HD
BRANCH  32  34
ATOM     34  C   UNL     1      -1.253  -6.369  -4.536  1.00  0.00     0.175 C 
BRANCH  34  35
ATOM     35  C   UNL     1      -1.445  -6.993  -3.145  1.00  0.00     0.070 C 
BRANCH  35  36
ATOM     36  C   UNL     1      -1.781  -5.968  -2.086  1.00  0.00    -0.045 A 
ATOM     37  C   UNL     1      -1.940  -4.620  -2.439  1.00  0.00     0.007 A 
ATOM     38  C   UNL     1      -1.915  -6.341  -0.742  1.00  0.00     0.007 A 
ATOM     39  C   UNL     1      -2.236  -3.665  -1.466  1.00  0.00     0.046 A 
ATOM     40  C   UNL     1      -2.211  -5.386   0.233  1.00  0.00     0.046 A 
ATOM     41  C   UNL     1      -2.370  -4.055  -0.139  1.00  0.00     0.115 A 
BRANCH  41  42
ATOM     42  O   UNL     1      -2.657  -3.090   0.781  1.00  0.00    -0.508 OA
ATOM     43  H   UNL     1      -2.033  -3.179   1.520  1.00  0.00     0.293 HD
ENDBRANCH  41  42
ENDBRANCH  35  36
ENDBRANCH  34  35
BRANCH  34  44
ATOM     44  C   UNL     1       0.234  -6.345  -4.958  1.00  0.00     0.243 C 
ATOM     45  O   UNL     1       0.650  -6.709  -6.054  1.00  0.00    -0.273 OA
ATOM     46  N   UNL     1       1.089  -5.994  -3.935  1.00  0.00    -0.341 N 
ATOM     47  H   UNL     1       0.705  -5.813  -3.010  1.00  0.00     0.164 HD
BRANCH  46  48
ATOM     48  C   UNL     1       2.546  -5.967  -4.076  1.00  0.00     0.196 C 
BRANCH  48  49
ATOM     49  C   UNL     1       3.190  -5.009  -3.059  1.00  0.00     0.072 C 
BRANCH  49  50
ATOM     50  C   UNL     1       3.503  -3.654  -3.654  1.00  0.00    -0.045 A 
ATOM     51  C   UNL     1       2.542  -2.994  -4.433  1.00  0.00     0.007 A 
ATOM     52  C   UNL     1       4.752  -3.052  -3.456  1.00  0.00     0.007 A 
ATOM     53  C   UNL     1       2.824  -1.750  -4.997  1.00  0.00     0.046 A 
ATOM     54  C   UNL     1       5.035  -1.806  -4.022  1.00  0.00     0.046 A 
ATOM     55  C   UNL     1       4.067  -1.165  -4.788  1.00  0.00     0.115 A 
BRANCH  55  56
ATOM     56  O   UNL     1       4.303   0.050  -5.358  1.00  0.00    -0.508 OA
ATOM     57  H   UNL     1       5.209   0.054  -5.707  1.00  0.00     0.293 HD
ENDBRANCH  55  56
ENDBRANCH  49  50
ENDBRANCH  48  49
BRANCH  48  58
ATOM     58  C   UNL     1       3.095  -7.385  -3.866  1.00  0.00     0.326 C 
ATOM     59  O   UNL     1       3.461  -7.888  -2.816  1.00  0.00    -0.250 OA
BRANCH  58  60
ATOM     60  O   UNL     1       3.143  -8.121  -5.005  1.00  0.00    -0.480 OA
ATOM     61  H   UNL     1       4.100  -8.315  -5.108  1.00  0.00     0.296 HD
ENDBRANCH  58  60
ENDBRANCH  48  58
ENDBRANCH  46  48
ENDBRANCH  34  44
ENDBRANCH  32  34
ENDBRANCH  25  30
ENDBRANCH  23  25
ENDBRANCH   2  23
TORSDOF 28
ENDMDL
MODEL 13
REMARK VINA RESULT:    -6.088      4.277     10.935
REMARK INTER + INTRA:         -21.245
REMARK INTER:                 -18.591
REMARK INTRA:                  -2.654
REMARK UNBOUND:                -6.081
REMARK SMILES CCCCCCC[C@H](N)[C@H](O)C(=O)N[C@H](C)C(=O)N(C)[C@H](CC(C)C)C(=O)N[C@@H](Cc1ccc(O)cc1)C(=O)N[C@@H](Cc1ccc(O)cc1)C(=O)O
REMARK SMILES IDX 18 1 17 2 15 3 16 4 14 5 12 6 13 7 10 9 11 10 8 12 9 13 7 16
REMARK SMILES IDX 6 17 5 18 4 19 3 20 2 21 1 22 19 23 20 24 21 25 22 26 23 27
REMARK SMILES IDX 24 28 25 29 26 30 27 31 28 32 29 34 30 35 31 36 32 37 37 38
REMARK SMILES IDX 33 39 36 40 34 41 35 42 38 44 39 45 40 46 41 48 42 49 43 50
REMARK SMILES IDX 44 51 49 52 45 53 48 54 46 55 47 56 50 58 51 59 52 60
REMARK H PARENT 14 8 11 11 9 14 9 15 28 33 35 43 40 47 47 57 52 61
ROOT
ATOM      1  O   UNL     1      -6.006  -5.158  -7.250  1.00  0.00    -0.272 OA
ATOM      2  C   UNL     1      -5.650  -6.209  -7.803  1.00  0.00     0.245 C 
ENDROOT
BRANCH   2   3
ATOM      3  C   UNL     1      -5.877  -6.357  -9.328  1.00  0.00     0.168 C 
ATOM      4  C   UNL     1      -4.653  -6.969 -10.000  1.00  0.00     0.041 C 
BRANCH   3   5
ATOM      5  N   UNL     1      -7.102  -7.047  -9.700  1.00  0.00    -0.342 N 
ATOM      6  C   UNL     1      -7.905  -6.601 -10.728  1.00  0.00     0.251 C 
ATOM      7  O   UNL     1      -7.678  -5.582 -11.371  1.00  0.00    -0.272 OA
ATOM      8  H   UNL     1      -7.413  -7.886  -9.215  1.00  0.00     0.164 HD
BRANCH   6   9
ATOM      9  C   UNL     1      -9.065  -7.563 -11.036  1.00  0.00     0.219 C 
BRANCH   9  10
ATOM     10  O   UNL     1      -8.806  -8.900 -10.593  1.00  0.00    -0.382 OA
ATOM     11  H   UNL     1      -8.806  -9.423 -11.424  1.00  0.00     0.211 HD
ENDBRANCH   9  10
BRANCH   9  12
ATOM     12  C   UNL     1     -10.431  -7.060 -10.500  1.00  0.00     0.089 C 
BRANCH  12  13
ATOM     13  N   UNL     1     -10.610  -5.652 -10.925  1.00  0.00    -0.325 NA
ATOM     14  H   UNL     1     -11.176  -5.161 -10.230  1.00  0.00     0.119 HD
ATOM     15  H   UNL     1     -11.165  -5.634 -11.783  1.00  0.00     0.119 HD
ENDBRANCH  12  13
BRANCH  12  16
ATOM     16  C   UNL     1     -11.667  -7.898 -10.904  1.00  0.00     0.022 C 
BRANCH  16  17
ATOM     17  C   UNL     1     -11.582  -8.810 -12.135  1.00  0.00     0.002 C 
BRANCH  17  18
ATOM     18  C   UNL     1     -12.753  -9.776 -12.305  1.00  0.00     0.000 C 
BRANCH  18  19
ATOM     19  C   UNL     1     -14.005  -9.136 -12.920  1.00  0.00    -0.000 C 
BRANCH  19  20
ATOM     20  C   UNL     1     -14.723  -9.990 -13.969  1.00  0.00    -0.000 C 
BRANCH  20  21
ATOM     21  C   UNL     1     -16.218  -9.678 -14.075  1.00  0.00    -0.003 C 
ATOM     22  C   UNL     1     -16.998 -10.304 -12.930  1.00  0.00     0.004 C 
ENDBRANCH  20  21
ENDBRANCH  19  20
ENDBRANCH  18  19
ENDBRANCH  17  18
ENDBRANCH  16  17
ENDBRANCH  12  16
ENDBRANCH   9  12
ENDBRANCH   6   9
ENDBRANCH   3   5
ENDBRANCH   2   3
BRANCH   2  23
ATOM     23  N   UNL     1      -4.954  -7.173  -7.082  1.00  0.00    -0.332 N 
ATOM     24  C   UNL     1      -5.418  -8.534  -6.861  1.00  0.00     0.147 C 
BRANCH  23  25
ATOM     25  C   UNL     1      -3.580  -6.890  -6.583  1.00  0.00     0.174 C 
BRANCH  25  26
ATOM     26  C   UNL     1      -2.616  -8.087  -6.763  1.00  0.00     0.038 C 
BRANCH  26  27
ATOM     27  C   UNL     1      -1.260  -7.797  -7.444  1.00  0.00    -0.015 C 
ATOM     28  C   UNL     1      -1.392  -6.831  -8.621  1.00  0.00     0.007 C 
ATOM     29  C   UNL     1      -0.183  -7.318  -6.474  1.00  0.00     0.007 C 
ENDBRANCH  26  27
ENDBRANCH  25  26
BRANCH  25  30
ATOM     30  C   UNL     1      -3.640  -6.352  -5.135  1.00  0.00     0.243 C 
ATOM     31  O   UNL     1      -4.250  -5.323  -4.848  1.00  0.00    -0.273 OA
ATOM     32  N   UNL     1      -2.965  -7.093  -4.199  1.00  0.00    -0.342 N 
ATOM     33  H   UNL     1      -2.604  -8.006  -4.487  1.00  0.00     0.164 HD
BRANCH  32  34
ATOM     34  C   UNL     1      -2.891  -6.720  -2.783  1.00  0.00     0.175 C 
BRANCH  34  35
ATOM     35  C   UNL     1      -2.947  -7.959  -1.876  1.00  0.00     0.070 C 
BRANCH  35  36
ATOM     36  C   UNL     1      -3.338  -7.625  -0.454  1.00  0.00    -0.045 A 
ATOM     37  C   UNL     1      -4.540  -6.948  -0.197  1.00  0.00     0.007 A 
ATOM     38  C   UNL     1      -2.502  -7.961   0.620  1.00  0.00     0.007 A 
ATOM     39  C   UNL     1      -4.903  -6.623   1.110  1.00  0.00     0.046 A 
ATOM     40  C   UNL     1      -2.864  -7.635   1.929  1.00  0.00     0.046 A 
ATOM     41  C   UNL     1      -4.063  -6.970   2.162  1.00  0.00     0.115 A 
BRANCH  41  42
ATOM     42  O   UNL     1      -4.453  -6.631   3.424  1.00  0.00    -0.508 OA
ATOM     43  H   UNL     1      -4.814  -7.424   3.854  1.00  0.00     0.293 HD
ENDBRANCH  41  42
ENDBRANCH  35  36
ENDBRANCH  34  35
BRANCH  34  44
ATOM     44  C   UNL     1      -1.594  -5.907  -2.570  1.00  0.00     0.243 C 
ATOM     45  O   UNL     1      -0.474  -6.399  -2.472  1.00  0.00    -0.273 OA
ATOM     46  N   UNL     1      -1.818  -4.561  -2.366  1.00  0.00    -0.341 N 
ATOM     47  H   UNL     1      -2.775  -4.218  -2.341  1.00  0.00     0.164 HD
BRANCH  46  48
ATOM     48  C   UNL     1      -0.751  -3.602  -2.076  1.00  0.00     0.196 C 
BRANCH  48  49
ATOM     49  C   UNL     1      -0.176  -2.996  -3.368  1.00  0.00     0.072 C 
BRANCH  49  50
ATOM     50  C   UNL     1       1.332  -2.896  -3.343  1.00  0.00    -0.045 A 
ATOM     51  C   UNL     1       2.112  -4.039  -3.573  1.00  0.00     0.007 A 
ATOM     52  C   UNL     1       1.970  -1.679  -3.072  1.00  0.00     0.007 A 
ATOM     53  C   UNL     1       3.504  -3.962  -3.540  1.00  0.00     0.046 A 
ATOM     54  C   UNL     1       3.364  -1.602  -3.037  1.00  0.00     0.046 A 
ATOM     55  C   UNL     1       4.120  -2.745  -3.273  1.00  0.00     0.115 A 
BRANCH  55  56
ATOM     56  O   UNL     1       5.483  -2.713  -3.247  1.00  0.00    -0.508 OA
ATOM     57  H   UNL     1       5.762  -1.828  -2.963  1.00  0.00     0.293 HD
ENDBRANCH  55  56
ENDBRANCH  49  50
ENDBRANCH  48  49
BRANCH  48  58
ATOM     58  C   UNL     1      -1.313  -2.483  -1.188  1.00  0.00     0.326 C 
ATOM     59  O   UNL     1      -0.792  -1.409  -0.935  1.00  0.00    -0.250 OA
BRANCH  58  60
ATOM     60  O   UNL     1      -2.531  -2.768  -0.664  1.00  0.00    -0.480 OA
ATOM     61  H   UNL     1      -3.125  -2.743  -1.446  1.00  0.00     0.296 HD
ENDBRANCH  58  60
ENDBRANCH  48  58
ENDBRANCH  46  48
ENDBRANCH  34  44
ENDBRANCH  32  34
ENDBRANCH  25  30
ENDBRANCH  23  25
ENDBRANCH   2  23
TORSDOF 28
ENDMDL
MODEL 14
REMARK VINA RESULT:    -6.069      3.848     10.426
REMARK INTER + INTRA:         -21.197
REMARK INTER:                 -17.050
REMARK INTRA:                  -4.147
REMARK UNBOUND:                -6.081
REMARK SMILES CCCCCCC[C@H](N)[C@H](O)C(=O)N[C@H](C)C(=O)N(C)[C@H](CC(C)C)C(=O)N[C@@H](Cc1ccc(O)cc1)C(=O)N[C@@H](Cc1ccc(O)cc1)C(=O)O
REMARK SMILES IDX 18 1 17 2 15 3 16 4 14 5 12 6 13 7 10 9 11 10 8 12 9 13 7 16
REMARK SMILES IDX 6 17 5 18 4 19 3 20 2 21 1 22 19 23 20 24 21 25 22 26 23 27
REMARK SMILES IDX 24 28 25 29 26 30 27 31 28 32 29 34 30 35 31 36 32 37 37 38
REMARK SMILES IDX 33 39 36 40 34 41 35 42 38 44 39 45 40 46 41 48 42 49 43 50
REMARK SMILES IDX 44 51 49 52 45 53 48 54 46 55 47 56 50 58 51 59 52 60
REMARK H PARENT 14 8 11 11 9 14 9 15 28 33 35 43 40 47 47 57 52 61
ROOT
ATOM      1  O   UNL     1      -5.844 -10.454  -8.435  1.00  0.00    -0.272 OA
ATOM      2  C   UNL     1      -5.097  -9.464  -8.406  1.00  0.00     0.245 C 
ENDROOT
BRANCH   2   3
ATOM      3  C   UNL     1      -5.300  -8.352  -9.464  1.00  0.00     0.168 C 
ATOM      4  C   UNL     1      -5.329  -8.941 -10.871  1.00  0.00     0.041 C 
BRANCH   3   5
ATOM      5  N   UNL     1      -6.436  -7.476  -9.221  1.00  0.00    -0.342 N 
ATOM      6  C   UNL     1      -6.317  -6.103  -9.255  1.00  0.00     0.251 C 
ATOM      7  O   UNL     1      -5.255  -5.521  -9.448  1.00  0.00    -0.272 OA
ATOM      8  H   UNL     1      -7.362  -7.844  -9.015  1.00  0.00     0.164 HD
BRANCH   6   9
ATOM      9  C   UNL     1      -7.668  -5.385  -9.111  1.00  0.00     0.219 C 
BRANCH   9  10
ATOM     10  O   UNL     1      -7.540  -4.073  -8.550  1.00  0.00    -0.382 OA
ATOM     11  H   UNL     1      -8.187  -4.074  -7.810  1.00  0.00     0.211 HD
ENDBRANCH   9  10
BRANCH   9  12
ATOM     12  C   UNL     1      -8.479  -5.342 -10.433  1.00  0.00     0.089 C 
BRANCH  12  13
ATOM     13  N   UNL     1      -7.529  -5.420 -11.566  1.00  0.00    -0.325 NA
ATOM     14  H   UNL     1      -7.997  -5.108 -12.419  1.00  0.00     0.119 HD
ATOM     15  H   UNL     1      -7.294  -6.401 -11.734  1.00  0.00     0.119 HD
ENDBRANCH  12  13
BRANCH  12  16
ATOM     16  C   UNL     1      -9.580  -6.418 -10.588  1.00  0.00     0.022 C 
BRANCH  16  17
ATOM     17  C   UNL     1      -9.512  -7.391 -11.773  1.00  0.00     0.002 C 
BRANCH  17  18
ATOM     18  C   UNL     1      -9.043  -8.802 -11.422  1.00  0.00     0.000 C 
BRANCH  18  19
ATOM     19  C   UNL     1      -9.221  -9.819 -12.557  1.00  0.00    -0.000 C 
BRANCH  19  20
ATOM     20  C   UNL     1     -10.382 -10.801 -12.373  1.00  0.00    -0.000 C 
BRANCH  20  21
ATOM     21  C   UNL     1     -11.414 -10.726 -13.502  1.00  0.00    -0.003 C 
ATOM     22  C   UNL     1     -10.856 -10.003 -14.717  1.00  0.00     0.004 C 
ENDBRANCH  20  21
ENDBRANCH  19  20
ENDBRANCH  18  19
ENDBRANCH  17  18
ENDBRANCH  16  17
ENDBRANCH  12  16
ENDBRANCH   9  12
ENDBRANCH   6   9
ENDBRANCH   3   5
ENDBRANCH   2   3
BRANCH   2  23
ATOM     23  N   UNL     1      -4.185  -9.311  -7.367  1.00  0.00    -0.332 N 
ATOM     24  C   UNL     1      -2.746  -9.182  -7.544  1.00  0.00     0.147 C 
BRANCH  23  25
ATOM     25  C   UNL     1      -4.663  -9.137  -5.968  1.00  0.00     0.174 C 
BRANCH  25  26
ATOM     26  C   UNL     1      -6.008  -9.851  -5.698  1.00  0.00     0.038 C 
BRANCH  26  27
ATOM     27  C   UNL     1      -6.617  -9.686  -4.287  1.00  0.00    -0.015 C 
ATOM     28  C   UNL     1      -8.046 -10.221  -4.202  1.00  0.00     0.007 C 
ATOM     29  C   UNL     1      -5.753 -10.282  -3.179  1.00  0.00     0.007 C 
ENDBRANCH  26  27
ENDBRANCH  25  26
BRANCH  25  30
ATOM     30  C   UNL     1      -4.667  -7.638  -5.589  1.00  0.00     0.243 C 
ATOM     31  O   UNL     1      -5.259  -6.799  -6.266  1.00  0.00    -0.273 OA
ATOM     32  N   UNL     1      -3.965  -7.310  -4.458  1.00  0.00    -0.342 N 
ATOM     33  H   UNL     1      -3.622  -8.077  -3.874  1.00  0.00     0.164 HD
BRANCH  32  34
ATOM     34  C   UNL     1      -3.838  -5.937  -3.964  1.00  0.00     0.175 C 
BRANCH  34  35
ATOM     35  C   UNL     1      -4.628  -5.735  -2.661  1.00  0.00     0.070 C 
BRANCH  35  36
ATOM     36  C   UNL     1      -6.119  -5.894  -2.852  1.00  0.00    -0.045 A 
ATOM     37  C   UNL     1      -6.806  -5.057  -3.745  1.00  0.00     0.007 A 
ATOM     38  C   UNL     1      -6.839  -6.854  -2.128  1.00  0.00     0.007 A 
ATOM     39  C   UNL     1      -8.184  -5.187  -3.918  1.00  0.00     0.046 A 
ATOM     40  C   UNL     1      -8.219  -6.983  -2.299  1.00  0.00     0.046 A 
ATOM     41  C   UNL     1      -8.879  -6.148  -3.194  1.00  0.00     0.115 A 
BRANCH  41  42
ATOM     42  O   UNL     1     -10.226  -6.240  -3.390  1.00  0.00    -0.508 OA
ATOM     43  H   UNL     1     -10.396  -6.983  -3.992  1.00  0.00     0.293 HD
ENDBRANCH  41  42
ENDBRANCH  35  36
ENDBRANCH  34  35
BRANCH  34  44
ATOM     44  C   UNL     1      -2.334  -5.632  -3.780  1.00  0.00     0.243 C 
ATOM     45  O   UNL     1      -1.427  -6.266  -4.311  1.00  0.00    -0.273 OA
ATOM     46  N   UNL     1      -2.084  -4.647  -2.847  1.00  0.00    -0.341 N 
ATOM     47  H   UNL     1      -2.865  -4.231  -2.347  1.00  0.00     0.164 HD
BRANCH  46  48
ATOM     48  C   UNL     1      -0.735  -4.234  -2.454  1.00  0.00     0.196 C 
BRANCH  48  49
ATOM     49  C   UNL     1      -0.296  -2.966  -3.207  1.00  0.00     0.072 C 
BRANCH  49  50
ATOM     50  C   UNL     1       1.207  -2.821  -3.275  1.00  0.00    -0.045 A 
ATOM     51  C   UNL     1       2.015  -3.961  -3.404  1.00  0.00     0.007 A 
ATOM     52  C   UNL     1       1.815  -1.562  -3.189  1.00  0.00     0.007 A 
ATOM     53  C   UNL     1       3.403  -3.840  -3.454  1.00  0.00     0.046 A 
ATOM     54  C   UNL     1       3.205  -1.441  -3.238  1.00  0.00     0.046 A 
ATOM     55  C   UNL     1       3.988  -2.582  -3.371  1.00  0.00     0.115 A 
BRANCH  55  56
ATOM     56  O   UNL     1       5.349  -2.508  -3.422  1.00  0.00    -0.508 OA
ATOM     57  H   UNL     1       5.634  -1.753  -2.884  1.00  0.00     0.293 HD
ENDBRANCH  55  56
ENDBRANCH  49  50
ENDBRANCH  48  49
BRANCH  48  58
ATOM     58  C   UNL     1      -0.715  -3.967  -0.943  1.00  0.00     0.326 C 
ATOM     59  O   UNL     1      -0.230  -4.674  -0.074  1.00  0.00    -0.250 OA
BRANCH  58  60
ATOM     60  O   UNL     1      -1.303  -2.796  -0.592  1.00  0.00    -0.480 OA
ATOM     61  H   UNL     1      -0.547  -2.174  -0.526  1.00  0.00     0.296 HD
ENDBRANCH  58  60
ENDBRANCH  48  58
ENDBRANCH  46  48
ENDBRANCH  34  44
ENDBRANCH  32  34
ENDBRANCH  25  30
ENDBRANCH  23  25
ENDBRANCH   2  23
TORSDOF 28
ENDMDL
MODEL 15
REMARK VINA RESULT:    -6.057      3.012      9.438
REMARK INTER + INTRA:         -21.167
REMARK INTER:                 -17.983
REMARK INTRA:                  -3.184
REMARK UNBOUND:                -6.081
REMARK SMILES CCCCCCC[C@H](N)[C@H](O)C(=O)N[C@H](C)C(=O)N(C)[C@H](CC(C)C)C(=O)N[C@@H](Cc1ccc(O)cc1)C(=O)N[C@@H](Cc1ccc(O)cc1)C(=O)O
REMARK SMILES IDX 18 1 17 2 15 3 16 4 14 5 12 6 13 7 10 9 11 10 8 12 9 13 7 16
REMARK SMILES IDX 6 17 5 18 4 19 3 20 2 21 1 22 19 23 20 24 21 25 22 26 23 27
REMARK SMILES IDX 24 28 25 29 26 30 27 31 28 32 29 34 30 35 31 36 32 37 37 38
REMARK SMILES IDX 33 39 36 40 34 41 35 42 38 44 39 45 40 46 41 48 42 49 43 50
REMARK SMILES IDX 44 51 49 52 45 53 48 54 46 55 47 56 50 58 51 59 52 60
REMARK H PARENT 14 8 11 11 9 14 9 15 28 33 35 43 40 47 47 57 52 61
ROOT
ATOM      1  O   UNL     1      -3.871  -5.545  -4.458  1.00  0.00    -0.272 OA
ATOM      2  C   UNL     1      -4.003  -6.696  -4.016  1.00  0.00     0.245 C 
ENDROOT
BRANCH   2   3
ATOM      3  C   UNL     1      -5.422  -7.187  -3.639  1.00  0.00     0.168 C 
ATOM      4  C   UNL     1      -5.660  -7.056  -2.138  1.00  0.00     0.041 C 
BRANCH   3   5
ATOM      5  N   UNL     1      -6.501  -6.592  -4.413  1.00  0.00    -0.342 N 
ATOM      6  C   UNL     1      -7.093  -5.404  -4.042  1.00  0.00     0.251 C 
ATOM      7  O   UNL     1      -6.792  -4.786  -3.026  1.00  0.00    -0.272 OA
ATOM      8  H   UNL     1      -6.860  -7.031  -5.257  1.00  0.00     0.164 HD
BRANCH   6   9
ATOM      9  C   UNL     1      -8.106  -4.895  -5.080  1.00  0.00     0.219 C 
BRANCH   9  10
ATOM     10  O   UNL     1      -9.274  -4.324  -4.479  1.00  0.00    -0.382 OA
ATOM     11  H   UNL     1      -9.021  -3.387  -4.325  1.00  0.00     0.211 HD
ENDBRANCH   9  10
BRANCH   9  12
ATOM     12  C   UNL     1      -7.483  -3.916  -6.110  1.00  0.00     0.089 C 
BRANCH  12  13
ATOM     13  N   UNL     1      -6.098  -3.608  -5.683  1.00  0.00    -0.325 NA
ATOM     14  H   UNL     1      -5.797  -2.737  -6.124  1.00  0.00     0.119 HD
ATOM     15  H   UNL     1      -5.470  -4.325  -6.054  1.00  0.00     0.119 HD
ENDBRANCH  12  13
BRANCH  12  16
ATOM     16  C   UNL     1      -7.493  -4.386  -7.584  1.00  0.00     0.022 C 
BRANCH  16  17
ATOM     17  C   UNL     1      -6.515  -5.485  -8.024  1.00  0.00     0.002 C 
BRANCH  17  18
ATOM     18  C   UNL     1      -6.193  -5.500  -9.517  1.00  0.00     0.000 C 
BRANCH  18  19
ATOM     19  C   UNL     1      -5.641  -6.839 -10.023  1.00  0.00    -0.000 C 
BRANCH  19  20
ATOM     20  C   UNL     1      -4.183  -6.808 -10.489  1.00  0.00    -0.000 C 
BRANCH  20  21
ATOM     21  C   UNL     1      -3.649  -8.188 -10.882  1.00  0.00    -0.003 C 
ATOM     22  C   UNL     1      -2.159  -8.142 -11.180  1.00  0.00     0.004 C 
ENDBRANCH  20  21
ENDBRANCH  19  20
ENDBRANCH  18  19
ENDBRANCH  17  18
ENDBRANCH  16  17
ENDBRANCH  12  16
ENDBRANCH   9  12
ENDBRANCH   6   9
ENDBRANCH   3   5
ENDBRANCH   2   3
BRANCH   2  23
ATOM     23  N   UNL     1      -2.911  -7.556  -3.982  1.00  0.00    -0.332 N 
ATOM     24  C   UNL     1      -2.938  -8.905  -3.434  1.00  0.00     0.147 C 
BRANCH  23  25
ATOM     25  C   UNL     1      -1.633  -7.176  -4.644  1.00  0.00     0.174 C 
BRANCH  25  26
ATOM     26  C   UNL     1      -1.020  -8.326  -5.477  1.00  0.00     0.038 C 
BRANCH  26  27
ATOM     27  C   UNL     1      -1.135  -8.216  -7.014  1.00  0.00    -0.015 C 
ATOM     28  C   UNL     1      -1.232  -9.582  -7.692  1.00  0.00     0.007 C 
ATOM     29  C   UNL     1      -2.270  -7.305  -7.475  1.00  0.00     0.007 C 
ENDBRANCH  26  27
ENDBRANCH  25  26
BRANCH  25  30
ATOM     30  C   UNL     1      -0.657  -6.569  -3.610  1.00  0.00     0.243 C 
ATOM     31  O   UNL     1       0.273  -7.218  -3.136  1.00  0.00    -0.273 OA
ATOM     32  N   UNL     1      -0.902  -5.267  -3.256  1.00  0.00    -0.342 N 
ATOM     33  H   UNL     1      -1.603  -4.753  -3.796  1.00  0.00     0.164 HD
BRANCH  32  34
ATOM     34  C   UNL     1      -0.098  -4.539  -2.271  1.00  0.00     0.175 C 
BRANCH  34  35
ATOM     35  C   UNL     1       0.087  -3.069  -2.677  1.00  0.00     0.070 C 
BRANCH  35  36
ATOM     36  C   UNL     1       1.458  -2.789  -3.250  1.00  0.00    -0.045 A 
ATOM     37  C   UNL     1       2.408  -3.818  -3.332  1.00  0.00     0.007 A 
ATOM     38  C   UNL     1       1.807  -1.503  -3.684  1.00  0.00     0.007 A 
ATOM     39  C   UNL     1       3.680  -3.566  -3.846  1.00  0.00     0.046 A 
ATOM     40  C   UNL     1       3.081  -1.250  -4.198  1.00  0.00     0.046 A 
ATOM     41  C   UNL     1       4.006  -2.285  -4.276  1.00  0.00     0.115 A 
BRANCH  41  42
ATOM     42  O   UNL     1       5.261  -2.081  -4.769  1.00  0.00    -0.508 OA
ATOM     43  H   UNL     1       5.200  -2.013  -5.736  1.00  0.00     0.293 HD
ENDBRANCH  41  42
ENDBRANCH  35  36
ENDBRANCH  34  35
BRANCH  34  44
ATOM     44  C   UNL     1      -0.788  -4.676  -0.895  1.00  0.00     0.243 C 
ATOM     45  O   UNL     1      -0.195  -4.689   0.180  1.00  0.00    -0.273 OA
ATOM     46  N   UNL     1      -2.143  -4.915  -0.981  1.00  0.00    -0.341 N 
ATOM     47  H   UNL     1      -2.570  -5.012  -1.899  1.00  0.00     0.164 HD
BRANCH  46  48
ATOM     48  C   UNL     1      -2.997  -5.146   0.186  1.00  0.00     0.196 C 
BRANCH  48  49
ATOM     49  C   UNL     1      -2.690  -6.502   0.845  1.00  0.00     0.072 C 
BRANCH  49  50
ATOM     50  C   UNL     1      -3.900  -7.110   1.517  1.00  0.00    -0.045 A 
ATOM     51  C   UNL     1      -3.774  -8.309   2.232  1.00  0.00     0.007 A 
ATOM     52  C   UNL     1      -5.159  -6.504   1.419  1.00  0.00     0.007 A 
ATOM     53  C   UNL     1      -4.886  -8.886   2.845  1.00  0.00     0.046 A 
ATOM     54  C   UNL     1      -6.273  -7.082   2.031  1.00  0.00     0.046 A 
ATOM     55  C   UNL     1      -6.126  -8.269   2.740  1.00  0.00     0.115 A 
BRANCH  55  56
ATOM     56  O   UNL     1      -7.189  -8.867   3.352  1.00  0.00    -0.508 OA
ATOM     57  H   UNL     1      -7.409  -9.675   2.862  1.00  0.00     0.293 HD
ENDBRANCH  55  56
ENDBRANCH  49  50
ENDBRANCH  48  49
BRANCH  48  58
ATOM     58  C   UNL     1      -2.771  -4.017   1.201  1.00  0.00     0.326 C 
ATOM     59  O   UNL     1      -2.648  -4.125   2.410  1.00  0.00    -0.250 OA
BRANCH  58  60
ATOM     60  O   UNL     1      -2.694  -2.787   0.634  1.00  0.00    -0.480 OA
ATOM     61  H   UNL     1      -3.009  -2.941  -0.283  1.00  0.00     0.296 HD
ENDBRANCH  58  60
ENDBRANCH  48  58
ENDBRANCH  46  48
ENDBRANCH  34  44
ENDBRANCH  32  34
ENDBRANCH  25  30
ENDBRANCH  23  25
ENDBRANCH   2  23
TORSDOF 28
ENDMDL
MODEL 16
REMARK VINA RESULT:    -5.955      3.097      9.046
REMARK INTER + INTRA:         -20.912
REMARK INTER:                 -16.071
REMARK INTRA:                  -4.841
REMARK UNBOUND:                -6.081
REMARK SMILES CCCCCCC[C@H](N)[C@H](O)C(=O)N[C@H](C)C(=O)N(C)[C@H](CC(C)C)C(=O)N[C@@H](Cc1ccc(O)cc1)C(=O)N[C@@H](Cc1ccc(O)cc1)C(=O)O
REMARK SMILES IDX 18 1 17 2 15 3 16 4 14 5 12 6 13 7 10 9 11 10 8 12 9 13 7 16
REMARK SMILES IDX 6 17 5 18 4 19 3 20 2 21 1 22 19 23 20 24 21 25 22 26 23 27
REMARK SMILES IDX 24 28 25 29 26 30 27 31 28 32 29 34 30 35 31 36 32 37 37 38
REMARK SMILES IDX 33 39 36 40 34 41 35 42 38 44 39 45 40 46 41 48 42 49 43 50
REMARK SMILES IDX 44 51 49 52 45 53 48 54 46 55 47 56 50 58 51 59 52 60
REMARK H PARENT 14 8 11 11 9 14 9 15 28 33 35 43 40 47 47 57 52 61
ROOT
ATOM      1  O   UNL     1      -5.771  -8.225  -7.704  1.00  0.00    -0.272 OA
ATOM      2  C   UNL     1      -4.988  -8.652  -6.843  1.00  0.00     0.245 C 
ENDROOT
BRANCH   2   3
ATOM      3  C   UNL     1      -5.497  -8.802  -5.388  1.00  0.00     0.168 C 
ATOM      4  C   UNL     1      -4.353  -9.163  -4.447  1.00  0.00     0.041 C 
BRANCH   3   5
ATOM      5  N   UNL     1      -6.271  -7.675  -4.892  1.00  0.00    -0.342 N 
ATOM      6  C   UNL     1      -5.709  -6.429  -4.713  1.00  0.00     0.251 C 
ATOM      7  O   UNL     1      -4.524  -6.186  -4.913  1.00  0.00    -0.272 OA
ATOM      8  H   UNL     1      -7.257  -7.763  -4.657  1.00  0.00     0.164 HD
BRANCH   6   9
ATOM      9  C   UNL     1      -6.743  -5.362  -4.319  1.00  0.00     0.219 C 
BRANCH   9  10
ATOM     10  O   UNL     1      -6.466  -4.767  -3.045  1.00  0.00    -0.382 OA
ATOM     11  H   UNL     1      -5.544  -5.046  -2.856  1.00  0.00     0.211 HD
ENDBRANCH   9  10
BRANCH   9  12
ATOM     12  C   UNL     1      -6.937  -4.271  -5.405  1.00  0.00     0.089 C 
BRANCH  12  13
ATOM     13  N   UNL     1      -5.761  -3.371  -5.379  1.00  0.00    -0.325 NA
ATOM     14  H   UNL     1      -6.082  -2.402  -5.350  1.00  0.00     0.119 HD
ATOM     15  H   UNL     1      -5.257  -3.459  -6.264  1.00  0.00     0.119 HD
ENDBRANCH  12  13
BRANCH  12  16
ATOM     16  C   UNL     1      -7.182  -4.785  -6.845  1.00  0.00     0.022 C 
BRANCH  16  17
ATOM     17  C   UNL     1      -7.733  -3.815  -7.899  1.00  0.00     0.002 C 
BRANCH  17  18
ATOM     18  C   UNL     1      -7.624  -4.303  -9.342  1.00  0.00     0.000 C 
BRANCH  18  19
ATOM     19  C   UNL     1      -6.493  -5.313  -9.577  1.00  0.00    -0.000 C 
BRANCH  19  20
ATOM     20  C   UNL     1      -6.657  -6.197 -10.816  1.00  0.00    -0.000 C 
BRANCH  20  21
ATOM     21  C   UNL     1      -7.552  -7.414 -10.570  1.00  0.00    -0.003 C 
ATOM     22  C   UNL     1      -6.880  -8.699 -11.029  1.00  0.00     0.004 C 
ENDBRANCH  20  21
ENDBRANCH  19  20
ENDBRANCH  18  19
ENDBRANCH  17  18
ENDBRANCH  16  17
ENDBRANCH  12  16
ENDBRANCH   9  12
ENDBRANCH   6   9
ENDBRANCH   3   5
ENDBRANCH   2   3
BRANCH   2  23
ATOM     23  N   UNL     1      -3.723  -9.098  -7.212  1.00  0.00    -0.332 N 
ATOM     24  C   UNL     1      -3.360 -10.496  -7.389  1.00  0.00     0.147 C 
BRANCH  23  25
ATOM     25  C   UNL     1      -2.662  -8.123  -7.584  1.00  0.00     0.174 C 
BRANCH  25  26
ATOM     26  C   UNL     1      -2.164  -8.300  -9.038  1.00  0.00     0.038 C 
BRANCH  26  27
ATOM     27  C   UNL     1      -3.135  -7.884 -10.165  1.00  0.00    -0.015 C 
ATOM     28  C   UNL     1      -2.919  -6.442 -10.621  1.00  0.00     0.007 C 
ATOM     29  C   UNL     1      -3.119  -8.833 -11.361  1.00  0.00     0.007 C 
ENDBRANCH  26  27
ENDBRANCH  25  26
BRANCH  25  30
ATOM     30  C   UNL     1      -1.528  -8.143  -6.533  1.00  0.00     0.243 C 
ATOM     31  O   UNL     1      -0.592  -8.938  -6.601  1.00  0.00    -0.273 OA
ATOM     32  N   UNL     1      -1.641  -7.224  -5.521  1.00  0.00    -0.342 N 
ATOM     33  H   UNL     1      -2.367  -6.508  -5.610  1.00  0.00     0.164 HD
BRANCH  32  34
ATOM     34  C   UNL     1      -0.676  -7.117  -4.424  1.00  0.00     0.175 C 
BRANCH  34  35
ATOM     35  C   UNL     1       0.388  -6.047  -4.718  1.00  0.00     0.070 C 
BRANCH  35  36
ATOM     36  C   UNL     1       1.771  -6.459  -4.268  1.00  0.00    -0.045 A 
ATOM     37  C   UNL     1       2.124  -7.817  -4.236  1.00  0.00     0.007 A 
ATOM     38  C   UNL     1       2.708  -5.502  -3.857  1.00  0.00     0.007 A 
ATOM     39  C   UNL     1       3.393  -8.207  -3.810  1.00  0.00     0.046 A 
ATOM     40  C   UNL     1       3.979  -5.892  -3.428  1.00  0.00     0.046 A 
ATOM     41  C   UNL     1       4.311  -7.243  -3.410  1.00  0.00     0.115 A 
BRANCH  41  42
ATOM     42  O   UNL     1       5.539  -7.667  -2.997  1.00  0.00    -0.508 OA
ATOM     43  H   UNL     1       5.869  -7.041  -2.331  1.00  0.00     0.293 HD
ENDBRANCH  41  42
ENDBRANCH  35  36
ENDBRANCH  34  35
BRANCH  34  44
ATOM     44  C   UNL     1      -1.457  -6.812  -3.126  1.00  0.00     0.243 C 
ATOM     45  O   UNL     1      -1.880  -7.668  -2.354  1.00  0.00    -0.273 OA
ATOM     46  N   UNL     1      -1.760  -5.476  -2.969  1.00  0.00    -0.341 N 
ATOM     47  H   UNL     1      -1.488  -4.819  -3.696  1.00  0.00     0.164 HD
BRANCH  46  48
ATOM     48  C   UNL     1      -2.551  -4.956  -1.852  1.00  0.00     0.196 C 
BRANCH  48  49
ATOM     49  C   UNL     1      -1.777  -5.047  -0.526  1.00  0.00     0.072 C 
BRANCH  49  50
ATOM     50  C   UNL     1      -2.616  -5.607   0.600  1.00  0.00    -0.045 A 
ATOM     51  C   UNL     1      -3.802  -6.297   0.312  1.00  0.00     0.007 A 
ATOM     52  C   UNL     1      -2.237  -5.430   1.937  1.00  0.00     0.007 A 
ATOM     53  C   UNL     1      -4.591  -6.807   1.344  1.00  0.00     0.046 A 
ATOM     54  C   UNL     1      -3.028  -5.939   2.970  1.00  0.00     0.046 A 
ATOM     55  C   UNL     1      -4.198  -6.625   2.664  1.00  0.00     0.115 A 
BRANCH  55  56
ATOM     56  O   UNL     1      -4.998  -7.136   3.643  1.00  0.00    -0.508 OA
ATOM     57  H   UNL     1      -5.857  -7.361   3.250  1.00  0.00     0.293 HD
ENDBRANCH  55  56
ENDBRANCH  49  50
ENDBRANCH  48  49
BRANCH  48  58
ATOM     58  C   UNL     1      -2.914  -3.492  -2.136  1.00  0.00     0.326 C 
ATOM     59  O   UNL     1      -2.233  -2.505  -1.911  1.00  0.00    -0.250 OA
BRANCH  58  60
ATOM     60  O   UNL     1      -4.132  -3.339  -2.714  1.00  0.00    -0.480 OA
ATOM     61  H   UNL     1      -4.734  -3.225  -1.947  1.00  0.00     0.296 HD
ENDBRANCH  58  60
ENDBRANCH  48  58
ENDBRANCH  46  48
ENDBRANCH  34  44
ENDBRANCH  32  34
ENDBRANCH  25  30
ENDBRANCH  23  25
ENDBRANCH   2  23
TORSDOF 28
ENDMDL
MODEL 17
REMARK VINA RESULT:    -5.940      2.981      9.408
REMARK INTER + INTRA:         -20.875
REMARK INTER:                 -17.299
REMARK INTRA:                  -3.577
REMARK UNBOUND:                -6.081
REMARK SMILES CCCCCCC[C@H](N)[C@H](O)C(=O)N[C@H](C)C(=O)N(C)[C@H](CC(C)C)C(=O)N[C@@H](Cc1ccc(O)cc1)C(=O)N[C@@H](Cc1ccc(O)cc1)C(=O)O
REMARK SMILES IDX 18 1 17 2 15 3 16 4 14 5 12 6 13 7 10 9 11 10 8 12 9 13 7 16
REMARK SMILES IDX 6 17 5 18 4 19 3 20 2 21 1 22 19 23 20 24 21 25 22 26 23 27
REMARK SMILES IDX 24 28 25 29 26 30 27 31 28 32 29 34 30 35 31 36 32 37 37 38
REMARK SMILES IDX 33 39 36 40 34 41 35 42 38 44 39 45 40 46 41 48 42 49 43 50
REMARK SMILES IDX 44 51 49 52 45 53 48 54 46 55 47 56 50 58 51 59 52 60
REMARK H PARENT 14 8 11 11 9 14 9 15 28 33 35 43 40 47 47 57 52 61
ROOT
ATOM      1  O   UNL     1      -3.544  -4.962  -3.822  1.00  0.00    -0.272 OA
ATOM      2  C   UNL     1      -3.555  -6.172  -3.550  1.00  0.00     0.245 C 
ENDROOT
BRANCH   2   3
ATOM      3  C   UNL     1      -4.917  -6.859  -3.283  1.00  0.00     0.168 C 
ATOM      4  C   UNL     1      -5.326  -6.702  -1.823  1.00  0.00     0.041 C 
BRANCH   3   5
ATOM      5  N   UNL     1      -5.986  -6.470  -4.191  1.00  0.00    -0.342 N 
ATOM      6  C   UNL     1      -6.832  -5.419  -3.910  1.00  0.00     0.251 C 
ATOM      7  O   UNL     1      -6.780  -4.766  -2.873  1.00  0.00    -0.272 OA
ATOM      8  H   UNL     1      -6.150  -6.960  -5.067  1.00  0.00     0.164 HD
BRANCH   6   9
ATOM      9  C   UNL     1      -7.789  -5.100  -5.071  1.00  0.00     0.219 C 
BRANCH   9  10
ATOM     10  O   UNL     1      -8.980  -4.433  -4.637  1.00  0.00    -0.382 OA
ATOM     11  H   UNL     1      -8.671  -3.865  -3.898  1.00  0.00     0.211 HD
ENDBRANCH   9  10
BRANCH   9  12
ATOM     12  C   UNL     1      -7.107  -4.317  -6.223  1.00  0.00     0.089 C 
BRANCH  12  13
ATOM     13  N   UNL     1      -5.965  -3.559  -5.662  1.00  0.00    -0.325 NA
ATOM     14  H   UNL     1      -6.314  -2.876  -4.987  1.00  0.00     0.119 HD
ATOM     15  H   UNL     1      -5.538  -3.004  -6.407  1.00  0.00     0.119 HD
ENDBRANCH  12  13
BRANCH  12  16
ATOM     16  C   UNL     1      -6.642  -5.160  -7.434  1.00  0.00     0.022 C 
BRANCH  16  17
ATOM     17  C   UNL     1      -7.173  -4.816  -8.832  1.00  0.00     0.002 C 
BRANCH  17  18
ATOM     18  C   UNL     1      -6.582  -5.647  -9.969  1.00  0.00     0.000 C 
BRANCH  18  19
ATOM     19  C   UNL     1      -6.239  -7.090  -9.575  1.00  0.00    -0.000 C 
BRANCH  19  20
ATOM     20  C   UNL     1      -4.767  -7.477  -9.742  1.00  0.00    -0.000 C 
BRANCH  20  21
ATOM     21  C   UNL     1      -3.811  -6.300  -9.537  1.00  0.00    -0.003 C 
ATOM     22  C   UNL     1      -2.694  -6.306 -10.569  1.00  0.00     0.004 C 
ENDBRANCH  20  21
ENDBRANCH  19  20
ENDBRANCH  18  19
ENDBRANCH  17  18
ENDBRANCH  16  17
ENDBRANCH  12  16
ENDBRANCH   9  12
ENDBRANCH   6   9
ENDBRANCH   3   5
ENDBRANCH   2   3
BRANCH   2  23
ATOM     23  N   UNL     1      -2.376  -6.908  -3.608  1.00  0.00    -0.332 N 
ATOM     24  C   UNL     1      -2.197  -8.227  -3.019  1.00  0.00     0.147 C 
BRANCH  23  25
ATOM     25  C   UNL     1      -1.226  -6.422  -4.418  1.00  0.00     0.174 C 
BRANCH  25  26
ATOM     26  C   UNL     1      -0.418  -7.570  -5.067  1.00  0.00     0.038 C 
BRANCH  26  27
ATOM     27  C   UNL     1      -0.556  -7.747  -6.595  1.00  0.00    -0.015 C 
ATOM     28  C   UNL     1       0.592  -8.557  -7.197  1.00  0.00     0.007 C 
ATOM     29  C   UNL     1      -1.903  -8.327  -7.020  1.00  0.00     0.007 C 
ENDBRANCH  26  27
ENDBRANCH  25  26
BRANCH  25  30
ATOM     30  C   UNL     1      -0.362  -5.449  -3.584  1.00  0.00     0.243 C 
ATOM     31  O   UNL     1       0.315  -5.833  -2.631  1.00  0.00    -0.273 OA
ATOM     32  N   UNL     1      -0.407  -4.134  -3.971  1.00  0.00    -0.342 N 
ATOM     33  H   UNL     1      -0.877  -3.916  -4.854  1.00  0.00     0.164 HD
BRANCH  32  34
ATOM     34  C   UNL     1       0.326  -3.069  -3.281  1.00  0.00     0.175 C 
BRANCH  34  35
ATOM     35  C   UNL     1       0.680  -1.922  -4.240  1.00  0.00     0.070 C 
BRANCH  35  36
ATOM     36  C   UNL     1       2.167  -1.804  -4.487  1.00  0.00    -0.045 A 
ATOM     37  C   UNL     1       3.074  -2.080  -3.452  1.00  0.00     0.007 A 
ATOM     38  C   UNL     1       2.659  -1.398  -5.734  1.00  0.00     0.007 A 
ATOM     39  C   UNL     1       4.447  -1.961  -3.666  1.00  0.00     0.046 A 
ATOM     40  C   UNL     1       4.034  -1.277  -5.949  1.00  0.00     0.046 A 
ATOM     41  C   UNL     1       4.916  -1.562  -4.912  1.00  0.00     0.115 A 
BRANCH  41  42
ATOM     42  O   UNL     1       6.265  -1.454  -5.079  1.00  0.00    -0.508 OA
ATOM     43  H   UNL     1       6.535  -2.066  -5.784  1.00  0.00     0.293 HD
ENDBRANCH  41  42
ENDBRANCH  35  36
ENDBRANCH  34  35
BRANCH  34  44
ATOM     44  C   UNL     1      -0.539  -2.584  -2.096  1.00  0.00     0.243 C 
ATOM     45  O   UNL     1      -0.189  -1.732  -1.284  1.00  0.00    -0.273 OA
ATOM     46  N   UNL     1      -1.711  -3.295  -1.945  1.00  0.00    -0.341 N 
ATOM     47  H   UNL     1      -1.903  -4.071  -2.574  1.00  0.00     0.164 HD
BRANCH  46  48
ATOM     48  C   UNL     1      -2.659  -3.062  -0.853  1.00  0.00     0.196 C 
BRANCH  48  49
ATOM     49  C   UNL     1      -2.021  -3.354   0.515  1.00  0.00     0.072 C 
BRANCH  49  50
ATOM     50  C   UNL     1      -2.326  -4.748   1.015  1.00  0.00    -0.045 A 
ATOM     51  C   UNL     1      -2.648  -4.952   2.365  1.00  0.00     0.007 A 
ATOM     52  C   UNL     1      -2.273  -5.850   0.152  1.00  0.00     0.007 A 
ATOM     53  C   UNL     1      -2.919  -6.235   2.840  1.00  0.00     0.046 A 
ATOM     54  C   UNL     1      -2.543  -7.135   0.628  1.00  0.00     0.046 A 
ATOM     55  C   UNL     1      -2.865  -7.316   1.969  1.00  0.00     0.115 A 
BRANCH  55  56
ATOM     56  O   UNL     1      -3.134  -8.554   2.473  1.00  0.00    -0.508 OA
ATOM     57  H   UNL     1      -3.490  -9.105   1.758  1.00  0.00     0.293 HD
ENDBRANCH  55  56
ENDBRANCH  49  50
ENDBRANCH  48  49
BRANCH  48  58
ATOM     58  C   UNL     1      -3.128  -1.601  -0.901  1.00  0.00     0.326 C 
ATOM     59  O   UNL     1      -3.816  -1.074  -1.760  1.00  0.00    -0.250 OA
BRANCH  58  60
ATOM     60  O   UNL     1      -2.713  -0.864   0.160  1.00  0.00    -0.480 OA
ATOM     61  H   UNL     1      -3.469  -0.922   0.784  1.00  0.00     0.296 HD
ENDBRANCH  58  60
ENDBRANCH  48  58
ENDBRANCH  46  48
ENDBRANCH  34  44
ENDBRANCH  32  34
ENDBRANCH  25  30
ENDBRANCH  23  25
ENDBRANCH   2  23
TORSDOF 28
ENDMDL
MODEL 18
REMARK VINA RESULT:    -5.928      2.188      3.373
REMARK INTER + INTRA:         -20.846
REMARK INTER:                 -15.493
REMARK INTRA:                  -5.352
REMARK UNBOUND:                -6.081
REMARK SMILES CCCCCCC[C@H](N)[C@H](O)C(=O)N[C@H](C)C(=O)N(C)[C@H](CC(C)C)C(=O)N[C@@H](Cc1ccc(O)cc1)C(=O)N[C@@H](Cc1ccc(O)cc1)C(=O)O
REMARK SMILES IDX 18 1 17 2 15 3 16 4 14 5 12 6 13 7 10 9 11 10 8 12 9 13 7 16
REMARK SMILES IDX 6 17 5 18 4 19 3 20 2 21 1 22 19 23 20 24 21 25 22 26 23 27
REMARK SMILES IDX 24 28 25 29 26 30 27 31 28 32 29 34 30 35 31 36 32 37 37 38
REMARK SMILES IDX 33 39 36 40 34 41 35 42 38 44 39 45 40 46 41 48 42 49 43 50
REMARK SMILES IDX 44 51 49 52 45 53 48 54 46 55 47 56 50 58 51 59 52 60
REMARK H PARENT 14 8 11 11 9 14 9 15 28 33 35 43 40 47 47 57 52 61
ROOT
ATOM      1  O   UNL     1       2.159  -6.177  -7.538  1.00  0.00    -0.272 OA
ATOM      2  C   UNL     1       3.124  -6.934  -7.359  1.00  0.00     0.245 C 
ENDROOT
BRANCH   2   3
ATOM      3  C   UNL     1       4.554  -6.366  -7.538  1.00  0.00     0.168 C 
ATOM      4  C   UNL     1       5.145  -6.798  -8.875  1.00  0.00     0.041 C 
BRANCH   3   5
ATOM      5  N   UNL     1       4.672  -4.931  -7.331  1.00  0.00    -0.342 N 
ATOM      6  C   UNL     1       4.625  -4.371  -6.072  1.00  0.00     0.251 C 
ATOM      7  O   UNL     1       4.442  -5.021  -5.048  1.00  0.00    -0.272 OA
ATOM      8  H   UNL     1       4.793  -4.285  -8.107  1.00  0.00     0.164 HD
BRANCH   6   9
ATOM      9  C   UNL     1       4.913  -2.861  -6.082  1.00  0.00     0.219 C 
BRANCH   9  10
ATOM     10  O   UNL     1       6.030  -2.517  -6.910  1.00  0.00    -0.382 OA
ATOM     11  H   UNL     1       5.676  -1.812  -7.496  1.00  0.00     0.211 HD
ENDBRANCH   9  10
BRANCH   9  12
ATOM     12  C   UNL     1       3.672  -2.007  -6.449  1.00  0.00     0.089 C 
BRANCH  12  13
ATOM     13  N   UNL     1       2.637  -2.904  -7.013  1.00  0.00    -0.325 NA
ATOM     14  H   UNL     1       3.079  -3.770  -7.327  1.00  0.00     0.119 HD
ATOM     15  H   UNL     1       2.255  -2.477  -7.860  1.00  0.00     0.119 HD
ENDBRANCH  12  13
BRANCH  12  16
ATOM     16  C   UNL     1       3.071  -1.157  -5.304  1.00  0.00     0.022 C 
BRANCH  16  17
ATOM     17  C   UNL     1       2.977  -1.760  -3.896  1.00  0.00     0.002 C 
BRANCH  17  18
ATOM     18  C   UNL     1       2.225  -0.906  -2.877  1.00  0.00     0.000 C 
BRANCH  18  19
ATOM     19  C   UNL     1       0.953  -1.564  -2.327  1.00  0.00    -0.000 C 
BRANCH  19  20
ATOM     20  C   UNL     1      -0.336  -1.216  -3.078  1.00  0.00    -0.000 C 
BRANCH  20  21
ATOM     21  C   UNL     1      -1.284  -0.332  -2.263  1.00  0.00    -0.003 C 
ATOM     22  C   UNL     1      -1.329  -0.763  -0.806  1.00  0.00     0.004 C 
ENDBRANCH  20  21
ENDBRANCH  19  20
ENDBRANCH  18  19
ENDBRANCH  17  18
ENDBRANCH  16  17
ENDBRANCH  12  16
ENDBRANCH   9  12
ENDBRANCH   6   9
ENDBRANCH   3   5
ENDBRANCH   2   3
BRANCH   2  23
ATOM     23  N   UNL     1       2.917  -8.227  -6.889  1.00  0.00    -0.332 N 
ATOM     24  C   UNL     1       2.567  -9.364  -7.727  1.00  0.00     0.147 C 
BRANCH  23  25
ATOM     25  C   UNL     1       3.176  -8.557  -5.461  1.00  0.00     0.174 C 
BRANCH  25  26
ATOM     26  C   UNL     1       3.542 -10.044  -5.243  1.00  0.00     0.038 C 
BRANCH  26  27
ATOM     27  C   UNL     1       4.640 -10.349  -4.200  1.00  0.00    -0.015 C 
ATOM     28  C   UNL     1       5.492 -11.558  -4.585  1.00  0.00     0.007 C 
ATOM     29  C   UNL     1       5.525  -9.147  -3.880  1.00  0.00     0.007 C 
ENDBRANCH  26  27
ENDBRANCH  25  26
BRANCH  25  30
ATOM     30  C   UNL     1       2.001  -8.071  -4.581  1.00  0.00     0.243 C 
ATOM     31  O   UNL     1       2.164  -7.730  -3.410  1.00  0.00    -0.273 OA
ATOM     32  N   UNL     1       0.773  -8.052  -5.189  1.00  0.00    -0.342 N 
ATOM     33  H   UNL     1       0.742  -8.213  -6.199  1.00  0.00     0.164 HD
BRANCH  32  34
ATOM     34  C   UNL     1      -0.456  -7.647  -4.502  1.00  0.00     0.175 C 
BRANCH  34  35
ATOM     35  C   UNL     1      -0.468  -6.136  -4.221  1.00  0.00     0.070 C 
BRANCH  35  36
ATOM     36  C   UNL     1      -1.140  -5.790  -2.911  1.00  0.00    -0.045 A 
ATOM     37  C   UNL     1      -1.438  -6.802  -1.986  1.00  0.00     0.007 A 
ATOM     38  C   UNL     1      -1.494  -4.468  -2.612  1.00  0.00     0.007 A 
ATOM     39  C   UNL     1      -2.070  -6.495  -0.781  1.00  0.00     0.046 A 
ATOM     40  C   UNL     1      -2.128  -4.159  -1.407  1.00  0.00     0.046 A 
ATOM     41  C   UNL     1      -2.409  -5.177  -0.501  1.00  0.00     0.115 A 
BRANCH  41  42
ATOM     42  O   UNL     1      -3.029  -4.919   0.686  1.00  0.00    -0.508 OA
ATOM     43  H   UNL     1      -2.384  -5.051   1.401  1.00  0.00     0.293 HD
ENDBRANCH  41  42
ENDBRANCH  35  36
ENDBRANCH  34  35
BRANCH  34  44
ATOM     44  C   UNL     1      -1.657  -8.081  -5.372  1.00  0.00     0.243 C 
ATOM     45  O   UNL     1      -2.024  -9.244  -5.518  1.00  0.00    -0.273 OA
ATOM     46  N   UNL     1      -2.218  -7.046  -6.090  1.00  0.00    -0.341 N 
ATOM     47  H   UNL     1      -1.804  -6.119  -6.024  1.00  0.00     0.164 HD
BRANCH  46  48
ATOM     48  C   UNL     1      -3.323  -7.225  -7.034  1.00  0.00     0.196 C 
BRANCH  48  49
ATOM     49  C   UNL     1      -4.517  -6.324  -6.677  1.00  0.00     0.072 C 
BRANCH  49  50
ATOM     50  C   UNL     1      -4.834  -6.337  -5.198  1.00  0.00    -0.045 A 
ATOM     51  C   UNL     1      -4.823  -5.138  -4.471  1.00  0.00     0.007 A 
ATOM     52  C   UNL     1      -5.119  -7.536  -4.533  1.00  0.00     0.007 A 
ATOM     53  C   UNL     1      -5.101  -5.139  -3.104  1.00  0.00     0.046 A 
ATOM     54  C   UNL     1      -5.396  -7.537  -3.164  1.00  0.00     0.046 A 
ATOM     55  C   UNL     1      -5.385  -6.337  -2.461  1.00  0.00     0.115 A 
BRANCH  55  56
ATOM     56  O   UNL     1      -5.650  -6.296  -1.124  1.00  0.00    -0.508 OA
ATOM     57  H   UNL     1      -5.095  -5.607  -0.724  1.00  0.00     0.293 HD
ENDBRANCH  55  56
ENDBRANCH  49  50
ENDBRANCH  48  49
BRANCH  48  58
ATOM     58  C   UNL     1      -2.830  -6.891  -8.449  1.00  0.00     0.326 C 
ATOM     59  O   UNL     1      -3.017  -5.858  -9.071  1.00  0.00    -0.250 OA
BRANCH  58  60
ATOM     60  O   UNL     1      -2.101  -7.884  -9.017  1.00  0.00    -0.480 OA
ATOM     61  H   UNL     1      -1.259  -7.439  -9.254  1.00  0.00     0.296 HD
ENDBRANCH  58  60
ENDBRANCH  48  58
ENDBRANCH  46  48
ENDBRANCH  34  44
ENDBRANCH  32  34
ENDBRANCH  25  30
ENDBRANCH  23  25
ENDBRANCH   2  23
TORSDOF 28
ENDMDL
MODEL 19
REMARK VINA RESULT:    -5.907      2.747      6.880
REMARK INTER + INTRA:         -20.793
REMARK INTER:                 -17.254
REMARK INTRA:                  -3.539
REMARK UNBOUND:                -6.081
REMARK SMILES CCCCCCC[C@H](N)[C@H](O)C(=O)N[C@H](C)C(=O)N(C)[C@H](CC(C)C)C(=O)N[C@@H](Cc1ccc(O)cc1)C(=O)N[C@@H](Cc1ccc(O)cc1)C(=O)O
REMARK SMILES IDX 18 1 17 2 15 3 16 4 14 5 12 6 13 7 10 9 11 10 8 12 9 13 7 16
REMARK SMILES IDX 6 17 5 18 4 19 3 20 2 21 1 22 19 23 20 24 21 25 22 26 23 27
REMARK SMILES IDX 24 28 25 29 26 30 27 31 28 32 29 34 30 35 31 36 32 37 37 38
REMARK SMILES IDX 33 39 36 40 34 41 35 42 38 44 39 45 40 46 41 48 42 49 43 50
REMARK SMILES IDX 44 51 49 52 45 53 48 54 46 55 47 56 50 58 51 59 52 60
REMARK H PARENT 14 8 11 11 9 14 9 15 28 33 35 43 40 47 47 57 52 61
ROOT
ATOM      1  O   UNL     1      -2.808  -8.933  -0.077  1.00  0.00    -0.272 OA
ATOM      2  C   UNL     1      -3.087  -7.988  -0.830  1.00  0.00     0.245 C 
ENDROOT
BRANCH   2   3
ATOM      3  C   UNL     1      -2.005  -6.912  -1.100  1.00  0.00     0.168 C 
ATOM      4  C   UNL     1      -0.922  -7.454  -2.025  1.00  0.00     0.041 C 
BRANCH   3   5
ATOM      5  N   UNL     1      -2.519  -5.631  -1.558  1.00  0.00    -0.342 N 
ATOM      6  C   UNL     1      -1.882  -4.444  -1.263  1.00  0.00     0.251 C 
ATOM      7  O   UNL     1      -0.874  -4.371  -0.569  1.00  0.00    -0.272 OA
ATOM      8  H   UNL     1      -3.368  -5.561  -2.113  1.00  0.00     0.164 HD
BRANCH   6   9
ATOM      9  C   UNL     1      -2.520  -3.236  -1.968  1.00  0.00     0.219 C 
BRANCH   9  10
ATOM     10  O   UNL     1      -3.848  -3.506  -2.433  1.00  0.00    -0.382 OA
ATOM     11  H   UNL     1      -3.738  -4.300  -3.000  1.00  0.00     0.211 HD
ENDBRANCH   9  10
BRANCH   9  12
ATOM     12  C   UNL     1      -2.489  -1.944  -1.110  1.00  0.00     0.089 C 
BRANCH  12  13
ATOM     13  N   UNL     1      -2.777  -2.309   0.296  1.00  0.00    -0.325 NA
ATOM     14  H   UNL     1      -2.116  -1.829   0.910  1.00  0.00     0.119 HD
ATOM     15  H   UNL     1      -2.585  -3.305   0.425  1.00  0.00     0.119 HD
ENDBRANCH  12  13
BRANCH  12  16
ATOM     16  C   UNL     1      -1.187  -1.111  -1.187  1.00  0.00     0.022 C 
BRANCH  16  17
ATOM     17  C   UNL     1      -0.492  -0.934  -2.544  1.00  0.00     0.002 C 
BRANCH  17  18
ATOM     18  C   UNL     1       0.654  -1.907  -2.812  1.00  0.00     0.000 C 
BRANCH  18  19
ATOM     19  C   UNL     1       1.764  -1.334  -3.703  1.00  0.00    -0.000 C 
BRANCH  19  20
ATOM     20  C   UNL     1       3.185  -1.764  -3.327  1.00  0.00    -0.000 C 
BRANCH  20  21
ATOM     21  C   UNL     1       3.941  -2.418  -4.487  1.00  0.00    -0.003 C 
ATOM     22  C   UNL     1       3.236  -2.177  -5.813  1.00  0.00     0.004 C 
ENDBRANCH  20  21
ENDBRANCH  19  20
ENDBRANCH  18  19
ENDBRANCH  17  18
ENDBRANCH  16  17
ENDBRANCH  12  16
ENDBRANCH   9  12
ENDBRANCH   6   9
ENDBRANCH   3   5
ENDBRANCH   2   3
BRANCH   2  23
ATOM     23  N   UNL     1      -4.302  -7.972  -1.506  1.00  0.00    -0.332 N 
ATOM     24  C   UNL     1      -5.479  -7.233  -1.074  1.00  0.00     0.147 C 
BRANCH  23  25
ATOM     25  C   UNL     1      -4.432  -8.637  -2.832  1.00  0.00     0.174 C 
BRANCH  25  26
ATOM     26  C   UNL     1      -3.737 -10.018  -2.884  1.00  0.00     0.038 C 
BRANCH  26  27
ATOM     27  C   UNL     1      -4.581 -11.242  -2.463  1.00  0.00    -0.015 C 
ATOM     28  C   UNL     1      -4.887 -12.172  -3.636  1.00  0.00     0.007 C 
ATOM     29  C   UNL     1      -3.977 -12.025  -1.300  1.00  0.00     0.007 C 
ENDBRANCH  26  27
ENDBRANCH  25  26
BRANCH  25  30
ATOM     30  C   UNL     1      -3.985  -7.674  -3.956  1.00  0.00     0.243 C 
ATOM     31  O   UNL     1      -4.073  -6.453  -3.839  1.00  0.00    -0.273 OA
ATOM     32  N   UNL     1      -3.492  -8.271  -5.088  1.00  0.00    -0.342 N 
ATOM     33  H   UNL     1      -3.319  -9.279  -5.054  1.00  0.00     0.164 HD
BRANCH  32  34
ATOM     34  C   UNL     1      -3.047  -7.518  -6.263  1.00  0.00     0.175 C 
BRANCH  34  35
ATOM     35  C   UNL     1      -1.904  -8.242  -6.991  1.00  0.00     0.070 C 
BRANCH  35  36
ATOM     36  C   UNL     1      -0.562  -7.579  -6.778  1.00  0.00    -0.045 A 
ATOM     37  C   UNL     1      -0.009  -7.513  -5.491  1.00  0.00     0.007 A 
ATOM     38  C   UNL     1       0.133  -7.003  -7.850  1.00  0.00     0.007 A 
ATOM     39  C   UNL     1       1.223  -6.891  -5.282  1.00  0.00     0.046 A 
ATOM     40  C   UNL     1       1.366  -6.379  -7.641  1.00  0.00     0.046 A 
ATOM     41  C   UNL     1       1.900  -6.330  -6.358  1.00  0.00     0.115 A 
BRANCH  41  42
ATOM     42  O   UNL     1       3.098  -5.729  -6.111  1.00  0.00    -0.508 OA
ATOM     43  H   UNL     1       3.388  -5.281  -6.923  1.00  0.00     0.293 HD
ENDBRANCH  41  42
ENDBRANCH  35  36
ENDBRANCH  34  35
BRANCH  34  44
ATOM     44  C   UNL     1      -4.270  -7.299  -7.182  1.00  0.00     0.243 C 
ATOM     45  O   UNL     1      -5.232  -8.059  -7.250  1.00  0.00    -0.273 OA
ATOM     46  N   UNL     1      -4.131  -6.224  -8.034  1.00  0.00    -0.341 N 
ATOM     47  H   UNL     1      -3.263  -5.693  -8.022  1.00  0.00     0.164 HD
BRANCH  46  48
ATOM     48  C   UNL     1      -5.129  -5.860  -9.042  1.00  0.00     0.196 C 
BRANCH  48  49
ATOM     49  C   UNL     1      -5.168  -6.885 -10.188  1.00  0.00     0.072 C 
BRANCH  49  50
ATOM     50  C   UNL     1      -3.788  -7.328 -10.620  1.00  0.00    -0.045 A 
ATOM     51  C   UNL     1      -2.729  -6.408 -10.625  1.00  0.00     0.007 A 
ATOM     52  C   UNL     1      -3.551  -8.643 -11.038  1.00  0.00     0.007 A 
ATOM     53  C   UNL     1      -1.455  -6.802 -11.034  1.00  0.00     0.046 A 
ATOM     54  C   UNL     1      -2.276  -9.037 -11.449  1.00  0.00     0.046 A 
ATOM     55  C   UNL     1      -1.238  -8.112 -11.442  1.00  0.00     0.115 A 
BRANCH  55  56
ATOM     56  O   UNL     1       0.022  -8.456 -11.837  1.00  0.00    -0.508 OA
ATOM     57  H   UNL     1       0.484  -7.651 -12.121  1.00  0.00     0.293 HD
ENDBRANCH  55  56
ENDBRANCH  49  50
ENDBRANCH  48  49
BRANCH  48  58
ATOM     58  C   UNL     1      -6.508  -5.782  -8.374  1.00  0.00     0.326 C 
ATOM     59  O   UNL     1      -6.857  -5.022  -7.485  1.00  0.00    -0.250 OA
BRANCH  58  60
ATOM     60  O   UNL     1      -7.404  -6.670  -8.874  1.00  0.00    -0.480 OA
ATOM     61  H   UNL     1      -7.672  -7.190  -8.086  1.00  0.00     0.296 HD
ENDBRANCH  58  60
ENDBRANCH  48  58
ENDBRANCH  46  48
ENDBRANCH  34  44
ENDBRANCH  32  34
ENDBRANCH  25  30
ENDBRANCH  23  25
ENDBRANCH   2  23
TORSDOF 28
ENDMDL
MODEL 20
REMARK VINA RESULT:    -5.898      2.338      6.115
REMARK INTER + INTRA:         -20.771
REMARK INTER:                 -14.974
REMARK INTRA:                  -5.797
REMARK UNBOUND:                -6.081
REMARK SMILES CCCCCCC[C@H](N)[C@H](O)C(=O)N[C@H](C)C(=O)N(C)[C@H](CC(C)C)C(=O)N[C@@H](Cc1ccc(O)cc1)C(=O)N[C@@H](Cc1ccc(O)cc1)C(=O)O
REMARK SMILES IDX 18 1 17 2 15 3 16 4 14 5 12 6 13 7 10 9 11 10 8 12 9 13 7 16
REMARK SMILES IDX 6 17 5 18 4 19 3 20 2 21 1 22 19 23 20 24 21 25 22 26 23 27
REMARK SMILES IDX 24 28 25 29 26 30 27 31 28 32 29 34 30 35 31 36 32 37 37 38
REMARK SMILES IDX 33 39 36 40 34 41 35 42 38 44 39 45 40 46 41 48 42 49 43 50
REMARK SMILES IDX 44 51 49 52 45 53 48 54 46 55 47 56 50 58 51 59 52 60
REMARK H PARENT 14 8 11 11 9 14 9 15 28 33 35 43 40 47 47 57 52 61
ROOT
ATOM      1  O   UNL     1      -2.545  -2.459  -1.916  1.00  0.00    -0.272 OA
ATOM      2  C   UNL     1      -1.450  -2.967  -2.197  1.00  0.00     0.245 C 
ENDROOT
BRANCH   2   3
ATOM      3  C   UNL     1      -0.419  -2.118  -2.982  1.00  0.00     0.168 C 
ATOM      4  C   UNL     1      -0.346  -0.701  -2.422  1.00  0.00     0.041 C 
BRANCH   3   5
ATOM      5  N   UNL     1       0.899  -2.720  -3.109  1.00  0.00    -0.342 N 
ATOM      6  C   UNL     1       1.717  -2.462  -4.189  1.00  0.00     0.251 C 
ATOM      7  O   UNL     1       1.387  -1.751  -5.132  1.00  0.00    -0.272 OA
ATOM      8  H   UNL     1       1.268  -3.355  -2.405  1.00  0.00     0.164 HD
BRANCH   6   9
ATOM      9  C   UNL     1       3.112  -3.089  -4.041  1.00  0.00     0.219 C 
BRANCH   9  10
ATOM     10  O   UNL     1       3.734  -2.766  -2.791  1.00  0.00    -0.382 OA
ATOM     11  H   UNL     1       4.599  -2.382  -3.056  1.00  0.00     0.211 HD
ENDBRANCH   9  10
BRANCH   9  12
ATOM     12  C   UNL     1       3.119  -4.622  -4.280  1.00  0.00     0.089 C 
BRANCH  12  13
ATOM     13  N   UNL     1       2.353  -5.268  -3.190  1.00  0.00    -0.325 NA
ATOM     14  H   UNL     1       2.514  -6.277  -3.218  1.00  0.00     0.119 HD
ATOM     15  H   UNL     1       1.354  -5.152  -3.374  1.00  0.00     0.119 HD
ENDBRANCH  12  13
BRANCH  12  16
ATOM     16  C   UNL     1       2.591  -5.096  -5.655  1.00  0.00     0.022 C 
BRANCH  16  17
ATOM     17  C   UNL     1       3.547  -5.822  -6.612  1.00  0.00     0.002 C 
BRANCH  17  18
ATOM     18  C   UNL     1       4.883  -6.236  -5.998  1.00  0.00     0.000 C 
BRANCH  18  19
ATOM     19  C   UNL     1       5.030  -7.748  -5.784  1.00  0.00    -0.000 C 
BRANCH  19  20
ATOM     20  C   UNL     1       3.744  -8.559  -5.968  1.00  0.00    -0.000 C 
BRANCH  20  21
ATOM     21  C   UNL     1       3.026  -8.852  -4.648  1.00  0.00    -0.003 C 
ATOM     22  C   UNL     1       3.926  -8.575  -3.453  1.00  0.00     0.004 C 
ENDBRANCH  20  21
ENDBRANCH  19  20
ENDBRANCH  18  19
ENDBRANCH  17  18
ENDBRANCH  16  17
ENDBRANCH  12  16
ENDBRANCH   9  12
ENDBRANCH   6   9
ENDBRANCH   3   5
ENDBRANCH   2   3
BRANCH   2  23
ATOM     23  N   UNL     1      -1.120  -4.226  -1.706  1.00  0.00    -0.332 N 
ATOM     24  C   UNL     1      -0.108  -4.477  -0.691  1.00  0.00     0.147 C 
BRANCH  23  25
ATOM     25  C   UNL     1      -1.904  -5.422  -2.120  1.00  0.00     0.174 C 
BRANCH  25  26
ATOM     26  C   UNL     1      -1.735  -6.616  -1.151  1.00  0.00     0.038 C 
BRANCH  26  27
ATOM     27  C   UNL     1      -2.996  -7.084  -0.391  1.00  0.00    -0.015 C 
ATOM     28  C   UNL     1      -2.917  -6.792   1.107  1.00  0.00     0.007 C 
ATOM     29  C   UNL     1      -4.296  -6.539  -0.977  1.00  0.00     0.007 C 
ENDBRANCH  26  27
ENDBRANCH  25  26
BRANCH  25  30
ATOM     30  C   UNL     1      -1.604  -5.772  -3.595  1.00  0.00     0.243 C 
ATOM     31  O   UNL     1      -0.506  -5.552  -4.105  1.00  0.00    -0.273 OA
ATOM     32  N   UNL     1      -2.641  -6.334  -4.295  1.00  0.00    -0.342 N 
ATOM     33  H   UNL     1      -3.471  -6.614  -3.767  1.00  0.00     0.164 HD
BRANCH  32  34
ATOM     34  C   UNL     1      -2.546  -6.704  -5.709  1.00  0.00     0.175 C 
BRANCH  34  35
ATOM     35  C   UNL     1      -2.218  -8.196  -5.876  1.00  0.00     0.070 C 
BRANCH  35  36
ATOM     36  C   UNL     1      -1.072  -8.439  -6.832  1.00  0.00    -0.045 A 
ATOM     37  C   UNL     1      -0.870  -9.718  -7.374  1.00  0.00     0.007 A 
ATOM     38  C   UNL     1      -0.188  -7.407  -7.172  1.00  0.00     0.007 A 
ATOM     39  C   UNL     1       0.193  -9.955  -8.246  1.00  0.00     0.046 A 
ATOM     40  C   UNL     1       0.877  -7.645  -8.045  1.00  0.00     0.046 A 
ATOM     41  C   UNL     1       1.057  -8.918  -8.575  1.00  0.00     0.115 A 
BRANCH  41  42
ATOM     42  O   UNL     1       2.084  -9.193  -9.428  1.00  0.00    -0.508 OA
ATOM     43  H   UNL     1       2.706  -8.446  -9.407  1.00  0.00     0.293 HD
ENDBRANCH  41  42
ENDBRANCH  35  36
ENDBRANCH  34  35
BRANCH  34  44
ATOM     44  C   UNL     1      -3.879  -6.326  -6.393  1.00  0.00     0.243 C 
ATOM     45  O   UNL     1      -4.847  -5.846  -5.809  1.00  0.00    -0.273 OA
ATOM     46  N   UNL     1      -3.941  -6.700  -7.719  1.00  0.00    -0.341 N 
ATOM     47  H   UNL     1      -3.157  -7.201  -8.128  1.00  0.00     0.164 HD
BRANCH  46  48
ATOM     48  C   UNL     1      -5.128  -6.508  -8.555  1.00  0.00     0.196 C 
BRANCH  48  49
ATOM     49  C   UNL     1      -4.743  -6.193 -10.010  1.00  0.00     0.072 C 
BRANCH  49  50
ATOM     50  C   UNL     1      -3.519  -6.955 -10.466  1.00  0.00    -0.045 A 
ATOM     51  C   UNL     1      -2.264  -6.329 -10.464  1.00  0.00     0.007 A 
ATOM     52  C   UNL     1      -3.620  -8.279 -10.914  1.00  0.00     0.007 A 
ATOM     53  C   UNL     1      -1.131  -7.019 -10.895  1.00  0.00     0.046 A 
ATOM     54  C   UNL     1      -2.485  -8.969 -11.347  1.00  0.00     0.046 A 
ATOM     55  C   UNL     1      -1.249  -8.332 -11.332  1.00  0.00     0.115 A 
BRANCH  55  56
ATOM     56  O   UNL     1      -0.117  -8.970 -11.747  1.00  0.00    -0.508 OA
ATOM     57  H   UNL     1       0.273  -9.427 -10.985  1.00  0.00     0.293 HD
ENDBRANCH  55  56
ENDBRANCH  49  50
ENDBRANCH  48  49
BRANCH  48  58
ATOM     58  C   UNL     1      -5.980  -7.784  -8.514  1.00  0.00     0.326 C 
ATOM     59  O   UNL     1      -6.639  -8.263  -9.422  1.00  0.00    -0.250 OA
BRANCH  58  60
ATOM     60  O   UNL     1      -5.949  -8.417  -7.314  1.00  0.00    -0.480 OA
ATOM     61  H   UNL     1      -6.818  -8.872  -7.275  1.00  0.00     0.296 HD
ENDBRANCH  58  60
ENDBRANCH  48  58
ENDBRANCH  46  48
ENDBRANCH  34  44
ENDBRANCH  32  34
ENDBRANCH  25  30
ENDBRANCH  23  25
ENDBRANCH   2  23
TORSDOF 28
ENDMDL
MODEL 21
REMARK VINA RESULT:    -5.865      2.928      5.038
REMARK INTER + INTRA:         -20.689
REMARK INTER:                 -16.062
REMARK INTRA:                  -4.627
REMARK UNBOUND:                -6.081
REMARK SMILES CCCCCCC[C@H](N)[C@H](O)C(=O)N[C@H](C)C(=O)N(C)[C@H](CC(C)C)C(=O)N[C@@H](Cc1ccc(O)cc1)C(=O)N[C@@H](Cc1ccc(O)cc1)C(=O)O
REMARK SMILES IDX 18 1 17 2 15 3 16 4 14 5 12 6 13 7 10 9 11 10 8 12 9 13 7 16
REMARK SMILES IDX 6 17 5 18 4 19 3 20 2 21 1 22 19 23 20 24 21 25 22 26 23 27
REMARK SMILES IDX 24 28 25 29 26 30 27 31 28 32 29 34 30 35 31 36 32 37 37 38
REMARK SMILES IDX 33 39 36 40 34 41 35 42 38 44 39 45 40 46 41 48 42 49 43 50
REMARK SMILES IDX 44 51 49 52 45 53 48 54 46 55 47 56 50 58 51 59 52 60
REMARK H PARENT 14 8 11 11 9 14 9 15 28 33 35 43 40 47 47 57 52 61
ROOT
ATOM      1  O   UNL     1       0.286  -6.913  -5.486  1.00  0.00    -0.272 OA
ATOM      2  C   UNL     1       0.786  -7.019  -6.616  1.00  0.00     0.245 C 
ENDROOT
BRANCH   2   3
ATOM      3  C   UNL     1       2.008  -6.135  -6.971  1.00  0.00     0.168 C 
ATOM      4  C   UNL     1       1.830  -5.491  -8.342  1.00  0.00     0.041 C 
BRANCH   3   5
ATOM      5  N   UNL     1       2.371  -5.158  -5.956  1.00  0.00    -0.342 N 
ATOM      6  C   UNL     1       3.674  -4.742  -5.780  1.00  0.00     0.251 C 
ATOM      7  O   UNL     1       4.619  -5.185  -6.424  1.00  0.00    -0.272 OA
ATOM      8  H   UNL     1       1.678  -4.745  -5.337  1.00  0.00     0.164 HD
BRANCH   6   9
ATOM      9  C   UNL     1       3.800  -3.605  -4.753  1.00  0.00     0.219 C 
BRANCH   9  10
ATOM     10  O   UNL     1       5.000  -3.694  -3.975  1.00  0.00    -0.382 OA
ATOM     11  H   UNL     1       5.278  -4.630  -4.086  1.00  0.00     0.211 HD
ENDBRANCH   9  10
BRANCH   9  12
ATOM     12  C   UNL     1       3.657  -2.196  -5.384  1.00  0.00     0.089 C 
BRANCH  12  13
ATOM     13  N   UNL     1       2.969  -2.335  -6.688  1.00  0.00    -0.325 NA
ATOM     14  H   UNL     1       3.181  -1.522  -7.269  1.00  0.00     0.119 HD
ATOM     15  H   UNL     1       1.959  -2.297  -6.535  1.00  0.00     0.119 HD
ENDBRANCH  12  13
BRANCH  12  16
ATOM     16  C   UNL     1       2.940  -1.134  -4.516  1.00  0.00     0.022 C 
BRANCH  16  17
ATOM     17  C   UNL     1       2.250  -1.572  -3.218  1.00  0.00     0.002 C 
BRANCH  17  18
ATOM     18  C   UNL     1       0.818  -1.069  -3.047  1.00  0.00     0.000 C 
BRANCH  18  19
ATOM     19  C   UNL     1      -0.242  -2.178  -3.077  1.00  0.00    -0.000 C 
BRANCH  19  20
ATOM     20  C   UNL     1      -0.715  -2.662  -1.703  1.00  0.00    -0.000 C 
BRANCH  20  21
ATOM     21  C   UNL     1      -0.435  -4.147  -1.461  1.00  0.00    -0.003 C 
ATOM     22  C   UNL     1      -0.564  -4.503   0.012  1.00  0.00     0.004 C 
ENDBRANCH  20  21
ENDBRANCH  19  20
ENDBRANCH  18  19
ENDBRANCH  17  18
ENDBRANCH  16  17
ENDBRANCH  12  16
ENDBRANCH   9  12
ENDBRANCH   6   9
ENDBRANCH   3   5
ENDBRANCH   2   3
BRANCH   2  23
ATOM     23  N   UNL     1       0.329  -7.999  -7.490  1.00  0.00    -0.332 N 
ATOM     24  C   UNL     1       1.156  -9.058  -8.049  1.00  0.00     0.147 C 
BRANCH  23  25
ATOM     25  C   UNL     1      -1.120  -8.097  -7.816  1.00  0.00     0.174 C 
BRANCH  25  26
ATOM     26  C   UNL     1      -1.615  -6.940  -8.715  1.00  0.00     0.038 C 
BRANCH  26  27
ATOM     27  C   UNL     1      -2.167  -7.320 -10.107  1.00  0.00    -0.015 C 
ATOM     28  C   UNL     1      -3.222  -6.334 -10.607  1.00  0.00     0.007 C 
ATOM     29  C   UNL     1      -1.077  -7.521 -11.157  1.00  0.00     0.007 C 
ENDBRANCH  26  27
ENDBRANCH  25  26
BRANCH  25  30
ATOM     30  C   UNL     1      -1.946  -8.276  -6.522  1.00  0.00     0.243 C 
ATOM     31  O   UNL     1      -1.996  -9.351  -5.925  1.00  0.00    -0.273 OA
ATOM     32  N   UNL     1      -2.621  -7.163  -6.090  1.00  0.00    -0.342 N 
ATOM     33  H   UNL     1      -2.418  -6.275  -6.556  1.00  0.00     0.164 HD
BRANCH  32  34
ATOM     34  C   UNL     1      -3.474  -7.155  -4.899  1.00  0.00     0.175 C 
BRANCH  34  35
ATOM     35  C   UNL     1      -2.988  -6.122  -3.870  1.00  0.00     0.070 C 
BRANCH  35  36
ATOM     36  C   UNL     1      -2.809  -6.711  -2.489  1.00  0.00    -0.045 A 
ATOM     37  C   UNL     1      -1.740  -7.582  -2.231  1.00  0.00     0.007 A 
ATOM     38  C   UNL     1      -3.712  -6.418  -1.460  1.00  0.00     0.007 A 
ATOM     39  C   UNL     1      -1.574  -8.142  -0.964  1.00  0.00     0.046 A 
ATOM     40  C   UNL     1      -3.548  -6.978  -0.191  1.00  0.00     0.046 A 
ATOM     41  C   UNL     1      -2.478  -7.835   0.046  1.00  0.00     0.115 A 
BRANCH  41  42
ATOM     42  O   UNL     1      -2.283  -8.405   1.269  1.00  0.00    -0.508 OA
ATOM     43  H   UNL     1      -1.513  -8.995   1.210  1.00  0.00     0.293 HD
ENDBRANCH  41  42
ENDBRANCH  35  36
ENDBRANCH  34  35
BRANCH  34  44
ATOM     44  C   UNL     1      -4.926  -6.879  -5.351  1.00  0.00     0.243 C 
ATOM     45  O   UNL     1      -5.459  -7.402  -6.326  1.00  0.00    -0.273 OA
ATOM     46  N   UNL     1      -5.545  -5.880  -4.631  1.00  0.00    -0.341 N 
ATOM     47  H   UNL     1      -5.020  -5.395  -3.907  1.00  0.00     0.164 HD
BRANCH  46  48
ATOM     48  C   UNL     1      -6.897  -5.397  -4.921  1.00  0.00     0.196 C 
BRANCH  48  49
ATOM     49  C   UNL     1      -7.682  -5.122  -3.627  1.00  0.00     0.072 C 
BRANCH  49  50
ATOM     50  C   UNL     1      -8.162  -6.389  -2.957  1.00  0.00    -0.045 A 
ATOM     51  C   UNL     1      -9.436  -6.897  -3.253  1.00  0.00     0.007 A 
ATOM     52  C   UNL     1      -7.361  -7.059  -2.023  1.00  0.00     0.007 A 
ATOM     53  C   UNL     1      -9.895  -8.058  -2.631  1.00  0.00     0.046 A 
ATOM     54  C   UNL     1      -7.821  -8.221  -1.399  1.00  0.00     0.046 A 
ATOM     55  C   UNL     1      -9.085  -8.711  -1.710  1.00  0.00     0.115 A 
BRANCH  55  56
ATOM     56  O   UNL     1      -9.571  -9.842  -1.123  1.00  0.00    -0.508 OA
ATOM     57  H   UNL     1      -9.138 -10.609  -1.530  1.00  0.00     0.293 HD
ENDBRANCH  55  56
ENDBRANCH  49  50
ENDBRANCH  48  49
BRANCH  48  58
ATOM     58  C   UNL     1      -6.801  -4.108  -5.749  1.00  0.00     0.326 C 
ATOM     59  O   UNL     1      -7.609  -3.690  -6.562  1.00  0.00    -0.250 OA
BRANCH  58  60
ATOM     60  O   UNL     1      -5.679  -3.387  -5.499  1.00  0.00    -0.480 OA
ATOM     61  H   UNL     1      -5.069  -4.047  -5.104  1.00  0.00     0.296 HD
ENDBRANCH  58  60
ENDBRANCH  48  58
ENDBRANCH  46  48
ENDBRANCH  34  44
ENDBRANCH  32  34
ENDBRANCH  25  30
ENDBRANCH  23  25
ENDBRANCH   2  23
TORSDOF 28
ENDMDL
MODEL 22
REMARK VINA RESULT:    -5.855      3.485      6.839
REMARK INTER + INTRA:         -20.664
REMARK INTER:                 -16.501
REMARK INTRA:                  -4.163
REMARK UNBOUND:                -6.081
REMARK SMILES CCCCCCC[C@H](N)[C@H](O)C(=O)N[C@H](C)C(=O)N(C)[C@H](CC(C)C)C(=O)N[C@@H](Cc1ccc(O)cc1)C(=O)N[C@@H](Cc1ccc(O)cc1)C(=O)O
REMARK SMILES IDX 18 1 17 2 15 3 16 4 14 5 12 6 13 7 10 9 11 10 8 12 9 13 7 16
REMARK SMILES IDX 6 17 5 18 4 19 3 20 2 21 1 22 19 23 20 24 21 25 22 26 23 27
REMARK SMILES IDX 24 28 25 29 26 30 27 31 28 32 29 34 30 35 31 36 32 37 37 38
REMARK SMILES IDX 33 39 36 40 34 41 35 42 38 44 39 45 40 46 41 48 42 49 43 50
REMARK SMILES IDX 44 51 49 52 45 53 48 54 46 55 47 56 50 58 51 59 52 60
REMARK H PARENT 14 8 11 11 9 14 9 15 28 33 35 43 40 47 47 57 52 61
ROOT
ATOM      1  O   UNL     1      -2.739  -8.858  -0.253  1.00  0.00    -0.272 OA
ATOM      2  C   UNL     1      -3.087  -7.860  -0.902  1.00  0.00     0.245 C 
ENDROOT
BRANCH   2   3
ATOM      3  C   UNL     1      -1.994  -6.876  -1.389  1.00  0.00     0.168 C 
ATOM      4  C   UNL     1      -1.124  -7.520  -2.462  1.00  0.00     0.041 C 
BRANCH   3   5
ATOM      5  N   UNL     1      -2.488  -5.572  -1.803  1.00  0.00    -0.342 N 
ATOM      6  C   UNL     1      -1.968  -4.401  -1.293  1.00  0.00     0.251 C 
ATOM      7  O   UNL     1      -1.093  -4.367  -0.434  1.00  0.00    -0.272 OA
ATOM      8  H   UNL     1      -3.237  -5.473  -2.485  1.00  0.00     0.164 HD
BRANCH   6   9
ATOM      9  C   UNL     1      -2.540  -3.149  -1.977  1.00  0.00     0.219 C 
BRANCH   9  10
ATOM     10  O   UNL     1      -3.898  -3.321  -2.399  1.00  0.00    -0.382 OA
ATOM     11  H   UNL     1      -3.925  -2.882  -3.277  1.00  0.00     0.211 HD
ENDBRANCH   9  10
BRANCH   9  12
ATOM     12  C   UNL     1      -2.388  -1.864  -1.120  1.00  0.00     0.089 C 
BRANCH  12  13
ATOM     13  N   UNL     1      -2.696  -2.203   0.288  1.00  0.00    -0.325 NA
ATOM     14  H   UNL     1      -2.776  -3.217   0.380  1.00  0.00     0.119 HD
ATOM     15  H   UNL     1      -3.624  -1.840   0.521  1.00  0.00     0.119 HD
ENDBRANCH  12  13
BRANCH  12  16
ATOM     16  C   UNL     1      -1.019  -1.149  -1.208  1.00  0.00     0.022 C 
BRANCH  16  17
ATOM     17  C   UNL     1      -0.400  -0.886  -2.588  1.00  0.00     0.002 C 
BRANCH  17  18
ATOM     18  C   UNL     1       1.126  -0.913  -2.625  1.00  0.00     0.000 C 
BRANCH  18  19
ATOM     19  C   UNL     1       1.717  -2.258  -3.066  1.00  0.00    -0.000 C 
BRANCH  19  20
ATOM     20  C   UNL     1       0.715  -3.237  -3.684  1.00  0.00    -0.000 C 
BRANCH  20  21
ATOM     21  C   UNL     1       1.088  -4.704  -3.452  1.00  0.00    -0.003 C 
ATOM     22  C   UNL     1       2.595  -4.882  -3.345  1.00  0.00     0.004 C 
ENDBRANCH  20  21
ENDBRANCH  19  20
ENDBRANCH  18  19
ENDBRANCH  17  18
ENDBRANCH  16  17
ENDBRANCH  12  16
ENDBRANCH   9  12
ENDBRANCH   6   9
ENDBRANCH   3   5
ENDBRANCH   2   3
BRANCH   2  23
ATOM     23  N   UNL     1      -4.415  -7.706  -1.283  1.00  0.00    -0.332 N 
ATOM     24  C   UNL     1      -5.430  -7.033  -0.486  1.00  0.00     0.147 C 
BRANCH  23  25
ATOM     25  C   UNL     1      -4.862  -8.130  -2.638  1.00  0.00     0.174 C 
BRANCH  25  26
ATOM     26  C   UNL     1      -4.248  -9.479  -3.081  1.00  0.00     0.038 C 
BRANCH  26  27
ATOM     27  C   UNL     1      -5.233 -10.596  -3.491  1.00  0.00    -0.015 C 
ATOM     28  C   UNL     1      -5.818 -10.376  -4.886  1.00  0.00     0.007 C 
ATOM     29  C   UNL     1      -4.644 -11.999  -3.371  1.00  0.00     0.007 C 
ENDBRANCH  26  27
ENDBRANCH  25  26
BRANCH  25  30
ATOM     30  C   UNL     1      -4.643  -6.984  -3.653  1.00  0.00     0.243 C 
ATOM     31  O   UNL     1      -4.914  -5.815  -3.382  1.00  0.00    -0.273 OA
ATOM     32  N   UNL     1      -4.135  -7.359  -4.870  1.00  0.00    -0.342 N 
ATOM     33  H   UNL     1      -3.804  -8.322  -4.969  1.00  0.00     0.164 HD
BRANCH  32  34
ATOM     34  C   UNL     1      -3.888  -6.413  -5.962  1.00  0.00     0.175 C 
BRANCH  34  35
ATOM     35  C   UNL     1      -2.526  -6.667  -6.624  1.00  0.00     0.070 C 
BRANCH  35  36
ATOM     36  C   UNL     1      -2.203  -8.139  -6.751  1.00  0.00    -0.045 A 
ATOM     37  C   UNL     1      -1.122  -8.684  -6.041  1.00  0.00     0.007 A 
ATOM     38  C   UNL     1      -2.955  -8.970  -7.591  1.00  0.00     0.007 A 
ATOM     39  C   UNL     1      -0.808 -10.038  -6.162  1.00  0.00     0.046 A 
ATOM     40  C   UNL     1      -2.640 -10.326  -7.714  1.00  0.00     0.046 A 
ATOM     41  C   UNL     1      -1.569 -10.848  -6.997  1.00  0.00     0.115 A 
BRANCH  41  42
ATOM     42  O   UNL     1      -1.227 -12.164  -7.090  1.00  0.00    -0.508 OA
ATOM     43  H   UNL     1      -1.963 -12.642  -7.508  1.00  0.00     0.293 HD
ENDBRANCH  41  42
ENDBRANCH  35  36
ENDBRANCH  34  35
BRANCH  34  44
ATOM     44  C   UNL     1      -5.052  -6.532  -6.971  1.00  0.00     0.243 C 
ATOM     45  O   UNL     1      -5.906  -7.414  -6.944  1.00  0.00    -0.273 OA
ATOM     46  N   UNL     1      -4.978  -5.622  -8.004  1.00  0.00    -0.341 N 
ATOM     47  H   UNL     1      -4.185  -4.987  -8.047  1.00  0.00     0.164 HD
BRANCH  46  48
ATOM     48  C   UNL     1      -5.930  -5.587  -9.117  1.00  0.00     0.196 C 
BRANCH  48  49
ATOM     49  C   UNL     1      -5.943  -6.918  -9.886  1.00  0.00     0.072 C 
BRANCH  49  50
ATOM     50  C   UNL     1      -4.570  -7.321 -10.375  1.00  0.00    -0.045 A 
ATOM     51  C   UNL     1      -3.512  -6.402 -10.323  1.00  0.00     0.007 A 
ATOM     52  C   UNL     1      -4.339  -8.598 -10.903  1.00  0.00     0.007 A 
ATOM     53  C   UNL     1      -2.245  -6.758 -10.783  1.00  0.00     0.046 A 
ATOM     54  C   UNL     1      -3.070  -8.954 -11.365  1.00  0.00     0.046 A 
ATOM     55  C   UNL     1      -2.033  -8.030 -11.300  1.00  0.00     0.115 A 
BRANCH  55  56
ATOM     56  O   UNL     1      -0.780  -8.337 -11.742  1.00  0.00    -0.508 OA
ATOM     57  H   UNL     1      -0.202  -7.575 -11.577  1.00  0.00     0.293 HD
ENDBRANCH  55  56
ENDBRANCH  49  50
ENDBRANCH  48  49
BRANCH  48  58
ATOM     58  C   UNL     1      -7.333  -5.298  -8.564  1.00  0.00     0.326 C 
ATOM     59  O   UNL     1      -7.640  -4.464  -7.728  1.00  0.00    -0.250 OA
BRANCH  58  60
ATOM     60  O   UNL     1      -8.301  -6.076  -9.110  1.00  0.00    -0.480 OA
ATOM     61  H   UNL     1      -7.799  -6.678  -9.701  1.00  0.00     0.296 HD
ENDBRANCH  58  60
ENDBRANCH  48  58
ENDBRANCH  46  48
ENDBRANCH  34  44
ENDBRANCH  32  34
ENDBRANCH  25  30
ENDBRANCH  23  25
ENDBRANCH   2  23
TORSDOF 28
ENDMDL
MODEL 23
REMARK VINA RESULT:    -5.844      3.277     10.432
REMARK INTER + INTRA:         -20.636
REMARK INTER:                 -16.836
REMARK INTRA:                  -3.799
REMARK UNBOUND:                -6.081
REMARK SMILES CCCCCCC[C@H](N)[C@H](O)C(=O)N[C@H](C)C(=O)N(C)[C@H](CC(C)C)C(=O)N[C@@H](Cc1ccc(O)cc1)C(=O)N[C@@H](Cc1ccc(O)cc1)C(=O)O
REMARK SMILES IDX 18 1 17 2 15 3 16 4 14 5 12 6 13 7 10 9 11 10 8 12 9 13 7 16
REMARK SMILES IDX 6 17 5 18 4 19 3 20 2 21 1 22 19 23 20 24 21 25 22 26 23 27
REMARK SMILES IDX 24 28 25 29 26 30 27 31 28 32 29 34 30 35 31 36 32 37 37 38
REMARK SMILES IDX 33 39 36 40 34 41 35 42 38 44 39 45 40 46 41 48 42 49 43 50
REMARK SMILES IDX 44 51 49 52 45 53 48 54 46 55 47 56 50 58 51 59 52 60
REMARK H PARENT 14 8 11 11 9 14 9 15 28 33 35 43 40 47 47 57 52 61
ROOT
ATOM      1  O   UNL     1      -3.050  -6.508  -5.975  1.00  0.00    -0.272 OA
ATOM      2  C   UNL     1      -4.197  -6.709  -5.550  1.00  0.00     0.245 C 
ENDROOT
BRANCH   2   3
ATOM      3  C   UNL     1      -5.167  -7.560  -6.408  1.00  0.00     0.168 C 
ATOM      4  C   UNL     1      -5.847  -8.628  -5.559  1.00  0.00     0.041 C 
BRANCH   3   5
ATOM      5  N   UNL     1      -6.127  -6.793  -7.186  1.00  0.00    -0.342 N 
ATOM      6  C   UNL     1      -5.916  -6.496  -8.516  1.00  0.00     0.251 C 
ATOM      7  O   UNL     1      -4.900  -6.812  -9.126  1.00  0.00    -0.272 OA
ATOM      8  H   UNL     1      -6.992  -6.446  -6.778  1.00  0.00     0.164 HD
BRANCH   6   9
ATOM      9  C   UNL     1      -7.123  -5.804  -9.170  1.00  0.00     0.219 C 
BRANCH   9  10
ATOM     10  O   UNL     1      -6.899  -4.409  -9.405  1.00  0.00    -0.382 OA
ATOM     11  H   UNL     1      -7.378  -3.971  -8.667  1.00  0.00     0.211 HD
ENDBRANCH   9  10
BRANCH   9  12
ATOM     12  C   UNL     1      -7.601  -6.511 -10.465  1.00  0.00     0.089 C 
BRANCH  12  13
ATOM     13  N   UNL     1      -7.595  -7.973 -10.229  1.00  0.00    -0.325 NA
ATOM     14  H   UNL     1      -8.496  -8.363 -10.514  1.00  0.00     0.119 HD
ATOM     15  H   UNL     1      -7.537  -8.146  -9.223  1.00  0.00     0.119 HD
ENDBRANCH  12  13
BRANCH  12  16
ATOM     16  C   UNL     1      -8.980  -6.066 -11.010  1.00  0.00     0.022 C 
BRANCH  16  17
ATOM     17  C   UNL     1     -10.004  -7.136 -11.412  1.00  0.00     0.002 C 
BRANCH  17  18
ATOM     18  C   UNL     1     -11.329  -7.076 -10.655  1.00  0.00     0.000 C 
BRANCH  18  19
ATOM     19  C   UNL     1     -12.137  -8.379 -10.706  1.00  0.00    -0.000 C 
BRANCH  19  20
ATOM     20  C   UNL     1     -12.457  -8.892 -12.113  1.00  0.00    -0.000 C 
BRANCH  20  21
ATOM     21  C   UNL     1     -11.849 -10.267 -12.403  1.00  0.00    -0.003 C 
ATOM     22  C   UNL     1     -10.832 -10.198 -13.531  1.00  0.00     0.004 C 
ENDBRANCH  20  21
ENDBRANCH  19  20
ENDBRANCH  18  19
ENDBRANCH  17  18
ENDBRANCH  16  17
ENDBRANCH  12  16
ENDBRANCH   9  12
ENDBRANCH   6   9
ENDBRANCH   3   5
ENDBRANCH   2   3
BRANCH   2  23
ATOM     23  N   UNL     1      -4.552  -6.280  -4.276  1.00  0.00    -0.332 N 
ATOM     24  C   UNL     1      -5.446  -5.166  -3.998  1.00  0.00     0.147 C 
BRANCH  23  25
ATOM     25  C   UNL     1      -4.118  -7.048  -3.077  1.00  0.00     0.174 C 
BRANCH  25  26
ATOM     26  C   UNL     1      -4.654  -6.453  -1.753  1.00  0.00     0.038 C 
BRANCH  26  27
ATOM     27  C   UNL     1      -4.448  -7.293  -0.473  1.00  0.00    -0.015 C 
ATOM     28  C   UNL     1      -4.808  -6.523   0.796  1.00  0.00     0.007 C 
ATOM     29  C   UNL     1      -5.168  -8.639  -0.508  1.00  0.00     0.007 C 
ENDBRANCH  26  27
ENDBRANCH  25  26
BRANCH  25  30
ATOM     30  C   UNL     1      -2.584  -7.241  -3.095  1.00  0.00     0.243 C 
ATOM     31  O   UNL     1      -2.070  -8.358  -3.136  1.00  0.00    -0.273 OA
ATOM     32  N   UNL     1      -1.841  -6.090  -3.057  1.00  0.00    -0.342 N 
ATOM     33  H   UNL     1      -2.337  -5.202  -3.167  1.00  0.00     0.164 HD
BRANCH  32  34
ATOM     34  C   UNL     1      -0.375  -6.082  -3.040  1.00  0.00     0.175 C 
BRANCH  34  35
ATOM     35  C   UNL     1       0.200  -6.204  -4.459  1.00  0.00     0.070 C 
BRANCH  35  36
ATOM     36  C   UNL     1       1.712  -6.172  -4.482  1.00  0.00    -0.045 A 
ATOM     37  C   UNL     1       2.382  -5.212  -5.257  1.00  0.00     0.007 A 
ATOM     38  C   UNL     1       2.462  -7.105  -3.755  1.00  0.00     0.007 A 
ATOM     39  C   UNL     1       3.776  -5.183  -5.295  1.00  0.00     0.046 A 
ATOM     40  C   UNL     1       3.858  -7.077  -3.793  1.00  0.00     0.046 A 
ATOM     41  C   UNL     1       4.503  -6.114  -4.563  1.00  0.00     0.115 A 
BRANCH  41  42
ATOM     42  O   UNL     1       5.863  -6.053  -4.630  1.00  0.00    -0.508 OA
ATOM     43  H   UNL     1       6.228  -6.700  -4.004  1.00  0.00     0.293 HD
ENDBRANCH  41  42
ENDBRANCH  35  36
ENDBRANCH  34  35
BRANCH  34  44
ATOM     44  C   UNL     1       0.088  -4.785  -2.339  1.00  0.00     0.243 C 
ATOM     45  O   UNL     1       0.616  -4.746  -1.231  1.00  0.00    -0.273 OA
ATOM     46  N   UNL     1      -0.263  -3.638  -3.018  1.00  0.00    -0.341 N 
ATOM     47  H   UNL     1      -0.804  -3.718  -3.876  1.00  0.00     0.164 HD
BRANCH  46  48
ATOM     48  C   UNL     1       0.008  -2.289  -2.517  1.00  0.00     0.196 C 
BRANCH  48  49
ATOM     49  C   UNL     1       0.422  -1.341  -3.655  1.00  0.00     0.072 C 
BRANCH  49  50
ATOM     50  C   UNL     1       1.888  -1.456  -4.004  1.00  0.00    -0.045 A 
ATOM     51  C   UNL     1       2.335  -1.078  -5.278  1.00  0.00     0.007 A 
ATOM     52  C   UNL     1       2.812  -1.958  -3.079  1.00  0.00     0.007 A 
ATOM     53  C   UNL     1       3.683  -1.192  -5.617  1.00  0.00     0.046 A 
ATOM     54  C   UNL     1       4.162  -2.074  -3.418  1.00  0.00     0.046 A 
ATOM     55  C   UNL     1       4.587  -1.688  -4.685  1.00  0.00     0.115 A 
BRANCH  55  56
ATOM     56  O   UNL     1       5.895  -1.786  -5.055  1.00  0.00    -0.508 OA
ATOM     57  H   UNL     1       5.951  -2.369  -5.829  1.00  0.00     0.293 HD
ENDBRANCH  55  56
ENDBRANCH  49  50
ENDBRANCH  48  49
BRANCH  48  58
ATOM     58  C   UNL     1      -1.254  -1.749  -1.829  1.00  0.00     0.326 C 
ATOM     59  O   UNL     1      -2.172  -1.134  -2.347  1.00  0.00    -0.250 OA
BRANCH  58  60
ATOM     60  O   UNL     1      -1.308  -2.026  -0.502  1.00  0.00    -0.480 OA
ATOM     61  H   UNL     1      -0.455  -1.677  -0.163  1.00  0.00     0.296 HD
ENDBRANCH  58  60
ENDBRANCH  48  58
ENDBRANCH  46  48
ENDBRANCH  34  44
ENDBRANCH  32  34
ENDBRANCH  25  30
ENDBRANCH  23  25
ENDBRANCH   2  23
TORSDOF 28
ENDMDL
MODEL 24
REMARK VINA RESULT:    -5.831      2.391      8.289
REMARK INTER + INTRA:         -20.605
REMARK INTER:                 -17.091
REMARK INTRA:                  -3.514
REMARK UNBOUND:                -6.081
REMARK SMILES CCCCCCC[C@H](N)[C@H](O)C(=O)N[C@H](C)C(=O)N(C)[C@H](CC(C)C)C(=O)N[C@@H](Cc1ccc(O)cc1)C(=O)N[C@@H](Cc1ccc(O)cc1)C(=O)O
REMARK SMILES IDX 18 1 17 2 15 3 16 4 14 5 12 6 13 7 10 9 11 10 8 12 9 13 7 16
REMARK SMILES IDX 6 17 5 18 4 19 3 20 2 21 1 22 19 23 20 24 21 25 22 26 23 27
REMARK SMILES IDX 24 28 25 29 26 30 27 31 28 32 29 34 30 35 31 36 32 37 37 38
REMARK SMILES IDX 33 39 36 40 34 41 35 42 38 44 39 45 40 46 41 48 42 49 43 50
REMARK SMILES IDX 44 51 49 52 45 53 48 54 46 55 47 56 50 58 51 59 52 60
REMARK H PARENT 14 8 11 11 9 14 9 15 28 33 35 43 40 47 47 57 52 61
ROOT
ATOM      1  O   UNL     1      -3.340  -8.773  -4.282  1.00  0.00    -0.272 OA
ATOM      2  C   UNL     1      -2.767  -7.685  -4.441  1.00  0.00     0.245 C 
ENDROOT
BRANCH   2   3
ATOM      3  C   UNL     1      -3.360  -6.677  -5.457  1.00  0.00     0.168 C 
ATOM      4  C   UNL     1      -3.032  -7.093  -6.887  1.00  0.00     0.041 C 
BRANCH   3   5
ATOM      5  N   UNL     1      -4.777  -6.397  -5.285  1.00  0.00    -0.342 N 
ATOM      6  C   UNL     1      -5.231  -5.484  -4.357  1.00  0.00     0.251 C 
ATOM      7  O   UNL     1      -4.493  -4.877  -3.588  1.00  0.00    -0.272 OA
ATOM      8  H   UNL     1      -5.487  -6.865  -5.842  1.00  0.00     0.164 HD
BRANCH   6   9
ATOM      9  C   UNL     1      -6.747  -5.246  -4.450  1.00  0.00     0.219 C 
BRANCH   9  10
ATOM     10  O   UNL     1      -7.322  -4.853  -3.197  1.00  0.00    -0.382 OA
ATOM     11  H   UNL     1      -7.214  -5.650  -2.633  1.00  0.00     0.211 HD
ENDBRANCH   9  10
BRANCH   9  12
ATOM     12  C   UNL     1      -7.140  -4.251  -5.572  1.00  0.00     0.089 C 
BRANCH  12  13
ATOM     13  N   UNL     1      -6.022  -3.299  -5.765  1.00  0.00    -0.325 NA
ATOM     14  H   UNL     1      -5.148  -3.820  -5.856  1.00  0.00     0.119 HD
ATOM     15  H   UNL     1      -5.912  -2.740  -4.915  1.00  0.00     0.119 HD
ENDBRANCH  12  13
BRANCH  12  16
ATOM     16  C   UNL     1      -7.540  -4.881  -6.928  1.00  0.00     0.022 C 
BRANCH  16  17
ATOM     17  C   UNL     1      -6.454  -5.146  -7.979  1.00  0.00     0.002 C 
BRANCH  17  18
ATOM     18  C   UNL     1      -6.813  -6.197  -9.027  1.00  0.00     0.000 C 
BRANCH  18  19
ATOM     19  C   UNL     1      -6.966  -5.636 -10.447  1.00  0.00    -0.000 C 
BRANCH  19  20
ATOM     20  C   UNL     1      -8.359  -5.096 -10.786  1.00  0.00    -0.000 C 
BRANCH  20  21
ATOM     21  C   UNL     1      -9.381  -6.203 -11.060  1.00  0.00    -0.003 C 
ATOM     22  C   UNL     1      -8.754  -7.360 -11.822  1.00  0.00     0.004 C 
ENDBRANCH  20  21
ENDBRANCH  19  20
ENDBRANCH  18  19
ENDBRANCH  17  18
ENDBRANCH  16  17
ENDBRANCH  12  16
ENDBRANCH   9  12
ENDBRANCH   6   9
ENDBRANCH   3   5
ENDBRANCH   2   3
BRANCH   2  23
ATOM     23  N   UNL     1      -1.691  -7.341  -3.630  1.00  0.00    -0.332 N 
ATOM     24  C   UNL     1      -1.559  -7.716  -2.230  1.00  0.00     0.147 C 
BRANCH  23  25
ATOM     25  C   UNL     1      -0.507  -6.648  -4.207  1.00  0.00     0.174 C 
BRANCH  25  26
ATOM     26  C   UNL     1       0.833  -7.311  -3.809  1.00  0.00     0.038 C 
BRANCH  26  27
ATOM     27  C   UNL     1       1.747  -7.787  -4.960  1.00  0.00    -0.015 C 
ATOM     28  C   UNL     1       0.995  -7.931  -6.283  1.00  0.00     0.007 C 
ATOM     29  C   UNL     1       2.994  -6.925  -5.142  1.00  0.00     0.007 C 
ENDBRANCH  26  27
ENDBRANCH  25  26
BRANCH  25  30
ATOM     30  C   UNL     1      -0.569  -5.135  -3.892  1.00  0.00     0.243 C 
ATOM     31  O   UNL     1      -1.635  -4.559  -3.679  1.00  0.00    -0.273 OA
ATOM     32  N   UNL     1       0.637  -4.483  -3.873  1.00  0.00    -0.342 N 
ATOM     33  H   UNL     1       1.485  -5.054  -3.919  1.00  0.00     0.164 HD
BRANCH  32  34
ATOM     34  C   UNL     1       0.767  -3.046  -3.619  1.00  0.00     0.175 C 
BRANCH  34  35
ATOM     35  C   UNL     1       1.016  -2.762  -2.130  1.00  0.00     0.070 C 
BRANCH  35  36
ATOM     36  C   UNL     1      -0.153  -3.156  -1.256  1.00  0.00    -0.045 A 
ATOM     37  C   UNL     1      -1.275  -2.318  -1.164  1.00  0.00     0.007 A 
ATOM     38  C   UNL     1      -0.126  -4.343  -0.512  1.00  0.00     0.007 A 
ATOM     39  C   UNL     1      -2.352  -2.667  -0.349  1.00  0.00     0.046 A 
ATOM     40  C   UNL     1      -1.204  -4.692   0.305  1.00  0.00     0.046 A 
ATOM     41  C   UNL     1      -2.309  -3.851   0.378  1.00  0.00     0.115 A 
BRANCH  41  42
ATOM     42  O   UNL     1      -3.381  -4.153   1.164  1.00  0.00    -0.508 OA
ATOM     43  H   UNL     1      -3.077  -4.731   1.884  1.00  0.00     0.293 HD
ENDBRANCH  41  42
ENDBRANCH  35  36
ENDBRANCH  34  35
BRANCH  34  44
ATOM     44  C   UNL     1       1.908  -2.504  -4.509  1.00  0.00     0.243 C 
ATOM     45  O   UNL     1       1.784  -1.583  -5.312  1.00  0.00    -0.273 OA
ATOM     46  N   UNL     1       3.071  -3.240  -4.419  1.00  0.00    -0.341 N 
ATOM     47  H   UNL     1       3.088  -4.066  -3.827  1.00  0.00     0.164 HD
BRANCH  46  48
ATOM     48  C   UNL     1       4.266  -2.959  -5.218  1.00  0.00     0.196 C 
BRANCH  48  49
ATOM     49  C   UNL     1       3.907  -2.698  -6.691  1.00  0.00     0.072 C 
BRANCH  49  50
ATOM     50  C   UNL     1       3.737  -3.975  -7.483  1.00  0.00    -0.045 A 
ATOM     51  C   UNL     1       4.842  -4.807  -7.712  1.00  0.00     0.007 A 
ATOM     52  C   UNL     1       2.492  -4.333  -8.015  1.00  0.00     0.007 A 
ATOM     53  C   UNL     1       4.701  -5.980  -8.453  1.00  0.00     0.046 A 
ATOM     54  C   UNL     1       2.351  -5.507  -8.758  1.00  0.00     0.046 A 
ATOM     55  C   UNL     1       3.457  -6.322  -8.970  1.00  0.00     0.115 A 
BRANCH  55  56
ATOM     56  O   UNL     1       3.362  -7.476  -9.690  1.00  0.00    -0.508 OA
ATOM     57  H   UNL     1       3.721  -7.314 -10.577  1.00  0.00     0.293 HD
ENDBRANCH  55  56
ENDBRANCH  49  50
ENDBRANCH  48  49
BRANCH  48  58
ATOM     58  C   UNL     1       4.978  -1.730  -4.636  1.00  0.00     0.326 C 
ATOM     59  O   UNL     1       5.023  -0.608  -5.113  1.00  0.00    -0.250 OA
BRANCH  58  60
ATOM     60  O   UNL     1       5.597  -1.973  -3.454  1.00  0.00    -0.480 OA
ATOM     61  H   UNL     1       5.551  -2.950  -3.371  1.00  0.00     0.296 HD
ENDBRANCH  58  60
ENDBRANCH  48  58
ENDBRANCH  46  48
ENDBRANCH  34  44
ENDBRANCH  32  34
ENDBRANCH  25  30
ENDBRANCH  23  25
ENDBRANCH   2  23
TORSDOF 28
ENDMDL
MODEL 25
REMARK VINA RESULT:    -5.765      3.396      6.876
REMARK INTER + INTRA:         -20.439
REMARK INTER:                 -18.450
REMARK INTRA:                  -1.989
REMARK UNBOUND:                -6.081
REMARK SMILES CCCCCCC[C@H](N)[C@H](O)C(=O)N[C@H](C)C(=O)N(C)[C@H](CC(C)C)C(=O)N[C@@H](Cc1ccc(O)cc1)C(=O)N[C@@H](Cc1ccc(O)cc1)C(=O)O
REMARK SMILES IDX 18 1 17 2 15 3 16 4 14 5 12 6 13 7 10 9 11 10 8 12 9 13 7 16
REMARK SMILES IDX 6 17 5 18 4 19 3 20 2 21 1 22 19 23 20 24 21 25 22 26 23 27
REMARK SMILES IDX 24 28 25 29 26 30 27 31 28 32 29 34 30 35 31 36 32 37 37 38
REMARK SMILES IDX 33 39 36 40 34 41 35 42 38 44 39 45 40 46 41 48 42 49 43 50
REMARK SMILES IDX 44 51 49 52 45 53 48 54 46 55 47 56 50 58 51 59 52 60
REMARK H PARENT 14 8 11 11 9 14 9 15 28 33 35 43 40 47 47 57 52 61
ROOT
ATOM      1  O   UNL     1      -0.805  -8.157  -1.464  1.00  0.00    -0.272 OA
ATOM      2  C   UNL     1      -1.915  -8.153  -2.015  1.00  0.00     0.245 C 
ENDROOT
BRANCH   2   3
ATOM      3  C   UNL     1      -3.182  -8.054  -1.129  1.00  0.00     0.168 C 
ATOM      4  C   UNL     1      -3.705  -9.442  -0.774  1.00  0.00     0.041 C 
BRANCH   3   5
ATOM      5  N   UNL     1      -3.040  -7.211   0.048  1.00  0.00    -0.342 N 
ATOM      6  C   UNL     1      -4.093  -6.474   0.547  1.00  0.00     0.251 C 
ATOM      7  O   UNL     1      -5.202  -6.438   0.023  1.00  0.00    -0.272 OA
ATOM      8  H   UNL     1      -2.158  -7.133   0.548  1.00  0.00     0.164 HD
BRANCH   6   9
ATOM      9  C   UNL     1      -3.754  -5.774   1.873  1.00  0.00     0.219 C 
BRANCH   9  10
ATOM     10  O   UNL     1      -3.075  -6.636   2.794  1.00  0.00    -0.382 OA
ATOM     11  H   UNL     1      -2.392  -6.054   3.194  1.00  0.00     0.211 HD
ENDBRANCH   9  10
BRANCH   9  12
ATOM     12  C   UNL     1      -2.971  -4.449   1.679  1.00  0.00     0.089 C 
BRANCH  12  13
ATOM     13  N   UNL     1      -2.374  -4.065   2.978  1.00  0.00    -0.325 NA
ATOM     14  H   UNL     1      -1.628  -4.722   3.213  1.00  0.00     0.119 HD
ATOM     15  H   UNL     1      -3.076  -4.184   3.713  1.00  0.00     0.119 HD
ENDBRANCH  12  13
BRANCH  12  16
ATOM     16  C   UNL     1      -1.885  -4.458   0.577  1.00  0.00     0.022 C 
BRANCH  16  17
ATOM     17  C   UNL     1      -2.088  -3.600  -0.679  1.00  0.00     0.002 C 
BRANCH  17  18
ATOM     18  C   UNL     1      -0.914  -2.691  -1.035  1.00  0.00     0.000 C 
BRANCH  18  19
ATOM     19  C   UNL     1      -1.144  -1.835  -2.288  1.00  0.00    -0.000 C 
BRANCH  19  20
ATOM     20  C   UNL     1       0.025  -1.803  -3.277  1.00  0.00    -0.000 C 
BRANCH  20  21
ATOM     21  C   UNL     1       1.200  -0.953  -2.789  1.00  0.00    -0.003 C 
ATOM     22  C   UNL     1       2.533  -1.613  -3.110  1.00  0.00     0.004 C 
ENDBRANCH  20  21
ENDBRANCH  19  20
ENDBRANCH  18  19
ENDBRANCH  17  18
ENDBRANCH  16  17
ENDBRANCH  12  16
ENDBRANCH   9  12
ENDBRANCH   6   9
ENDBRANCH   3   5
ENDBRANCH   2   3
BRANCH   2  23
ATOM     23  N   UNL     1      -2.003  -8.115  -3.402  1.00  0.00    -0.332 N 
ATOM     24  C   UNL     1      -2.406  -9.238  -4.236  1.00  0.00     0.147 C 
BRANCH  23  25
ATOM     25  C   UNL     1      -1.802  -6.834  -4.133  1.00  0.00     0.174 C 
BRANCH  25  26
ATOM     26  C   UNL     1      -0.852  -5.862  -3.394  1.00  0.00     0.038 C 
BRANCH  26  27
ATOM     27  C   UNL     1       0.467  -5.494  -4.109  1.00  0.00    -0.015 C 
ATOM     28  C   UNL     1       1.576  -5.111  -3.129  1.00  0.00     0.007 C 
ATOM     29  C   UNL     1       0.954  -6.570  -5.077  1.00  0.00     0.007 C 
ENDBRANCH  26  27
ENDBRANCH  25  26
BRANCH  25  30
ATOM     30  C   UNL     1      -3.169  -6.209  -4.497  1.00  0.00     0.243 C 
ATOM     31  O   UNL     1      -3.477  -5.071  -4.148  1.00  0.00    -0.273 OA
ATOM     32  N   UNL     1      -4.010  -7.008  -5.227  1.00  0.00    -0.342 N 
ATOM     33  H   UNL     1      -3.630  -7.883  -5.599  1.00  0.00     0.164 HD
BRANCH  32  34
ATOM     34  C   UNL     1      -5.354  -6.593  -5.639  1.00  0.00     0.175 C 
BRANCH  34  35
ATOM     35  C   UNL     1      -5.907  -5.496  -4.716  1.00  0.00     0.070 C 
BRANCH  35  36
ATOM     36  C   UNL     1      -7.282  -5.823  -4.179  1.00  0.00    -0.045 A 
ATOM     37  C   UNL     1      -8.381  -5.025  -4.532  1.00  0.00     0.007 A 
ATOM     38  C   UNL     1      -7.476  -6.904  -3.309  1.00  0.00     0.007 A 
ATOM     39  C   UNL     1      -9.651  -5.310  -4.030  1.00  0.00     0.046 A 
ATOM     40  C   UNL     1      -8.748  -7.189  -2.805  1.00  0.00     0.046 A 
ATOM     41  C   UNL     1      -9.825  -6.389  -3.172  1.00  0.00     0.115 A 
BRANCH  41  42
ATOM     42  O   UNL     1     -11.082  -6.631  -2.702  1.00  0.00    -0.508 OA
ATOM     43  H   UNL     1     -11.044  -6.656  -1.731  1.00  0.00     0.293 HD
ENDBRANCH  41  42
ENDBRANCH  35  36
ENDBRANCH  34  35
BRANCH  34  44
ATOM     44  C   UNL     1      -5.281  -6.127  -7.110  1.00  0.00     0.243 C 
ATOM     45  O   UNL     1      -4.393  -5.416  -7.570  1.00  0.00    -0.273 OA
ATOM     46  N   UNL     1      -6.390  -6.477  -7.852  1.00  0.00    -0.341 N 
ATOM     47  H   UNL     1      -7.155  -6.967  -7.396  1.00  0.00     0.164 HD
BRANCH  46  48
ATOM     48  C   UNL     1      -6.578  -6.089  -9.252  1.00  0.00     0.196 C 
BRANCH  48  49
ATOM     49  C   UNL     1      -6.488  -7.305 -10.188  1.00  0.00     0.072 C 
BRANCH  49  50
ATOM     50  C   UNL     1      -5.066  -7.634 -10.580  1.00  0.00    -0.045 A 
ATOM     51  C   UNL     1      -4.734  -8.936 -10.980  1.00  0.00     0.007 A 
ATOM     52  C   UNL     1      -4.061  -6.659 -10.530  1.00  0.00     0.007 A 
ATOM     53  C   UNL     1      -3.422  -9.255 -11.331  1.00  0.00     0.046 A 
ATOM     54  C   UNL     1      -2.747  -6.978 -10.880  1.00  0.00     0.046 A 
ATOM     55  C   UNL     1      -2.439  -8.274 -11.279  1.00  0.00     0.115 A 
BRANCH  55  56
ATOM     56  O   UNL     1      -1.169  -8.626 -11.629  1.00  0.00    -0.508 OA
ATOM     57  H   UNL     1      -0.769  -7.887 -12.114  1.00  0.00     0.293 HD
ENDBRANCH  55  56
ENDBRANCH  49  50
ENDBRANCH  48  49
BRANCH  48  58
ATOM     58  C   UNL     1      -7.953  -5.422  -9.404  1.00  0.00     0.326 C 
ATOM     59  O   UNL     1      -8.192  -4.228  -9.471  1.00  0.00    -0.250 OA
BRANCH  58  60
ATOM     60  O   UNL     1      -8.978  -6.308  -9.480  1.00  0.00    -0.480 OA
ATOM     61  H   UNL     1      -9.723  -5.763  -9.814  1.00  0.00     0.296 HD
ENDBRANCH  58  60
ENDBRANCH  48  58
ENDBRANCH  46  48
ENDBRANCH  34  44
ENDBRANCH  32  34
ENDBRANCH  25  30
ENDBRANCH  23  25
ENDBRANCH   2  23
TORSDOF 28
ENDMDL
MODEL 26
REMARK VINA RESULT:    -5.723      2.625      6.414
REMARK INTER + INTRA:         -20.334
REMARK INTER:                 -15.694
REMARK INTRA:                  -4.640
REMARK UNBOUND:                -6.081
REMARK SMILES CCCCCCC[C@H](N)[C@H](O)C(=O)N[C@H](C)C(=O)N(C)[C@H](CC(C)C)C(=O)N[C@@H](Cc1ccc(O)cc1)C(=O)N[C@@H](Cc1ccc(O)cc1)C(=O)O
REMARK SMILES IDX 18 1 17 2 15 3 16 4 14 5 12 6 13 7 10 9 11 10 8 12 9 13 7 16
REMARK SMILES IDX 6 17 5 18 4 19 3 20 2 21 1 22 19 23 20 24 21 25 22 26 23 27
REMARK SMILES IDX 24 28 25 29 26 30 27 31 28 32 29 34 30 35 31 36 32 37 37 38
REMARK SMILES IDX 33 39 36 40 34 41 35 42 38 44 39 45 40 46 41 48 42 49 43 50
REMARK SMILES IDX 44 51 49 52 45 53 48 54 46 55 47 56 50 58 51 59 52 60
REMARK H PARENT 14 8 11 11 9 14 9 15 28 33 35 43 40 47 47 57 52 61
ROOT
ATOM      1  O   UNL     1      -3.718  -8.698   0.196  1.00  0.00    -0.272 OA
ATOM      2  C   UNL     1      -3.574  -7.900  -0.742  1.00  0.00     0.245 C 
ENDROOT
BRANCH   2   3
ATOM      3  C   UNL     1      -2.216  -7.169  -0.893  1.00  0.00     0.168 C 
ATOM      4  C   UNL     1      -1.142  -8.123  -1.403  1.00  0.00     0.041 C 
BRANCH   3   5
ATOM      5  N   UNL     1      -2.265  -5.942  -1.671  1.00  0.00    -0.342 N 
ATOM      6  C   UNL     1      -2.494  -4.716  -1.083  1.00  0.00     0.251 C 
ATOM      7  O   UNL     1      -2.711  -4.570   0.115  1.00  0.00    -0.272 OA
ATOM      8  H   UNL     1      -2.134  -5.941  -2.680  1.00  0.00     0.164 HD
BRANCH   6   9
ATOM      9  C   UNL     1      -2.361  -3.547  -2.073  1.00  0.00     0.219 C 
BRANCH   9  10
ATOM     10  O   UNL     1      -3.529  -2.719  -2.111  1.00  0.00    -0.382 OA
ATOM     11  H   UNL     1      -3.443  -2.237  -2.963  1.00  0.00     0.211 HD
ENDBRANCH   9  10
BRANCH   9  12
ATOM     12  C   UNL     1      -1.088  -2.693  -1.840  1.00  0.00     0.089 C 
BRANCH  12  13
ATOM     13  N   UNL     1      -0.124  -3.495  -1.052  1.00  0.00    -0.325 NA
ATOM     14  H   UNL     1      -0.418  -3.506  -0.073  1.00  0.00     0.119 HD
ATOM     15  H   UNL     1       0.781  -3.020  -1.053  1.00  0.00     0.119 HD
ENDBRANCH  12  13
BRANCH  12  16
ATOM     16  C   UNL     1      -0.402  -2.137  -3.111  1.00  0.00     0.022 C 
BRANCH  16  17
ATOM     17  C   UNL     1       1.111  -1.879  -3.091  1.00  0.00     0.002 C 
BRANCH  17  18
ATOM     18  C   UNL     1       1.797  -1.962  -4.453  1.00  0.00     0.000 C 
BRANCH  18  19
ATOM     19  C   UNL     1       3.319  -1.773  -4.399  1.00  0.00    -0.000 C 
BRANCH  19  20
ATOM     20  C   UNL     1       3.887  -0.778  -5.416  1.00  0.00    -0.000 C 
BRANCH  20  21
ATOM     21  C   UNL     1       5.123  -1.308  -6.147  1.00  0.00    -0.003 C 
ATOM     22  C   UNL     1       4.888  -2.709  -6.690  1.00  0.00     0.004 C 
ENDBRANCH  20  21
ENDBRANCH  19  20
ENDBRANCH  18  19
ENDBRANCH  17  18
ENDBRANCH  16  17
ENDBRANCH  12  16
ENDBRANCH   9  12
ENDBRANCH   6   9
ENDBRANCH   3   5
ENDBRANCH   2   3
BRANCH   2  23
ATOM     23  N   UNL     1      -4.573  -7.766  -1.701  1.00  0.00    -0.332 N 
ATOM     24  C   UNL     1      -5.665  -6.807  -1.627  1.00  0.00     0.147 C 
BRANCH  23  25
ATOM     25  C   UNL     1      -4.505  -8.543  -2.969  1.00  0.00     0.174 C 
BRANCH  25  26
ATOM     26  C   UNL     1      -3.993  -9.988  -2.763  1.00  0.00     0.038 C 
BRANCH  26  27
ATOM     27  C   UNL     1      -5.056 -11.110  -2.735  1.00  0.00    -0.015 C 
ATOM     28  C   UNL     1      -4.452 -12.479  -2.423  1.00  0.00     0.007 C 
ATOM     29  C   UNL     1      -6.226 -10.814  -1.800  1.00  0.00     0.007 C 
ENDBRANCH  26  27
ENDBRANCH  25  26
BRANCH  25  30
ATOM     30  C   UNL     1      -3.718  -7.751  -4.037  1.00  0.00     0.243 C 
ATOM     31  O   UNL     1      -3.974  -6.576  -4.296  1.00  0.00    -0.273 OA
ATOM     32  N   UNL     1      -2.723  -8.445  -4.677  1.00  0.00    -0.342 N 
ATOM     33  H   UNL     1      -2.478  -9.368  -4.310  1.00  0.00     0.164 HD
BRANCH  32  34
ATOM     34  C   UNL     1      -1.893  -7.864  -5.736  1.00  0.00     0.175 C 
BRANCH  34  35
ATOM     35  C   UNL     1      -0.477  -8.460  -5.726  1.00  0.00     0.070 C 
BRANCH  35  36
ATOM     36  C   UNL     1       0.507  -7.616  -4.947  1.00  0.00    -0.045 A 
ATOM     37  C   UNL     1       0.135  -6.341  -4.495  1.00  0.00     0.007 A 
ATOM     38  C   UNL     1       1.803  -8.081  -4.686  1.00  0.00     0.007 A 
ATOM     39  C   UNL     1       1.040  -5.550  -3.787  1.00  0.00     0.046 A 
ATOM     40  C   UNL     1       2.711  -7.289  -3.978  1.00  0.00     0.046 A 
ATOM     41  C   UNL     1       2.320  -6.030  -3.534  1.00  0.00     0.115 A 
BRANCH  41  42
ATOM     42  O   UNL     1       3.175  -5.224  -2.842  1.00  0.00    -0.508 OA
ATOM     43  H   UNL     1       3.412  -5.672  -2.013  1.00  0.00     0.293 HD
ENDBRANCH  41  42
ENDBRANCH  35  36
ENDBRANCH  34  35
BRANCH  34  44
ATOM     44  C   UNL     1      -2.608  -8.095  -7.086  1.00  0.00     0.243 C 
ATOM     45  O   UNL     1      -2.509  -9.119  -7.757  1.00  0.00    -0.273 OA
ATOM     46  N   UNL     1      -3.278  -6.983  -7.550  1.00  0.00    -0.341 N 
ATOM     47  H   UNL     1      -3.233  -6.120  -7.014  1.00  0.00     0.164 HD
BRANCH  46  48
ATOM     48  C   UNL     1      -3.973  -6.940  -8.839  1.00  0.00     0.196 C 
BRANCH  48  49
ATOM     49  C   UNL     1      -5.103  -5.897  -8.831  1.00  0.00     0.072 C 
BRANCH  49  50
ATOM     50  C   UNL     1      -6.275  -6.303  -9.697  1.00  0.00    -0.045 A 
ATOM     51  C   UNL     1      -7.162  -5.327 -10.173  1.00  0.00     0.007 A 
ATOM     52  C   UNL     1      -6.503  -7.647 -10.017  1.00  0.00     0.007 A 
ATOM     53  C   UNL     1      -8.254  -5.690 -10.961  1.00  0.00     0.046 A 
ATOM     54  C   UNL     1      -7.597  -8.011 -10.805  1.00  0.00     0.046 A 
ATOM     55  C   UNL     1      -8.463  -7.028 -11.272  1.00  0.00     0.115 A 
BRANCH  55  56
ATOM     56  O   UNL     1      -9.543  -7.342 -12.043  1.00  0.00    -0.508 OA
ATOM     57  H   UNL     1      -9.965  -6.516 -12.329  1.00  0.00     0.293 HD
ENDBRANCH  55  56
ENDBRANCH  49  50
ENDBRANCH  48  49
BRANCH  48  58
ATOM     58  C   UNL     1      -2.961  -6.595  -9.940  1.00  0.00     0.326 C 
ATOM     59  O   UNL     1      -2.798  -7.175 -11.002  1.00  0.00    -0.250 OA
BRANCH  58  60
ATOM     60  O   UNL     1      -2.199  -5.509  -9.655  1.00  0.00    -0.480 OA
ATOM     61  H   UNL     1      -1.288  -5.814  -9.854  1.00  0.00     0.296 HD
ENDBRANCH  58  60
ENDBRANCH  48  58
ENDBRANCH  46  48
ENDBRANCH  34  44
ENDBRANCH  32  34
ENDBRANCH  25  30
ENDBRANCH  23  25
ENDBRANCH   2  23
TORSDOF 28
ENDMDL
MODEL 27
REMARK VINA RESULT:    -5.708      2.601      5.961
REMARK INTER + INTRA:         -20.299
REMARK INTER:                 -15.908
REMARK INTRA:                  -4.391
REMARK UNBOUND:                -6.081
REMARK SMILES CCCCCCC[C@H](N)[C@H](O)C(=O)N[C@H](C)C(=O)N(C)[C@H](CC(C)C)C(=O)N[C@@H](Cc1ccc(O)cc1)C(=O)N[C@@H](Cc1ccc(O)cc1)C(=O)O
REMARK SMILES IDX 18 1 17 2 15 3 16 4 14 5 12 6 13 7 10 9 11 10 8 12 9 13 7 16
REMARK SMILES IDX 6 17 5 18 4 19 3 20 2 21 1 22 19 23 20 24 21 25 22 26 23 27
REMARK SMILES IDX 24 28 25 29 26 30 27 31 28 32 29 34 30 35 31 36 32 37 37 38
REMARK SMILES IDX 33 39 36 40 34 41 35 42 38 44 39 45 40 46 41 48 42 49 43 50
REMARK SMILES IDX 44 51 49 52 45 53 48 54 46 55 47 56 50 58 51 59 52 60
REMARK H PARENT 14 8 11 11 9 14 9 15 28 33 35 43 40 47 47 57 52 61
ROOT
ATOM      1  O   UNL     1      -2.486  -1.884  -0.210  1.00  0.00    -0.272 OA
ATOM      2  C   UNL     1      -1.785  -2.523  -1.008  1.00  0.00     0.245 C 
ENDROOT
BRANCH   2   3
ATOM      3  C   UNL     1      -1.118  -1.762  -2.182  1.00  0.00     0.168 C 
ATOM      4  C   UNL     1      -1.460  -0.277  -2.128  1.00  0.00     0.041 C 
BRANCH   3   5
ATOM      5  N   UNL     1       0.313  -1.984  -2.319  1.00  0.00    -0.342 N 
ATOM      6  C   UNL     1       0.939  -1.962  -3.547  1.00  0.00     0.251 C 
ATOM      7  O   UNL     1       0.343  -1.798  -4.607  1.00  0.00    -0.272 OA
ATOM      8  H   UNL     1       0.907  -2.164  -1.513  1.00  0.00     0.164 HD
BRANCH   6   9
ATOM      9  C   UNL     1       2.468  -2.077  -3.438  1.00  0.00     0.219 C 
BRANCH   9  10
ATOM     10  O   UNL     1       3.030  -1.127  -2.524  1.00  0.00    -0.382 OA
ATOM     11  H   UNL     1       2.284  -0.920  -1.918  1.00  0.00     0.211 HD
ENDBRANCH   9  10
BRANCH   9  12
ATOM     12  C   UNL     1       2.948  -3.513  -3.103  1.00  0.00     0.089 C 
BRANCH  12  13
ATOM     13  N   UNL     1       1.952  -4.474  -3.631  1.00  0.00    -0.325 NA
ATOM     14  H   UNL     1       1.352  -4.790  -2.867  1.00  0.00     0.119 HD
ATOM     15  H   UNL     1       2.440  -5.313  -3.952  1.00  0.00     0.119 HD
ENDBRANCH  12  13
BRANCH  12  16
ATOM     16  C   UNL     1       4.364  -3.888  -3.601  1.00  0.00     0.022 C 
BRANCH  16  17
ATOM     17  C   UNL     1       5.331  -4.594  -2.640  1.00  0.00     0.002 C 
BRANCH  17  18
ATOM     18  C   UNL     1       4.865  -5.961  -2.146  1.00  0.00     0.000 C 
BRANCH  18  19
ATOM     19  C   UNL     1       4.742  -7.017  -3.253  1.00  0.00    -0.000 C 
BRANCH  19  20
ATOM     20  C   UNL     1       5.974  -7.906  -3.444  1.00  0.00    -0.000 C 
BRANCH  20  21
ATOM     21  C   UNL     1       5.675  -9.395  -3.252  1.00  0.00    -0.003 C 
ATOM     22  C   UNL     1       4.575  -9.865  -4.192  1.00  0.00     0.004 C 
ENDBRANCH  20  21
ENDBRANCH  19  20
ENDBRANCH  18  19
ENDBRANCH  17  18
ENDBRANCH  16  17
ENDBRANCH  12  16
ENDBRANCH   9  12
ENDBRANCH   6   9
ENDBRANCH   3   5
ENDBRANCH   2   3
BRANCH   2  23
ATOM     23  N   UNL     1      -1.511  -3.866  -0.774  1.00  0.00    -0.332 N 
ATOM     24  C   UNL     1      -0.473  -4.354   0.122  1.00  0.00     0.147 C 
BRANCH  23  25
ATOM     25  C   UNL     1      -2.385  -4.923  -1.355  1.00  0.00     0.174 C 
BRANCH  25  26
ATOM     26  C   UNL     1      -2.611  -6.113  -0.393  1.00  0.00     0.038 C 
BRANCH  26  27
ATOM     27  C   UNL     1      -4.075  -6.505  -0.097  1.00  0.00    -0.015 C 
ATOM     28  C   UNL     1      -4.423  -7.900  -0.617  1.00  0.00     0.007 C 
ATOM     29  C   UNL     1      -4.454  -6.371   1.375  1.00  0.00     0.007 C 
ENDBRANCH  26  27
ENDBRANCH  25  26
BRANCH  25  30
ATOM     30  C   UNL     1      -1.860  -5.340  -2.748  1.00  0.00     0.243 C 
ATOM     31  O   UNL     1      -0.778  -4.946  -3.180  1.00  0.00    -0.273 OA
ATOM     32  N   UNL     1      -2.681  -6.170  -3.467  1.00  0.00    -0.342 N 
ATOM     33  H   UNL     1      -3.493  -6.566  -2.986  1.00  0.00     0.164 HD
BRANCH  32  34
ATOM     34  C   UNL     1      -2.360  -6.645  -4.815  1.00  0.00     0.175 C 
BRANCH  34  35
ATOM     35  C   UNL     1      -1.759  -8.059  -4.782  1.00  0.00     0.070 C 
BRANCH  35  36
ATOM     36  C   UNL     1      -0.417  -8.140  -5.472  1.00  0.00    -0.045 A 
ATOM     37  C   UNL     1       0.731  -7.643  -4.836  1.00  0.00     0.007 A 
ATOM     38  C   UNL     1      -0.301  -8.688  -6.757  1.00  0.00     0.007 A 
ATOM     39  C   UNL     1       1.972  -7.702  -5.471  1.00  0.00     0.046 A 
ATOM     40  C   UNL     1       0.941  -8.746  -7.394  1.00  0.00     0.046 A 
ATOM     41  C   UNL     1       2.067  -8.253  -6.743  1.00  0.00     0.115 A 
BRANCH  41  42
ATOM     42  O   UNL     1       3.298  -8.288  -7.330  1.00  0.00    -0.508 OA
ATOM     43  H   UNL     1       3.776  -9.062  -6.989  1.00  0.00     0.293 HD
ENDBRANCH  41  42
ENDBRANCH  35  36
ENDBRANCH  34  35
BRANCH  34  44
ATOM     44  C   UNL     1      -3.650  -6.586  -5.664  1.00  0.00     0.243 C 
ATOM     45  O   UNL     1      -4.416  -5.627  -5.696  1.00  0.00    -0.273 OA
ATOM     46  N   UNL     1      -3.945  -7.775  -6.297  1.00  0.00    -0.341 N 
ATOM     47  H   UNL     1      -3.341  -8.578  -6.146  1.00  0.00     0.164 HD
BRANCH  46  48
ATOM     48  C   UNL     1      -5.151  -7.981  -7.102  1.00  0.00     0.196 C 
BRANCH  48  49
ATOM     49  C   UNL     1      -4.902  -7.642  -8.581  1.00  0.00     0.072 C 
BRANCH  49  50
ATOM     50  C   UNL     1      -5.899  -6.645  -9.126  1.00  0.00    -0.045 A 
ATOM     51  C   UNL     1      -6.528  -5.740  -8.259  1.00  0.00     0.007 A 
ATOM     52  C   UNL     1      -6.224  -6.622 -10.488  1.00  0.00     0.007 A 
ATOM     53  C   UNL     1      -7.459  -4.824  -8.748  1.00  0.00     0.046 A 
ATOM     54  C   UNL     1      -7.158  -5.705 -10.978  1.00  0.00     0.046 A 
ATOM     55  C   UNL     1      -7.767  -4.813 -10.103  1.00  0.00     0.115 A 
BRANCH  55  56
ATOM     56  O   UNL     1      -8.684  -3.903 -10.540  1.00  0.00    -0.508 OA
ATOM     57  H   UNL     1      -8.809  -3.237  -9.846  1.00  0.00     0.293 HD
ENDBRANCH  55  56
ENDBRANCH  49  50
ENDBRANCH  48  49
BRANCH  48  58
ATOM     58  C   UNL     1      -5.591  -9.446  -6.976  1.00  0.00     0.326 C 
ATOM     59  O   UNL     1      -5.951 -10.189  -7.874  1.00  0.00    -0.250 OA
BRANCH  58  60
ATOM     60  O   UNL     1      -5.542  -9.919  -5.705  1.00  0.00    -0.480 OA
ATOM     61  H   UNL     1      -6.485  -9.928  -5.431  1.00  0.00     0.296 HD
ENDBRANCH  58  60
ENDBRANCH  48  58
ENDBRANCH  46  48
ENDBRANCH  34  44
ENDBRANCH  32  34
ENDBRANCH  25  30
ENDBRANCH  23  25
ENDBRANCH   2  23
TORSDOF 28
ENDMDL
MODEL 28
REMARK VINA RESULT:    -5.693     21.253     25.569
REMARK INTER + INTRA:         -20.261
REMARK INTER:                 -15.927
REMARK INTRA:                  -4.334
REMARK UNBOUND:                -6.081
REMARK SMILES CCCCCCC[C@H](N)[C@H](O)C(=O)N[C@H](C)C(=O)N(C)[C@H](CC(C)C)C(=O)N[C@@H](Cc1ccc(O)cc1)C(=O)N[C@@H](Cc1ccc(O)cc1)C(=O)O
REMARK SMILES IDX 18 1 17 2 15 3 16 4 14 5 12 6 13 7 10 9 11 10 8 12 9 13 7 16
REMARK SMILES IDX 6 17 5 18 4 19 3 20 2 21 1 22 19 23 20 24 21 25 22 26 23 27
REMARK SMILES IDX 24 28 25 29 26 30 27 31 28 32 29 34 30 35 31 36 32 37 37 38
REMARK SMILES IDX 33 39 36 40 34 41 35 42 38 44 39 45 40 46 41 48 42 49 43 50
REMARK SMILES IDX 44 51 49 52 45 53 48 54 46 55 47 56 50 58 51 59 52 60
REMARK H PARENT 14 8 11 11 9 14 9 15 28 33 35 43 40 47 47 57 52 61
ROOT
ATOM      1  O   UNL     1     -18.012  12.521   0.101  1.00  0.00    -0.272 OA
ATOM      2  C   UNL     1     -18.634  11.703  -0.592  1.00  0.00     0.245 C 
ENDROOT
BRANCH   2   3
ATOM      3  C   UNL     1     -18.385  10.192  -0.358  1.00  0.00     0.168 C 
ATOM      4  C   UNL     1     -18.766   9.795   1.064  1.00  0.00     0.041 C 
BRANCH   3   5
ATOM      5  N   UNL     1     -18.989   9.312  -1.346  1.00  0.00    -0.342 N 
ATOM      6  C   UNL     1     -18.576   8.007  -1.508  1.00  0.00     0.251 C 
ATOM      7  O   UNL     1     -17.656   7.505  -0.871  1.00  0.00    -0.272 OA
ATOM      8  H   UNL     1     -19.739   9.627  -1.958  1.00  0.00     0.164 HD
BRANCH   6   9
ATOM      9  C   UNL     1     -19.448   7.227  -2.505  1.00  0.00     0.219 C 
BRANCH   9  10
ATOM     10  O   UNL     1     -20.186   8.086  -3.383  1.00  0.00    -0.382 OA
ATOM     11  H   UNL     1     -19.764   8.963  -3.256  1.00  0.00     0.211 HD
ENDBRANCH   9  10
BRANCH   9  12
ATOM     12  C   UNL     1     -18.651   6.168  -3.312  1.00  0.00     0.089 C 
BRANCH  12  13
ATOM     13  N   UNL     1     -19.612   5.354  -4.091  1.00  0.00    -0.325 NA
ATOM     14  H   UNL     1     -19.569   4.385  -3.770  1.00  0.00     0.119 HD
ATOM     15  H   UNL     1     -19.307   5.326  -5.067  1.00  0.00     0.119 HD
ENDBRANCH  12  13
BRANCH  12  16
ATOM     16  C   UNL     1     -17.543   6.717  -4.242  1.00  0.00     0.022 C 
BRANCH  16  17
ATOM     17  C   UNL     1     -16.737   5.736  -5.103  1.00  0.00     0.002 C 
BRANCH  17  18
ATOM     18  C   UNL     1     -15.266   6.100  -5.291  1.00  0.00     0.000 C 
BRANCH  18  19
ATOM     19  C   UNL     1     -14.854   7.408  -4.601  1.00  0.00    -0.000 C 
BRANCH  19  20
ATOM     20  C   UNL     1     -13.369   7.764  -4.717  1.00  0.00    -0.000 C 
BRANCH  20  21
ATOM     21  C   UNL     1     -13.128   9.119  -5.389  1.00  0.00    -0.003 C 
ATOM     22  C   UNL     1     -12.574   8.950  -6.795  1.00  0.00     0.004 C 
ENDBRANCH  20  21
ENDBRANCH  19  20
ENDBRANCH  18  19
ENDBRANCH  17  18
ENDBRANCH  16  17
ENDBRANCH  12  16
ENDBRANCH   9  12
ENDBRANCH   6   9
ENDBRANCH   3   5
ENDBRANCH   2   3
BRANCH   2  23
ATOM     23  N   UNL     1     -19.619  12.142  -1.471  1.00  0.00    -0.332 N 
ATOM     24  C   UNL     1     -20.918  11.507  -1.639  1.00  0.00     0.147 C 
BRANCH  23  25
ATOM     25  C   UNL     1     -19.440  13.412  -2.226  1.00  0.00     0.174 C 
BRANCH  25  26
ATOM     26  C   UNL     1     -20.749  13.913  -2.881  1.00  0.00     0.038 C 
BRANCH  26  27
ATOM     27  C   UNL     1     -20.902  15.440  -3.060  1.00  0.00    -0.015 C 
ATOM     28  C   UNL     1     -19.969  16.232  -2.145  1.00  0.00     0.007 C 
ATOM     29  C   UNL     1     -20.753  15.899  -4.508  1.00  0.00     0.007 C 
ENDBRANCH  26  27
ENDBRANCH  25  26
BRANCH  25  30
ATOM     30  C   UNL     1     -18.261  13.280  -3.217  1.00  0.00     0.243 C 
ATOM     31  O   UNL     1     -18.404  12.787  -4.336  1.00  0.00    -0.273 OA
ATOM     32  N   UNL     1     -17.051  13.740  -2.765  1.00  0.00    -0.342 N 
ATOM     33  H   UNL     1     -17.042  14.262  -1.885  1.00  0.00     0.164 HD
BRANCH  32  34
ATOM     34  C   UNL     1     -15.820  13.671  -3.556  1.00  0.00     0.175 C 
BRANCH  34  35
ATOM     35  C   UNL     1     -15.550  14.995  -4.287  1.00  0.00     0.070 C 
BRANCH  35  36
ATOM     36  C   UNL     1     -15.402  14.819  -5.781  1.00  0.00    -0.045 A 
ATOM     37  C   UNL     1     -15.189  15.938  -6.601  1.00  0.00     0.007 A 
ATOM     38  C   UNL     1     -15.497  13.551  -6.369  1.00  0.00     0.007 A 
ATOM     39  C   UNL     1     -15.065  15.787  -7.983  1.00  0.00     0.046 A 
ATOM     40  C   UNL     1     -15.375  13.400  -7.752  1.00  0.00     0.046 A 
ATOM     41  C   UNL     1     -15.158  14.521  -8.547  1.00  0.00     0.115 A 
BRANCH  41  42
ATOM     42  O   UNL     1     -15.034  14.417  -9.901  1.00  0.00    -0.508 OA
ATOM     43  H   UNL     1     -14.111  14.607 -10.138  1.00  0.00     0.293 HD
ENDBRANCH  41  42
ENDBRANCH  35  36
ENDBRANCH  34  35
BRANCH  34  44
ATOM     44  C   UNL     1     -14.662  13.287  -2.608  1.00  0.00     0.243 C 
ATOM     45  O   UNL     1     -14.767  12.508  -1.665  1.00  0.00    -0.273 OA
ATOM     46  N   UNL     1     -13.507  14.007  -2.833  1.00  0.00    -0.341 N 
ATOM     47  H   UNL     1     -13.506  14.726  -3.552  1.00  0.00     0.164 HD
BRANCH  46  48
ATOM     48  C   UNL     1     -12.299  13.867  -2.018  1.00  0.00     0.196 C 
BRANCH  48  49
ATOM     49  C   UNL     1     -11.029  14.110  -2.851  1.00  0.00     0.072 C 
BRANCH  49  50
ATOM     50  C   UNL     1     -11.259  13.911  -4.332  1.00  0.00    -0.045 A 
ATOM     51  C   UNL     1     -11.307  15.021  -5.188  1.00  0.00     0.007 A 
ATOM     52  C   UNL     1     -11.447  12.630  -4.867  1.00  0.00     0.007 A 
ATOM     53  C   UNL     1     -11.531  14.851  -6.554  1.00  0.00     0.046 A 
ATOM     54  C   UNL     1     -11.673  12.459  -6.234  1.00  0.00     0.046 A 
ATOM     55  C   UNL     1     -11.712  13.572  -7.067  1.00  0.00     0.115 A 
BRANCH  55  56
ATOM     56  O   UNL     1     -11.930  13.449  -8.407  1.00  0.00    -0.508 OA
ATOM     57  H   UNL     1     -11.972  14.338  -8.794  1.00  0.00     0.293 HD
ENDBRANCH  55  56
ENDBRANCH  49  50
ENDBRANCH  48  49
BRANCH  48  58
ATOM     58  C   UNL     1     -12.357  14.876  -0.862  1.00  0.00     0.326 C 
ATOM     59  O   UNL     1     -11.772  15.944  -0.783  1.00  0.00    -0.250 OA
BRANCH  58  60
ATOM     60  O   UNL     1     -13.174  14.492   0.151  1.00  0.00    -0.480 OA
ATOM     61  H   UNL     1     -13.777  13.846  -0.278  1.00  0.00     0.296 HD
ENDBRANCH  58  60
ENDBRANCH  48  58
ENDBRANCH  46  48
ENDBRANCH  34  44
ENDBRANCH  32  34
ENDBRANCH  25  30
ENDBRANCH  23  25
ENDBRANCH   2  23
TORSDOF 28
ENDMDL
MODEL 29
REMARK VINA RESULT:    -5.691      2.296      7.427
REMARK INTER + INTRA:         -20.256
REMARK INTER:                 -15.191
REMARK INTRA:                  -5.065
REMARK UNBOUND:                -6.081
REMARK SMILES CCCCCCC[C@H](N)[C@H](O)C(=O)N[C@H](C)C(=O)N(C)[C@H](CC(C)C)C(=O)N[C@@H](Cc1ccc(O)cc1)C(=O)N[C@@H](Cc1ccc(O)cc1)C(=O)O
REMARK SMILES IDX 18 1 17 2 15 3 16 4 14 5 12 6 13 7 10 9 11 10 8 12 9 13 7 16
REMARK SMILES IDX 6 17 5 18 4 19 3 20 2 21 1 22 19 23 20 24 21 25 22 26 23 27
REMARK SMILES IDX 24 28 25 29 26 30 27 31 28 32 29 34 30 35 31 36 32 37 37 38
REMARK SMILES IDX 33 39 36 40 34 41 35 42 38 44 39 45 40 46 41 48 42 49 43 50
REMARK SMILES IDX 44 51 49 52 45 53 48 54 46 55 47 56 50 58 51 59 52 60
REMARK H PARENT 14 8 11 11 9 14 9 15 28 33 35 43 40 47 47 57 52 61
ROOT
ATOM      1  O   UNL     1       0.028  -7.637  -6.096  1.00  0.00    -0.272 OA
ATOM      2  C   UNL     1       0.749  -7.206  -7.008  1.00  0.00     0.245 C 
ENDROOT
BRANCH   2   3
ATOM      3  C   UNL     1       2.176  -6.716  -6.656  1.00  0.00     0.168 C 
ATOM      4  C   UNL     1       2.254  -5.194  -6.708  1.00  0.00     0.041 C 
BRANCH   3   5
ATOM      5  N   UNL     1       2.714  -7.245  -5.413  1.00  0.00    -0.342 N 
ATOM      6  C   UNL     1       3.697  -8.212  -5.398  1.00  0.00     0.251 C 
ATOM      7  O   UNL     1       4.157  -8.725  -6.412  1.00  0.00    -0.272 OA
ATOM      8  H   UNL     1       2.385  -6.922  -4.506  1.00  0.00     0.164 HD
BRANCH   6   9
ATOM      9  C   UNL     1       4.211  -8.514  -3.981  1.00  0.00     0.219 C 
BRANCH   9  10
ATOM     10  O   UNL     1       4.679  -9.861  -3.839  1.00  0.00    -0.382 OA
ATOM     11  H   UNL     1       4.713 -10.193  -4.763  1.00  0.00     0.211 HD
ENDBRANCH   9  10
BRANCH   9  12
ATOM     12  C   UNL     1       5.283  -7.505  -3.494  1.00  0.00     0.089 C 
BRANCH  12  13
ATOM     13  N   UNL     1       5.961  -6.934  -4.681  1.00  0.00    -0.325 NA
ATOM     14  H   UNL     1       6.787  -6.415  -4.379  1.00  0.00     0.119 HD
ATOM     15  H   UNL     1       5.348  -6.235  -5.108  1.00  0.00     0.119 HD
ENDBRANCH  12  13
BRANCH  12  16
ATOM     16  C   UNL     1       4.776  -6.368  -2.574  1.00  0.00     0.022 C 
BRANCH  16  17
ATOM     17  C   UNL     1       5.602  -5.080  -2.454  1.00  0.00     0.002 C 
BRANCH  17  18
ATOM     18  C   UNL     1       4.845  -3.796  -2.785  1.00  0.00     0.000 C 
BRANCH  18  19
ATOM     19  C   UNL     1       4.428  -3.679  -4.257  1.00  0.00    -0.000 C 
BRANCH  19  20
ATOM     20  C   UNL     1       4.080  -2.262  -4.723  1.00  0.00    -0.000 C 
BRANCH  20  21
ATOM     21  C   UNL     1       2.577  -1.973  -4.690  1.00  0.00    -0.003 C 
ATOM     22  C   UNL     1       2.219  -1.028  -3.554  1.00  0.00     0.004 C 
ENDBRANCH  20  21
ENDBRANCH  19  20
ENDBRANCH  18  19
ENDBRANCH  17  18
ENDBRANCH  16  17
ENDBRANCH  12  16
ENDBRANCH   9  12
ENDBRANCH   6   9
ENDBRANCH   3   5
ENDBRANCH   2   3
BRANCH   2  23
ATOM     23  N   UNL     1       0.319  -7.281  -8.329  1.00  0.00    -0.332 N 
ATOM     24  C   UNL     1       1.129  -6.918  -9.482  1.00  0.00     0.147 C 
BRANCH  23  25
ATOM     25  C   UNL     1      -1.004  -7.880  -8.655  1.00  0.00     0.174 C 
BRANCH  25  26
ATOM     26  C   UNL     1      -1.098  -8.372 -10.118  1.00  0.00     0.038 C 
BRANCH  26  27
ATOM     27  C   UNL     1      -2.131  -9.481 -10.419  1.00  0.00    -0.015 C 
ATOM     28  C   UNL     1      -2.665 -10.143  -9.149  1.00  0.00     0.007 C 
ATOM     29  C   UNL     1      -3.283  -9.012 -11.305  1.00  0.00     0.007 C 
ENDBRANCH  26  27
ENDBRANCH  25  26
BRANCH  25  30
ATOM     30  C   UNL     1      -2.140  -6.913  -8.251  1.00  0.00     0.243 C 
ATOM     31  O   UNL     1      -2.488  -5.980  -8.974  1.00  0.00    -0.273 OA
ATOM     32  N   UNL     1      -2.727  -7.161  -7.037  1.00  0.00    -0.342 N 
ATOM     33  H   UNL     1      -2.482  -8.033  -6.562  1.00  0.00     0.164 HD
BRANCH  32  34
ATOM     34  C   UNL     1      -3.800  -6.332  -6.480  1.00  0.00     0.175 C 
BRANCH  34  35
ATOM     35  C   UNL     1      -5.175  -6.983  -6.692  1.00  0.00     0.070 C 
BRANCH  35  36
ATOM     36  C   UNL     1      -5.842  -6.536  -7.974  1.00  0.00    -0.045 A 
ATOM     37  C   UNL     1      -5.717  -7.311  -9.137  1.00  0.00     0.007 A 
ATOM     38  C   UNL     1      -6.570  -5.340  -8.027  1.00  0.00     0.007 A 
ATOM     39  C   UNL     1      -6.318  -6.900 -10.327  1.00  0.00     0.046 A 
ATOM     40  C   UNL     1      -7.170  -4.927  -9.219  1.00  0.00     0.046 A 
ATOM     41  C   UNL     1      -7.039  -5.713 -10.359  1.00  0.00     0.115 A 
BRANCH  41  42
ATOM     42  O   UNL     1      -7.607  -5.346 -11.543  1.00  0.00    -0.508 OA
ATOM     43  H   UNL     1      -6.928  -5.399 -12.236  1.00  0.00     0.293 HD
ENDBRANCH  41  42
ENDBRANCH  35  36
ENDBRANCH  34  35
BRANCH  34  44
ATOM     44  C   UNL     1      -3.496  -6.098  -4.983  1.00  0.00     0.243 C 
ATOM     45  O   UNL     1      -4.321  -5.708  -4.161  1.00  0.00    -0.273 OA
ATOM     46  N   UNL     1      -2.163  -6.243  -4.664  1.00  0.00    -0.341 N 
ATOM     47  H   UNL     1      -1.498  -6.453  -5.405  1.00  0.00     0.164 HD
BRANCH  46  48
ATOM     48  C   UNL     1      -1.624  -6.005  -3.323  1.00  0.00     0.196 C 
BRANCH  48  49
ATOM     49  C   UNL     1      -1.664  -7.284  -2.469  1.00  0.00     0.072 C 
BRANCH  49  50
ATOM     50  C   UNL     1      -2.103  -7.020  -1.046  1.00  0.00    -0.045 A 
ATOM     51  C   UNL     1      -2.096  -5.710  -0.545  1.00  0.00     0.007 A 
ATOM     52  C   UNL     1      -2.498  -8.069  -0.208  1.00  0.00     0.007 A 
ATOM     53  C   UNL     1      -2.486  -5.456   0.770  1.00  0.00     0.046 A 
ATOM     54  C   UNL     1      -2.887  -7.815   1.110  1.00  0.00     0.046 A 
ATOM     55  C   UNL     1      -2.879  -6.509   1.587  1.00  0.00     0.115 A 
BRANCH  55  56
ATOM     56  O   UNL     1      -3.251  -6.219   2.866  1.00  0.00    -0.508 OA
ATOM     57  H   UNL     1      -3.332  -5.255   2.950  1.00  0.00     0.293 HD
ENDBRANCH  55  56
ENDBRANCH  49  50
ENDBRANCH  48  49
BRANCH  48  58
ATOM     58  C   UNL     1      -0.176  -5.513  -3.446  1.00  0.00     0.326 C 
ATOM     59  O   UNL     1       0.203  -4.367  -3.624  1.00  0.00    -0.250 OA
BRANCH  58  60
ATOM     60  O   UNL     1       0.744  -6.503  -3.324  1.00  0.00    -0.480 OA
ATOM     61  H   UNL     1       0.574  -7.068  -4.108  1.00  0.00     0.296 HD
ENDBRANCH  58  60
ENDBRANCH  48  58
ENDBRANCH  46  48
ENDBRANCH  34  44
ENDBRANCH  32  34
ENDBRANCH  25  30
ENDBRANCH  23  25
ENDBRANCH   2  23
TORSDOF 28
ENDMDL
MODEL 30
REMARK VINA RESULT:    -5.688      2.642      8.224
REMARK INTER + INTRA:         -20.248
REMARK INTER:                 -15.126
REMARK INTRA:                  -5.122
REMARK UNBOUND:                -6.081
REMARK SMILES CCCCCCC[C@H](N)[C@H](O)C(=O)N[C@H](C)C(=O)N(C)[C@H](CC(C)C)C(=O)N[C@@H](Cc1ccc(O)cc1)C(=O)N[C@@H](Cc1ccc(O)cc1)C(=O)O
REMARK SMILES IDX 18 1 17 2 15 3 16 4 14 5 12 6 13 7 10 9 11 10 8 12 9 13 7 16
REMARK SMILES IDX 6 17 5 18 4 19 3 20 2 21 1 22 19 23 20 24 21 25 22 26 23 27
REMARK SMILES IDX 24 28 25 29 26 30 27 31 28 32 29 34 30 35 31 36 32 37 37 38
REMARK SMILES IDX 33 39 36 40 34 41 35 42 38 44 39 45 40 46 41 48 42 49 43 50
REMARK SMILES IDX 44 51 49 52 45 53 48 54 46 55 47 56 50 58 51 59 52 60
REMARK H PARENT 14 8 11 11 9 14 9 15 28 33 35 43 40 47 47 57 52 61
ROOT
ATOM      1  O   UNL     1      -2.252  -9.092  -4.842  1.00  0.00    -0.272 OA
ATOM      2  C   UNL     1      -2.061  -7.870  -4.926  1.00  0.00     0.245 C 
ENDROOT
BRANCH   2   3
ATOM      3  C   UNL     1      -0.983  -7.224  -4.020  1.00  0.00     0.168 C 
ATOM      4  C   UNL     1      -1.409  -7.268  -2.556  1.00  0.00     0.041 C 
BRANCH   3   5
ATOM      5  N   UNL     1       0.364  -7.741  -4.208  1.00  0.00    -0.342 N 
ATOM      6  C   UNL     1       1.377  -6.962  -4.725  1.00  0.00     0.251 C 
ATOM      7  O   UNL     1       1.217  -5.805  -5.099  1.00  0.00    -0.272 OA
ATOM      8  H   UNL     1       0.609  -8.698  -3.966  1.00  0.00     0.164 HD
BRANCH   6   9
ATOM      9  C   UNL     1       2.742  -7.669  -4.700  1.00  0.00     0.219 C 
BRANCH   9  10
ATOM     10  O   UNL     1       3.436  -7.574  -5.950  1.00  0.00    -0.382 OA
ATOM     11  H   UNL     1       3.604  -6.611  -6.049  1.00  0.00     0.211 HD
ENDBRANCH   9  10
BRANCH   9  12
ATOM     12  C   UNL     1       3.648  -7.202  -3.531  1.00  0.00     0.089 C 
BRANCH  12  13
ATOM     13  N   UNL     1       3.858  -8.348  -2.616  1.00  0.00    -0.325 NA
ATOM     14  H   UNL     1       3.119  -8.355  -1.911  1.00  0.00     0.119 HD
ATOM     15  H   UNL     1       4.724  -8.201  -2.094  1.00  0.00     0.119 HD
ENDBRANCH  12  13
BRANCH  12  16
ATOM     16  C   UNL     1       5.010  -6.586  -3.932  1.00  0.00     0.022 C 
BRANCH  16  17
ATOM     17  C   UNL     1       5.232  -5.079  -3.745  1.00  0.00     0.002 C 
BRANCH  17  18
ATOM     18  C   UNL     1       3.972  -4.277  -3.427  1.00  0.00     0.000 C 
BRANCH  18  19
ATOM     19  C   UNL     1       4.215  -2.770  -3.270  1.00  0.00    -0.000 C 
BRANCH  19  20
ATOM     20  C   UNL     1       2.953  -1.925  -3.076  1.00  0.00    -0.000 C 
BRANCH  20  21
ATOM     21  C   UNL     1       1.665  -2.753  -3.113  1.00  0.00    -0.003 C 
ATOM     22  C   UNL     1       0.535  -1.990  -3.787  1.00  0.00     0.004 C 
ENDBRANCH  20  21
ENDBRANCH  19  20
ENDBRANCH  18  19
ENDBRANCH  17  18
ENDBRANCH  16  17
ENDBRANCH  12  16
ENDBRANCH   9  12
ENDBRANCH   6   9
ENDBRANCH   3   5
ENDBRANCH   2   3
BRANCH   2  23
ATOM     23  N   UNL     1      -2.718  -7.129  -5.903  1.00  0.00    -0.332 N 
ATOM     24  C   UNL     1      -3.602  -6.005  -5.631  1.00  0.00     0.147 C 
BRANCH  23  25
ATOM     25  C   UNL     1      -2.442  -7.375  -7.345  1.00  0.00     0.174 C 
BRANCH  25  26
ATOM     26  C   UNL     1      -3.492  -8.296  -8.010  1.00  0.00     0.038 C 
BRANCH  26  27
ATOM     27  C   UNL     1      -4.607  -7.609  -8.830  1.00  0.00    -0.015 C 
ATOM     28  C   UNL     1      -4.115  -6.351  -9.545  1.00  0.00     0.007 C 
ATOM     29  C   UNL     1      -5.304  -8.547  -9.813  1.00  0.00     0.007 C 
ENDBRANCH  26  27
ENDBRANCH  25  26
BRANCH  25  30
ATOM     30  C   UNL     1      -0.985  -7.857  -7.534  1.00  0.00     0.243 C 
ATOM     31  O   UNL     1      -0.559  -8.870  -6.982  1.00  0.00    -0.273 OA
ATOM     32  N   UNL     1      -0.204  -7.078  -8.348  1.00  0.00    -0.342 N 
ATOM     33  H   UNL     1      -0.667  -6.336  -8.880  1.00  0.00     0.164 HD
BRANCH  32  34
ATOM     34  C   UNL     1       1.207  -7.365  -8.620  1.00  0.00     0.175 C 
BRANCH  34  35
ATOM     35  C   UNL     1       1.385  -8.050  -9.983  1.00  0.00     0.070 C 
BRANCH  35  36
ATOM     36  C   UNL     1       0.113  -8.696 -10.484  1.00  0.00    -0.045 A 
ATOM     37  C   UNL     1      -0.121 -10.059 -10.249  1.00  0.00     0.007 A 
ATOM     38  C   UNL     1      -0.833  -7.956 -11.205  1.00  0.00     0.007 A 
ATOM     39  C   UNL     1      -1.285 -10.667 -10.719  1.00  0.00     0.046 A 
ATOM     40  C   UNL     1      -1.999  -8.565 -11.677  1.00  0.00     0.046 A 
ATOM     41  C   UNL     1      -2.215  -9.916 -11.428  1.00  0.00     0.115 A 
BRANCH  41  42
ATOM     42  O   UNL     1      -3.338 -10.549 -11.873  1.00  0.00    -0.508 OA
ATOM     43  H   UNL     1      -4.041 -10.418 -11.216  1.00  0.00     0.293 HD
ENDBRANCH  41  42
ENDBRANCH  35  36
ENDBRANCH  34  35
BRANCH  34  44
ATOM     44  C   UNL     1       1.991  -6.036  -8.534  1.00  0.00     0.243 C 
ATOM     45  O   UNL     1       1.476  -4.937  -8.348  1.00  0.00    -0.273 OA
ATOM     46  N   UNL     1       3.334  -6.172  -8.818  1.00  0.00    -0.341 N 
ATOM     47  H   UNL     1       3.693  -7.087  -9.081  1.00  0.00     0.164 HD
BRANCH  46  48
ATOM     48  C   UNL     1       4.266  -5.044  -8.865  1.00  0.00     0.196 C 
BRANCH  48  49
ATOM     49  C   UNL     1       4.853  -4.744  -7.476  1.00  0.00     0.072 C 
BRANCH  49  50
ATOM     50  C   UNL     1       4.725  -3.287  -7.091  1.00  0.00    -0.045 A 
ATOM     51  C   UNL     1       5.877  -2.510  -6.903  1.00  0.00     0.007 A 
ATOM     52  C   UNL     1       3.468  -2.701  -6.898  1.00  0.00     0.007 A 
ATOM     53  C   UNL     1       5.771  -1.168  -6.536  1.00  0.00     0.046 A 
ATOM     54  C   UNL     1       3.362  -1.358  -6.529  1.00  0.00     0.046 A 
ATOM     55  C   UNL     1       4.516  -0.602  -6.352  1.00  0.00     0.115 A 
BRANCH  55  56
ATOM     56  O   UNL     1       4.456   0.711  -5.991  1.00  0.00    -0.508 OA
ATOM     57  H   UNL     1       3.543   1.019  -6.109  1.00  0.00     0.293 HD
ENDBRANCH  55  56
ENDBRANCH  49  50
ENDBRANCH  48  49
BRANCH  48  58
ATOM     58  C   UNL     1       5.401  -5.374  -9.844  1.00  0.00     0.326 C 
ATOM     59  O   UNL     1       6.104  -6.372  -9.850  1.00  0.00    -0.250 OA
BRANCH  58  60
ATOM     60  O   UNL     1       5.591  -4.424 -10.793  1.00  0.00    -0.480 OA
ATOM     61  H   UNL     1       5.101  -3.650 -10.440  1.00  0.00     0.296 HD
ENDBRANCH  58  60
ENDBRANCH  48  58
ENDBRANCH  46  48
ENDBRANCH  34  44
ENDBRANCH  32  34
ENDBRANCH  25  30
ENDBRANCH  23  25
ENDBRANCH   2  23
TORSDOF 28
ENDMDL
MODEL 31
REMARK VINA RESULT:    -5.685      3.785     10.175
REMARK INTER + INTRA:         -20.240
REMARK INTER:                 -14.937
REMARK INTRA:                  -5.303
REMARK UNBOUND:                -6.081
REMARK SMILES CCCCCCC[C@H](N)[C@H](O)C(=O)N[C@H](C)C(=O)N(C)[C@H](CC(C)C)C(=O)N[C@@H](Cc1ccc(O)cc1)C(=O)N[C@@H](Cc1ccc(O)cc1)C(=O)O
REMARK SMILES IDX 18 1 17 2 15 3 16 4 14 5 12 6 13 7 10 9 11 10 8 12 9 13 7 16
REMARK SMILES IDX 6 17 5 18 4 19 3 20 2 21 1 22 19 23 20 24 21 25 22 26 23 27
REMARK SMILES IDX 24 28 25 29 26 30 27 31 28 32 29 34 30 35 31 36 32 37 37 38
REMARK SMILES IDX 33 39 36 40 34 41 35 42 38 44 39 45 40 46 41 48 42 49 43 50
REMARK SMILES IDX 44 51 49 52 45 53 48 54 46 55 47 56 50 58 51 59 52 60
REMARK H PARENT 14 8 11 11 9 14 9 15 28 33 35 43 40 47 47 57 52 61
ROOT
ATOM      1  O   UNL     1      -7.544 -11.014  -0.679  1.00  0.00    -0.272 OA
ATOM      2  C   UNL     1      -6.546 -10.694  -1.342  1.00  0.00     0.245 C 
ENDROOT
BRANCH   2   3
ATOM      3  C   UNL     1      -6.217 -11.500  -2.623  1.00  0.00     0.168 C 
ATOM      4  C   UNL     1      -7.259 -12.588  -2.860  1.00  0.00     0.041 C 
BRANCH   3   5
ATOM      5  N   UNL     1      -5.994 -10.694  -3.812  1.00  0.00    -0.342 N 
ATOM      6  C   UNL     1      -5.085 -11.062  -4.782  1.00  0.00     0.251 C 
ATOM      7  O   UNL     1      -4.375 -12.058  -4.699  1.00  0.00    -0.272 OA
ATOM      8  H   UNL     1      -6.500  -9.826  -3.974  1.00  0.00     0.164 HD
BRANCH   6   9
ATOM      9  C   UNL     1      -5.121 -10.139  -6.011  1.00  0.00     0.219 C 
BRANCH   9  10
ATOM     10  O   UNL     1      -6.280  -9.298  -6.037  1.00  0.00    -0.382 OA
ATOM     11  H   UNL     1      -7.011  -9.904  -5.785  1.00  0.00     0.211 HD
ENDBRANCH   9  10
BRANCH   9  12
ATOM     12  C   UNL     1      -3.827  -9.300  -6.179  1.00  0.00     0.089 C 
BRANCH  12  13
ATOM     13  N   UNL     1      -3.045  -9.389  -4.925  1.00  0.00    -0.325 NA
ATOM     14  H   UNL     1      -3.572  -9.933  -4.239  1.00  0.00     0.119 HD
ATOM     15  H   UNL     1      -2.962  -8.454  -4.519  1.00  0.00     0.119 HD
ENDBRANCH  12  13
BRANCH  12  16
ATOM     16  C   UNL     1      -2.935  -9.665  -7.390  1.00  0.00     0.022 C 
BRANCH  16  17
ATOM     17  C   UNL     1      -1.810  -8.707  -7.804  1.00  0.00     0.002 C 
BRANCH  17  18
ATOM     18  C   UNL     1      -2.169  -7.224  -7.739  1.00  0.00     0.000 C 
BRANCH  18  19
ATOM     19  C   UNL     1      -2.385  -6.572  -9.111  1.00  0.00    -0.000 C 
BRANCH  19  20
ATOM     20  C   UNL     1      -2.450  -7.547 -10.291  1.00  0.00    -0.000 C 
BRANCH  20  21
ATOM     21  C   UNL     1      -3.882  -7.850 -10.740  1.00  0.00    -0.003 C 
ATOM     22  C   UNL     1      -3.984  -9.227 -11.376  1.00  0.00     0.004 C 
ENDBRANCH  20  21
ENDBRANCH  19  20
ENDBRANCH  18  19
ENDBRANCH  17  18
ENDBRANCH  16  17
ENDBRANCH  12  16
ENDBRANCH   9  12
ENDBRANCH   6   9
ENDBRANCH   3   5
ENDBRANCH   2   3
BRANCH   2  23
ATOM     23  N   UNL     1      -5.819  -9.558  -1.000  1.00  0.00    -0.332 N 
ATOM     24  C   UNL     1      -4.444  -9.571  -0.523  1.00  0.00     0.147 C 
BRANCH  23  25
ATOM     25  C   UNL     1      -6.389  -8.203  -1.233  1.00  0.00     0.174 C 
BRANCH  25  26
ATOM     26  C   UNL     1      -7.913  -8.229  -1.497  1.00  0.00     0.038 C 
BRANCH  26  27
ATOM     27  C   UNL     1      -8.375  -7.994  -2.952  1.00  0.00    -0.015 C 
ATOM     28  C   UNL     1      -9.243  -9.135  -3.482  1.00  0.00     0.007 C 
ATOM     29  C   UNL     1      -9.070  -6.650  -3.160  1.00  0.00     0.007 C 
ENDBRANCH  26  27
ENDBRANCH  25  26
BRANCH  25  30
ATOM     30  C   UNL     1      -5.581  -7.466  -2.325  1.00  0.00     0.243 C 
ATOM     31  O   UNL     1      -5.381  -7.963  -3.432  1.00  0.00    -0.273 OA
ATOM     32  N   UNL     1      -5.101  -6.230  -1.975  1.00  0.00    -0.342 N 
ATOM     33  H   UNL     1      -5.428  -5.827  -1.093  1.00  0.00     0.164 HD
BRANCH  32  34
ATOM     34  C   UNL     1      -4.293  -5.401  -2.873  1.00  0.00     0.175 C 
BRANCH  34  35
ATOM     35  C   UNL     1      -5.138  -4.295  -3.525  1.00  0.00     0.070 C 
BRANCH  35  36
ATOM     36  C   UNL     1      -5.661  -4.687  -4.888  1.00  0.00    -0.045 A 
ATOM     37  C   UNL     1      -6.921  -4.237  -5.312  1.00  0.00     0.007 A 
ATOM     38  C   UNL     1      -4.914  -5.517  -5.734  1.00  0.00     0.007 A 
ATOM     39  C   UNL     1      -7.419  -4.605  -6.562  1.00  0.00     0.046 A 
ATOM     40  C   UNL     1      -5.413  -5.886  -6.986  1.00  0.00     0.046 A 
ATOM     41  C   UNL     1      -6.661  -5.425  -7.389  1.00  0.00     0.115 A 
BRANCH  41  42
ATOM     42  O   UNL     1      -7.185  -5.763  -8.602  1.00  0.00    -0.508 OA
ATOM     43  H   UNL     1      -6.739  -5.235  -9.284  1.00  0.00     0.293 HD
ENDBRANCH  41  42
ENDBRANCH  35  36
ENDBRANCH  34  35
BRANCH  34  44
ATOM     44  C   UNL     1      -3.114  -4.822  -2.058  1.00  0.00     0.243 C 
ATOM     45  O   UNL     1      -2.415  -5.476  -1.289  1.00  0.00    -0.273 OA
ATOM     46  N   UNL     1      -2.990  -3.453  -2.169  1.00  0.00    -0.341 N 
ATOM     47  H   UNL     1      -3.667  -2.939  -2.728  1.00  0.00     0.164 HD
BRANCH  46  48
ATOM     48  C   UNL     1      -1.990  -2.672  -1.437  1.00  0.00     0.196 C 
BRANCH  48  49
ATOM     49  C   UNL     1      -1.453  -1.510  -2.289  1.00  0.00     0.072 C 
BRANCH  49  50
ATOM     50  C   UNL     1      -0.051  -1.760  -2.797  1.00  0.00    -0.045 A 
ATOM     51  C   UNL     1       0.266  -2.988  -3.396  1.00  0.00     0.007 A 
ATOM     52  C   UNL     1       0.949  -0.789  -2.661  1.00  0.00     0.007 A 
ATOM     53  C   UNL     1       1.560  -3.235  -3.857  1.00  0.00     0.046 A 
ATOM     54  C   UNL     1       2.244  -1.037  -3.120  1.00  0.00     0.046 A 
ATOM     55  C   UNL     1       2.538  -2.259  -3.716  1.00  0.00     0.115 A 
BRANCH  55  56
ATOM     56  O   UNL     1       3.790  -2.540  -4.177  1.00  0.00    -0.508 OA
ATOM     57  H   UNL     1       4.051  -1.844  -4.800  1.00  0.00     0.293 HD
ENDBRANCH  55  56
ENDBRANCH  49  50
ENDBRANCH  48  49
BRANCH  48  58
ATOM     58  C   UNL     1      -2.629  -2.119  -0.156  1.00  0.00     0.326 C 
ATOM     59  O   UNL     1      -2.995  -0.974   0.052  1.00  0.00    -0.250 OA
BRANCH  58  60
ATOM     60  O   UNL     1      -2.794  -3.054   0.814  1.00  0.00    -0.480 OA
ATOM     61  H   UNL     1      -2.437  -2.613   1.615  1.00  0.00     0.296 HD
ENDBRANCH  58  60
ENDBRANCH  48  58
ENDBRANCH  46  48
ENDBRANCH  34  44
ENDBRANCH  32  34
ENDBRANCH  25  30
ENDBRANCH  23  25
ENDBRANCH   2  23
TORSDOF 28
ENDMDL
MODEL 32
REMARK VINA RESULT:    -5.665      2.508      6.230
REMARK INTER + INTRA:         -20.190
REMARK INTER:                 -14.275
REMARK INTRA:                  -5.915
REMARK UNBOUND:                -6.081
REMARK SMILES CCCCCCC[C@H](N)[C@H](O)C(=O)N[C@H](C)C(=O)N(C)[C@H](CC(C)C)C(=O)N[C@@H](Cc1ccc(O)cc1)C(=O)N[C@@H](Cc1ccc(O)cc1)C(=O)O
REMARK SMILES IDX 18 1 17 2 15 3 16 4 14 5 12 6 13 7 10 9 11 10 8 12 9 13 7 16
REMARK SMILES IDX 6 17 5 18 4 19 3 20 2 21 1 22 19 23 20 24 21 25 22 26 23 27
REMARK SMILES IDX 24 28 25 29 26 30 27 31 28 32 29 34 30 35 31 36 32 37 37 38
REMARK SMILES IDX 33 39 36 40 34 41 35 42 38 44 39 45 40 46 41 48 42 49 43 50
REMARK SMILES IDX 44 51 49 52 45 53 48 54 46 55 47 56 50 58 51 59 52 60
REMARK H PARENT 14 8 11 11 9 14 9 15 28 33 35 43 40 47 47 57 52 61
ROOT
ATOM      1  O   UNL     1      -2.561  -2.057  -0.307  1.00  0.00    -0.272 OA
ATOM      2  C   UNL     1      -1.752  -2.616  -1.062  1.00  0.00     0.245 C 
ENDROOT
BRANCH   2   3
ATOM      3  C   UNL     1      -1.039  -1.766  -2.143  1.00  0.00     0.168 C 
ATOM      4  C   UNL     1      -1.274  -0.279  -1.906  1.00  0.00     0.041 C 
BRANCH   3   5
ATOM      5  N   UNL     1       0.371  -2.070  -2.327  1.00  0.00    -0.342 N 
ATOM      6  C   UNL     1       0.968  -2.034  -3.570  1.00  0.00     0.251 C 
ATOM      7  O   UNL     1       0.359  -1.789  -4.605  1.00  0.00    -0.272 OA
ATOM      8  H   UNL     1       0.972  -2.322  -1.545  1.00  0.00     0.164 HD
BRANCH   6   9
ATOM      9  C   UNL     1       2.489  -2.249  -3.505  1.00  0.00     0.219 C 
BRANCH   9  10
ATOM     10  O   UNL     1       3.147  -1.293  -2.665  1.00  0.00    -0.382 OA
ATOM     11  H   UNL     1       2.495  -1.128  -1.948  1.00  0.00     0.211 HD
ENDBRANCH   9  10
BRANCH   9  12
ATOM     12  C   UNL     1       2.884  -3.695  -3.108  1.00  0.00     0.089 C 
BRANCH  12  13
ATOM     13  N   UNL     1       1.667  -4.538  -3.143  1.00  0.00    -0.325 NA
ATOM     14  H   UNL     1       1.926  -5.509  -2.962  1.00  0.00     0.119 HD
ATOM     15  H   UNL     1       1.290  -4.536  -4.094  1.00  0.00     0.119 HD
ENDBRANCH  12  13
BRANCH  12  16
ATOM     16  C   UNL     1       4.007  -4.347  -3.949  1.00  0.00     0.022 C 
BRANCH  16  17
ATOM     17  C   UNL     1       5.147  -5.082  -3.231  1.00  0.00     0.002 C 
BRANCH  17  18
ATOM     18  C   UNL     1       4.709  -6.257  -2.360  1.00  0.00     0.000 C 
BRANCH  18  19
ATOM     19  C   UNL     1       3.920  -7.334  -3.115  1.00  0.00    -0.000 C 
BRANCH  19  20
ATOM     20  C   UNL     1       4.686  -8.634  -3.380  1.00  0.00    -0.000 C 
BRANCH  20  21
ATOM     21  C   UNL     1       4.755  -8.997  -4.866  1.00  0.00    -0.003 C 
ATOM     22  C   UNL     1       5.455  -7.912  -5.670  1.00  0.00     0.004 C 
ENDBRANCH  20  21
ENDBRANCH  19  20
ENDBRANCH  18  19
ENDBRANCH  17  18
ENDBRANCH  16  17
ENDBRANCH  12  16
ENDBRANCH   9  12
ENDBRANCH   6   9
ENDBRANCH   3   5
ENDBRANCH   2   3
BRANCH   2  23
ATOM     23  N   UNL     1      -1.411  -3.948  -0.852  1.00  0.00    -0.332 N 
ATOM     24  C   UNL     1      -0.383  -4.400   0.073  1.00  0.00     0.147 C 
BRANCH  23  25
ATOM     25  C   UNL     1      -2.197  -5.035  -1.497  1.00  0.00     0.174 C 
BRANCH  25  26
ATOM     26  C   UNL     1      -2.302  -6.304  -0.618  1.00  0.00     0.038 C 
BRANCH  26  27
ATOM     27  C   UNL     1      -3.506  -6.390   0.346  1.00  0.00    -0.015 C 
ATOM     28  C   UNL     1      -4.789  -6.832  -0.358  1.00  0.00     0.007 C 
ATOM     29  C   UNL     1      -3.241  -7.259   1.573  1.00  0.00     0.007 C 
ENDBRANCH  26  27
ENDBRANCH  25  26
BRANCH  25  30
ATOM     30  C   UNL     1      -1.660  -5.308  -2.920  1.00  0.00     0.243 C 
ATOM     31  O   UNL     1      -1.462  -4.399  -3.725  1.00  0.00    -0.273 OA
ATOM     32  N   UNL     1      -1.427  -6.624  -3.225  1.00  0.00    -0.342 N 
ATOM     33  H   UNL     1      -1.480  -7.304  -2.461  1.00  0.00     0.164 HD
BRANCH  32  34
ATOM     34  C   UNL     1      -0.944  -7.071  -4.534  1.00  0.00     0.175 C 
BRANCH  34  35
ATOM     35  C   UNL     1       0.435  -7.738  -4.423  1.00  0.00     0.070 C 
BRANCH  35  36
ATOM     36  C   UNL     1       1.231  -7.654  -5.705  1.00  0.00    -0.045 A 
ATOM     37  C   UNL     1       1.419  -8.801  -6.492  1.00  0.00     0.007 A 
ATOM     38  C   UNL     1       1.810  -6.445  -6.114  1.00  0.00     0.007 A 
ATOM     39  C   UNL     1       2.163  -8.735  -7.670  1.00  0.00     0.046 A 
ATOM     40  C   UNL     1       2.556  -6.379  -7.293  1.00  0.00     0.046 A 
ATOM     41  C   UNL     1       2.725  -7.526  -8.062  1.00  0.00     0.115 A 
BRANCH  41  42
ATOM     42  O   UNL     1       3.448  -7.506  -9.218  1.00  0.00    -0.508 OA
ATOM     43  H   UNL     1       2.829  -7.428  -9.963  1.00  0.00     0.293 HD
ENDBRANCH  41  42
ENDBRANCH  35  36
ENDBRANCH  34  35
BRANCH  34  44
ATOM     44  C   UNL     1      -2.001  -8.026  -5.134  1.00  0.00     0.243 C 
ATOM     45  O   UNL     1      -2.278  -9.131  -4.674  1.00  0.00    -0.273 OA
ATOM     46  N   UNL     1      -2.527  -7.582  -6.328  1.00  0.00    -0.341 N 
ATOM     47  H   UNL     1      -2.179  -6.714  -6.729  1.00  0.00     0.164 HD
BRANCH  46  48
ATOM     48  C   UNL     1      -3.495  -8.348  -7.117  1.00  0.00     0.196 C 
BRANCH  48  49
ATOM     49  C   UNL     1      -4.773  -7.534  -7.379  1.00  0.00     0.072 C 
BRANCH  49  50
ATOM     50  C   UNL     1      -5.255  -6.796  -6.150  1.00  0.00    -0.045 A 
ATOM     51  C   UNL     1      -5.241  -5.394  -6.127  1.00  0.00     0.007 A 
ATOM     52  C   UNL     1      -5.699  -7.493  -5.020  1.00  0.00     0.007 A 
ATOM     53  C   UNL     1      -5.671  -4.703  -4.994  1.00  0.00     0.046 A 
ATOM     54  C   UNL     1      -6.129  -6.801  -3.885  1.00  0.00     0.046 A 
ATOM     55  C   UNL     1      -6.112  -5.410  -3.882  1.00  0.00     0.115 A 
BRANCH  55  56
ATOM     56  O   UNL     1      -6.522  -4.697  -2.795  1.00  0.00    -0.508 OA
ATOM     57  H   UNL     1      -6.657  -3.775  -3.067  1.00  0.00     0.293 HD
ENDBRANCH  55  56
ENDBRANCH  49  50
ENDBRANCH  48  49
BRANCH  48  58
ATOM     58  C   UNL     1      -2.850  -8.739  -8.454  1.00  0.00     0.326 C 
ATOM     59  O   UNL     1      -1.824  -9.378  -8.621  1.00  0.00    -0.250 OA
BRANCH  58  60
ATOM     60  O   UNL     1      -3.548  -8.313  -9.537  1.00  0.00    -0.480 OA
ATOM     61  H   UNL     1      -2.918  -7.712  -9.990  1.00  0.00     0.296 HD
ENDBRANCH  58  60
ENDBRANCH  48  58
ENDBRANCH  46  48
ENDBRANCH  34  44
ENDBRANCH  32  34
ENDBRANCH  25  30
ENDBRANCH  23  25
ENDBRANCH   2  23
TORSDOF 28
ENDMDL
MODEL 33
REMARK VINA RESULT:    -5.654      2.627      8.142
REMARK INTER + INTRA:         -20.164
REMARK INTER:                 -16.066
REMARK INTRA:                  -4.098
REMARK UNBOUND:                -6.081
REMARK SMILES CCCCCCC[C@H](N)[C@H](O)C(=O)N[C@H](C)C(=O)N(C)[C@H](CC(C)C)C(=O)N[C@@H](Cc1ccc(O)cc1)C(=O)N[C@@H](Cc1ccc(O)cc1)C(=O)O
REMARK SMILES IDX 18 1 17 2 15 3 16 4 14 5 12 6 13 7 10 9 11 10 8 12 9 13 7 16
REMARK SMILES IDX 6 17 5 18 4 19 3 20 2 21 1 22 19 23 20 24 21 25 22 26 23 27
REMARK SMILES IDX 24 28 25 29 26 30 27 31 28 32 29 34 30 35 31 36 32 37 37 38
REMARK SMILES IDX 33 39 36 40 34 41 35 42 38 44 39 45 40 46 41 48 42 49 43 50
REMARK SMILES IDX 44 51 49 52 45 53 48 54 46 55 47 56 50 58 51 59 52 60
REMARK H PARENT 14 8 11 11 9 14 9 15 28 33 35 43 40 47 47 57 52 61
ROOT
ATOM      1  O   UNL     1      -4.542  -6.457  -1.724  1.00  0.00    -0.272 OA
ATOM      2  C   UNL     1      -3.822  -6.498  -2.732  1.00  0.00     0.245 C 
ENDROOT
BRANCH   2   3
ATOM      3  C   UNL     1      -3.616  -5.198  -3.548  1.00  0.00     0.168 C 
ATOM      4  C   UNL     1      -4.637  -5.099  -4.677  1.00  0.00     0.041 C 
BRANCH   3   5
ATOM      5  N   UNL     1      -3.566  -3.979  -2.755  1.00  0.00    -0.342 N 
ATOM      6  C   UNL     1      -2.501  -3.692  -1.929  1.00  0.00     0.251 C 
ATOM      7  O   UNL     1      -1.547  -4.446  -1.768  1.00  0.00    -0.272 OA
ATOM      8  H   UNL     1      -4.317  -3.293  -2.779  1.00  0.00     0.164 HD
BRANCH   6   9
ATOM      9  C   UNL     1      -2.596  -2.292  -1.301  1.00  0.00     0.219 C 
BRANCH   9  10
ATOM     10  O   UNL     1      -2.686  -2.332   0.128  1.00  0.00    -0.382 OA
ATOM     11  H   UNL     1      -2.158  -3.125   0.371  1.00  0.00     0.211 HD
ENDBRANCH   9  10
BRANCH   9  12
ATOM     12  C   UNL     1      -1.457  -1.342  -1.755  1.00  0.00     0.089 C 
BRANCH  12  13
ATOM     13  N   UNL     1      -0.577  -1.079  -0.594  1.00  0.00    -0.325 NA
ATOM     14  H   UNL     1      -1.147  -0.784   0.200  1.00  0.00     0.119 HD
ATOM     15  H   UNL     1       0.021  -0.277  -0.806  1.00  0.00     0.119 HD
ENDBRANCH  12  13
BRANCH  12  16
ATOM     16  C   UNL     1      -0.616  -1.821  -2.963  1.00  0.00     0.022 C 
BRANCH  16  17
ATOM     17  C   UNL     1       0.876  -2.121  -2.761  1.00  0.00     0.002 C 
BRANCH  17  18
ATOM     18  C   UNL     1       1.820  -1.331  -3.665  1.00  0.00     0.000 C 
BRANCH  18  19
ATOM     19  C   UNL     1       2.182  -2.051  -4.971  1.00  0.00    -0.000 C 
BRANCH  19  20
ATOM     20  C   UNL     1       3.086  -1.259  -5.921  1.00  0.00    -0.000 C 
BRANCH  20  21
ATOM     21  C   UNL     1       4.384  -1.994  -6.265  1.00  0.00    -0.003 C 
ATOM     22  C   UNL     1       5.527  -1.019  -6.501  1.00  0.00     0.004 C 
ENDBRANCH  20  21
ENDBRANCH  19  20
ENDBRANCH  18  19
ENDBRANCH  17  18
ENDBRANCH  16  17
ENDBRANCH  12  16
ENDBRANCH   9  12
ENDBRANCH   6   9
ENDBRANCH   3   5
ENDBRANCH   2   3
BRANCH   2  23
ATOM     23  N   UNL     1      -3.123  -7.660  -3.042  1.00  0.00    -0.332 N 
ATOM     24  C   UNL     1      -1.992  -8.171  -2.281  1.00  0.00     0.147 C 
BRANCH  23  25
ATOM     25  C   UNL     1      -3.591  -8.548  -4.140  1.00  0.00     0.174 C 
BRANCH  25  26
ATOM     26  C   UNL     1      -4.262  -9.843  -3.624  1.00  0.00     0.038 C 
BRANCH  26  27
ATOM     27  C   UNL     1      -5.776  -9.775  -3.324  1.00  0.00    -0.015 C 
ATOM     28  C   UNL     1      -6.070  -9.628  -1.832  1.00  0.00     0.007 C 
ATOM     29  C   UNL     1      -6.506  -8.700  -4.125  1.00  0.00     0.007 C 
ENDBRANCH  26  27
ENDBRANCH  25  26
BRANCH  25  30
ATOM     30  C   UNL     1      -2.445  -8.801  -5.146  1.00  0.00     0.243 C 
ATOM     31  O   UNL     1      -2.018  -9.932  -5.375  1.00  0.00    -0.273 OA
ATOM     32  N   UNL     1      -1.934  -7.684  -5.757  1.00  0.00    -0.342 N 
ATOM     33  H   UNL     1      -2.433  -6.801  -5.622  1.00  0.00     0.164 HD
BRANCH  32  34
ATOM     34  C   UNL     1      -0.828  -7.731  -6.716  1.00  0.00     0.175 C 
BRANCH  34  35
ATOM     35  C   UNL     1      -1.248  -7.164  -8.082  1.00  0.00     0.070 C 
BRANCH  35  36
ATOM     36  C   UNL     1      -2.731  -7.308  -8.343  1.00  0.00    -0.045 A 
ATOM     37  C   UNL     1      -3.584  -6.208  -8.164  1.00  0.00     0.007 A 
ATOM     38  C   UNL     1      -3.275  -8.536  -8.741  1.00  0.00     0.007 A 
ATOM     39  C   UNL     1      -4.955  -6.334  -8.390  1.00  0.00     0.046 A 
ATOM     40  C   UNL     1      -4.648  -8.663  -8.965  1.00  0.00     0.046 A 
ATOM     41  C   UNL     1      -5.476  -7.559  -8.789  1.00  0.00     0.115 A 
BRANCH  41  42
ATOM     42  O   UNL     1      -6.821  -7.641  -8.995  1.00  0.00    -0.508 OA
ATOM     43  H   UNL     1      -7.269  -7.502  -8.144  1.00  0.00     0.293 HD
ENDBRANCH  41  42
ENDBRANCH  35  36
ENDBRANCH  34  35
BRANCH  34  44
ATOM     44  C   UNL     1       0.363  -6.954  -6.111  1.00  0.00     0.243 C 
ATOM     45  O   UNL     1       0.410  -6.546  -4.954  1.00  0.00    -0.273 OA
ATOM     46  N   UNL     1       1.337  -6.637  -7.035  1.00  0.00    -0.341 N 
ATOM     47  H   UNL     1       1.198  -6.896  -8.008  1.00  0.00     0.164 HD
BRANCH  46  48
ATOM     48  C   UNL     1       2.527  -5.847  -6.711  1.00  0.00     0.196 C 
BRANCH  48  49
ATOM     49  C   UNL     1       3.715  -6.750  -6.339  1.00  0.00     0.072 C 
BRANCH  49  50
ATOM     50  C   UNL     1       4.411  -6.305  -5.073  1.00  0.00    -0.045 A 
ATOM     51  C   UNL     1       5.412  -7.107  -4.506  1.00  0.00     0.007 A 
ATOM     52  C   UNL     1       4.056  -5.107  -4.439  1.00  0.00     0.007 A 
ATOM     53  C   UNL     1       6.051  -6.713  -3.331  1.00  0.00     0.046 A 
ATOM     54  C   UNL     1       4.696  -4.713  -3.261  1.00  0.00     0.046 A 
ATOM     55  C   UNL     1       5.689  -5.520  -2.718  1.00  0.00     0.115 A 
BRANCH  55  56
ATOM     56  O   UNL     1       6.337  -5.171  -1.569  1.00  0.00    -0.508 OA
ATOM     57  H   UNL     1       7.154  -4.705  -1.808  1.00  0.00     0.293 HD
ENDBRANCH  55  56
ENDBRANCH  49  50
ENDBRANCH  48  49
BRANCH  48  58
ATOM     58  C   UNL     1       2.898  -4.983  -7.924  1.00  0.00     0.326 C 
ATOM     59  O   UNL     1       4.005  -4.835  -8.416  1.00  0.00    -0.250 OA
BRANCH  58  60
ATOM     60  O   UNL     1       1.836  -4.346  -8.480  1.00  0.00    -0.480 OA
ATOM     61  H   UNL     1       2.017  -4.403  -9.443  1.00  0.00     0.296 HD
ENDBRANCH  58  60
ENDBRANCH  48  58
ENDBRANCH  46  48
ENDBRANCH  34  44
ENDBRANCH  32  34
ENDBRANCH  25  30
ENDBRANCH  23  25
ENDBRANCH   2  23
TORSDOF 28
ENDMDL
MODEL 34
REMARK VINA RESULT:    -5.639     20.042     24.428
REMARK INTER + INTRA:         -20.126
REMARK INTER:                 -15.684
REMARK INTRA:                  -4.442
REMARK UNBOUND:                -6.081
REMARK SMILES CCCCCCC[C@H](N)[C@H](O)C(=O)N[C@H](C)C(=O)N(C)[C@H](CC(C)C)C(=O)N[C@@H](Cc1ccc(O)cc1)C(=O)N[C@@H](Cc1ccc(O)cc1)C(=O)O
REMARK SMILES IDX 18 1 17 2 15 3 16 4 14 5 12 6 13 7 10 9 11 10 8 12 9 13 7 16
REMARK SMILES IDX 6 17 5 18 4 19 3 20 2 21 1 22 19 23 20 24 21 25 22 26 23 27
REMARK SMILES IDX 24 28 25 29 26 30 27 31 28 32 29 34 30 35 31 36 32 37 37 38
REMARK SMILES IDX 33 39 36 40 34 41 35 42 38 44 39 45 40 46 41 48 42 49 43 50
REMARK SMILES IDX 44 51 49 52 45 53 48 54 46 55 47 56 50 58 51 59 52 60
REMARK H PARENT 14 8 11 11 9 14 9 15 28 33 35 43 40 47 47 57 52 61
ROOT
ATOM      1  O   UNL     1     -19.896  11.467  -6.888  1.00  0.00    -0.272 OA
ATOM      2  C   UNL     1     -20.129  10.788  -7.899  1.00  0.00     0.245 C 
ENDROOT
BRANCH   2   3
ATOM      3  C   UNL     1     -19.340  11.095  -9.196  1.00  0.00     0.168 C 
ATOM      4  C   UNL     1     -20.288  11.298 -10.373  1.00  0.00     0.041 C 
BRANCH   3   5
ATOM      5  N   UNL     1     -18.376  12.179  -9.083  1.00  0.00    -0.342 N 
ATOM      6  C   UNL     1     -17.107  12.082  -9.612  1.00  0.00     0.251 C 
ATOM      7  O   UNL     1     -16.682  11.078 -10.172  1.00  0.00    -0.272 OA
ATOM      8  H   UNL     1     -18.603  13.050  -8.609  1.00  0.00     0.164 HD
BRANCH   6   9
ATOM      9  C   UNL     1     -16.315  13.395  -9.499  1.00  0.00     0.219 C 
BRANCH   9  10
ATOM     10  O   UNL     1     -17.087  14.541  -9.879  1.00  0.00    -0.382 OA
ATOM     11  H   UNL     1     -16.526  14.985 -10.552  1.00  0.00     0.211 HD
ENDBRANCH   9  10
BRANCH   9  12
ATOM     12  C   UNL     1     -15.673  13.601  -8.103  1.00  0.00     0.089 C 
BRANCH  12  13
ATOM     13  N   UNL     1     -16.749  13.917  -7.136  1.00  0.00    -0.325 NA
ATOM     14  H   UNL     1     -17.513  13.249  -7.253  1.00  0.00     0.119 HD
ATOM     15  H   UNL     1     -17.151  14.827  -7.374  1.00  0.00     0.119 HD
ENDBRANCH  12  13
BRANCH  12  16
ATOM     16  C   UNL     1     -14.810  12.431  -7.574  1.00  0.00     0.022 C 
BRANCH  16  17
ATOM     17  C   UNL     1     -13.343  12.692  -7.205  1.00  0.00     0.002 C 
BRANCH  17  18
ATOM     18  C   UNL     1     -12.429  11.471  -7.293  1.00  0.00     0.000 C 
BRANCH  18  19
ATOM     19  C   UNL     1     -12.423  10.604  -6.027  1.00  0.00    -0.000 C 
BRANCH  19  20
ATOM     20  C   UNL     1     -12.985   9.190  -6.205  1.00  0.00    -0.000 C 
BRANCH  20  21
ATOM     21  C   UNL     1     -13.160   8.444  -4.880  1.00  0.00    -0.003 C 
ATOM     22  C   UNL     1     -14.192   7.333  -5.001  1.00  0.00     0.004 C 
ENDBRANCH  20  21
ENDBRANCH  19  20
ENDBRANCH  18  19
ENDBRANCH  17  18
ENDBRANCH  16  17
ENDBRANCH  12  16
ENDBRANCH   9  12
ENDBRANCH   6   9
ENDBRANCH   3   5
ENDBRANCH   2   3
BRANCH   2  23
ATOM     23  N   UNL     1     -20.993   9.700  -7.823  1.00  0.00    -0.332 N 
ATOM     24  C   UNL     1     -22.434   9.800  -7.651  1.00  0.00     0.147 C 
BRANCH  23  25
ATOM     25  C   UNL     1     -20.483   8.320  -8.048  1.00  0.00     0.174 C 
BRANCH  25  26
ATOM     26  C   UNL     1     -20.998   7.695  -9.367  1.00  0.00     0.038 C 
BRANCH  26  27
ATOM     27  C   UNL     1     -19.967   6.934 -10.230  1.00  0.00    -0.015 C 
ATOM     28  C   UNL     1     -18.768   7.803 -10.610  1.00  0.00     0.007 C 
ATOM     29  C   UNL     1     -19.503   5.621  -9.605  1.00  0.00     0.007 C 
ENDBRANCH  26  27
ENDBRANCH  25  26
BRANCH  25  30
ATOM     30  C   UNL     1     -20.747   7.445  -6.802  1.00  0.00     0.243 C 
ATOM     31  O   UNL     1     -21.661   6.622  -6.766  1.00  0.00    -0.273 OA
ATOM     32  N   UNL     1     -19.902   7.651  -5.742  1.00  0.00    -0.342 N 
ATOM     33  H   UNL     1     -19.084   8.246  -5.897  1.00  0.00     0.164 HD
BRANCH  32  34
ATOM     34  C   UNL     1     -20.019   6.933  -4.470  1.00  0.00     0.175 C 
BRANCH  34  35
ATOM     35  C   UNL     1     -18.737   6.148  -4.151  1.00  0.00     0.070 C 
BRANCH  35  36
ATOM     36  C   UNL     1     -18.360   5.175  -5.244  1.00  0.00    -0.045 A 
ATOM     37  C   UNL     1     -19.298   4.238  -5.705  1.00  0.00     0.007 A 
ATOM     38  C   UNL     1     -17.071   5.176  -5.795  1.00  0.00     0.007 A 
ATOM     39  C   UNL     1     -18.954   3.327  -6.704  1.00  0.00     0.046 A 
ATOM     40  C   UNL     1     -16.726   4.263  -6.794  1.00  0.00     0.046 A 
ATOM     41  C   UNL     1     -17.673   3.346  -7.241  1.00  0.00     0.115 A 
BRANCH  41  42
ATOM     42  O   UNL     1     -17.377   2.437  -8.212  1.00  0.00    -0.508 OA
ATOM     43  H   UNL     1     -16.411   2.402  -8.313  1.00  0.00     0.293 HD
ENDBRANCH  41  42
ENDBRANCH  35  36
ENDBRANCH  34  35
BRANCH  34  44
ATOM     44  C   UNL     1     -20.356   7.962  -3.368  1.00  0.00     0.243 C 
ATOM     45  O   UNL     1     -21.373   7.934  -2.680  1.00  0.00    -0.273 OA
ATOM     46  N   UNL     1     -19.464   9.011  -3.305  1.00  0.00    -0.341 N 
ATOM     47  H   UNL     1     -18.700   9.050  -3.976  1.00  0.00     0.164 HD
BRANCH  46  48
ATOM     48  C   UNL     1     -19.613  10.142  -2.387  1.00  0.00     0.196 C 
BRANCH  48  49
ATOM     49  C   UNL     1     -18.251  10.602  -1.840  1.00  0.00     0.072 C 
BRANCH  49  50
ATOM     50  C   UNL     1     -18.012  10.150  -0.417  1.00  0.00    -0.045 A 
ATOM     51  C   UNL     1     -17.257   8.995  -0.168  1.00  0.00     0.007 A 
ATOM     52  C   UNL     1     -18.553  10.857   0.664  1.00  0.00     0.007 A 
ATOM     53  C   UNL     1     -17.042   8.560   1.140  1.00  0.00     0.046 A 
ATOM     54  C   UNL     1     -18.338  10.422   1.974  1.00  0.00     0.046 A 
ATOM     55  C   UNL     1     -17.583   9.277   2.201  1.00  0.00     0.115 A 
BRANCH  55  56
ATOM     56  O   UNL     1     -17.351   8.818   3.464  1.00  0.00    -0.508 OA
ATOM     57  H   UNL     1     -16.604   9.313   3.836  1.00  0.00     0.293 HD
ENDBRANCH  55  56
ENDBRANCH  49  50
ENDBRANCH  48  49
BRANCH  48  58
ATOM     58  C   UNL     1     -20.288  11.303  -3.129  1.00  0.00     0.326 C 
ATOM     59  O   UNL     1     -20.442  12.446  -2.730  1.00  0.00    -0.250 OA
BRANCH  58  60
ATOM     60  O   UNL     1     -20.733  10.968  -4.367  1.00  0.00    -0.480 OA
ATOM     61  H   UNL     1     -21.672  11.255  -4.355  1.00  0.00     0.296 HD
ENDBRANCH  58  60
ENDBRANCH  48  58
ENDBRANCH  46  48
ENDBRANCH  34  44
ENDBRANCH  32  34
ENDBRANCH  25  30
ENDBRANCH  23  25
ENDBRANCH   2  23
TORSDOF 28
ENDMDL
MODEL 35
REMARK VINA RESULT:    -5.621      3.937      9.751
REMARK INTER + INTRA:         -20.080
REMARK INTER:                 -17.181
REMARK INTRA:                  -2.899
REMARK UNBOUND:                -6.081
REMARK SMILES CCCCCCC[C@H](N)[C@H](O)C(=O)N[C@H](C)C(=O)N(C)[C@H](CC(C)C)C(=O)N[C@@H](Cc1ccc(O)cc1)C(=O)N[C@@H](Cc1ccc(O)cc1)C(=O)O
REMARK SMILES IDX 18 1 17 2 15 3 16 4 14 5 12 6 13 7 10 9 11 10 8 12 9 13 7 16
REMARK SMILES IDX 6 17 5 18 4 19 3 20 2 21 1 22 19 23 20 24 21 25 22 26 23 27
REMARK SMILES IDX 24 28 25 29 26 30 27 31 28 32 29 34 30 35 31 36 32 37 37 38
REMARK SMILES IDX 33 39 36 40 34 41 35 42 38 44 39 45 40 46 41 48 42 49 43 50
REMARK SMILES IDX 44 51 49 52 45 53 48 54 46 55 47 56 50 58 51 59 52 60
REMARK H PARENT 14 8 11 11 9 14 9 15 28 33 35 43 40 47 47 57 52 61
ROOT
ATOM      1  O   UNL     1      -0.929  -7.533  -1.300  1.00  0.00    -0.272 OA
ATOM      2  C   UNL     1      -1.492  -6.538  -1.781  1.00  0.00     0.245 C 
ENDROOT
BRANCH   2   3
ATOM      3  C   UNL     1      -2.756  -5.989  -1.076  1.00  0.00     0.168 C 
ATOM      4  C   UNL     1      -3.756  -5.454  -2.095  1.00  0.00     0.041 C 
BRANCH   3   5
ATOM      5  N   UNL     1      -3.380  -6.907  -0.135  1.00  0.00    -0.342 N 
ATOM      6  C   UNL     1      -3.181  -6.802   1.225  1.00  0.00     0.251 C 
ATOM      7  O   UNL     1      -2.443  -5.968   1.738  1.00  0.00    -0.272 OA
ATOM      8  H   UNL     1      -3.986  -7.663  -0.446  1.00  0.00     0.164 HD
BRANCH   6   9
ATOM      9  C   UNL     1      -4.048  -7.784   2.030  1.00  0.00     0.219 C 
BRANCH   9  10
ATOM     10  O   UNL     1      -3.270  -8.664   2.849  1.00  0.00    -0.382 OA
ATOM     11  H   UNL     1      -3.327  -9.526   2.381  1.00  0.00     0.211 HD
ENDBRANCH   9  10
BRANCH   9  12
ATOM     12  C   UNL     1      -5.147  -7.080   2.867  1.00  0.00     0.089 C 
BRANCH  12  13
ATOM     13  N   UNL     1      -5.644  -5.914   2.101  1.00  0.00    -0.325 NA
ATOM     14  H   UNL     1      -4.981  -5.143   2.195  1.00  0.00     0.119 HD
ATOM     15  H   UNL     1      -6.508  -5.578   2.533  1.00  0.00     0.119 HD
ENDBRANCH  12  13
BRANCH  12  16
ATOM     16  C   UNL     1      -6.333  -7.968   3.313  1.00  0.00     0.022 C 
BRANCH  16  17
ATOM     17  C   UNL     1      -7.453  -7.349   4.160  1.00  0.00     0.002 C 
BRANCH  17  18
ATOM     18  C   UNL     1      -8.197  -8.332   5.062  1.00  0.00     0.000 C 
BRANCH  18  19
ATOM     19  C   UNL     1      -8.644  -7.734   6.402  1.00  0.00    -0.000 C 
BRANCH  19  20
ATOM     20  C   UNL     1      -8.928  -8.755   7.507  1.00  0.00    -0.000 C 
BRANCH  20  21
ATOM     21  C   UNL     1      -8.481  -8.280   8.893  1.00  0.00    -0.003 C 
ATOM     22  C   UNL     1      -7.025  -8.629   9.155  1.00  0.00     0.004 C 
ENDBRANCH  20  21
ENDBRANCH  19  20
ENDBRANCH  18  19
ENDBRANCH  17  18
ENDBRANCH  16  17
ENDBRANCH  12  16
ENDBRANCH   9  12
ENDBRANCH   6   9
ENDBRANCH   3   5
ENDBRANCH   2   3
BRANCH   2  23
ATOM     23  N   UNL     1      -0.919  -5.868  -2.857  1.00  0.00    -0.332 N 
ATOM     24  C   UNL     1      -1.155  -6.198  -4.255  1.00  0.00     0.147 C 
BRANCH  23  25
ATOM     25  C   UNL     1      -0.099  -4.647  -2.631  1.00  0.00     0.174 C 
BRANCH  25  26
ATOM     26  C   UNL     1      -0.900  -3.338  -2.829  1.00  0.00     0.038 C 
BRANCH  26  27
ATOM     27  C   UNL     1      -0.535  -2.149  -1.913  1.00  0.00    -0.015 C 
ATOM     28  C   UNL     1       0.163  -1.020  -2.671  1.00  0.00     0.007 C 
ATOM     29  C   UNL     1      -1.721  -1.609  -1.119  1.00  0.00     0.007 C 
ENDBRANCH  26  27
ENDBRANCH  25  26
BRANCH  25  30
ATOM     30  C   UNL     1       1.199  -4.715  -3.468  1.00  0.00     0.243 C 
ATOM     31  O   UNL     1       1.260  -4.260  -4.610  1.00  0.00    -0.273 OA
ATOM     32  N   UNL     1       2.268  -5.318  -2.858  1.00  0.00    -0.342 N 
ATOM     33  H   UNL     1       2.181  -5.542  -1.863  1.00  0.00     0.164 HD
BRANCH  32  34
ATOM     34  C   UNL     1       3.568  -5.496  -3.510  1.00  0.00     0.175 C 
BRANCH  34  35
ATOM     35  C   UNL     1       3.435  -6.297  -4.814  1.00  0.00     0.070 C 
BRANCH  35  36
ATOM     36  C   UNL     1       4.341  -7.507  -4.853  1.00  0.00    -0.045 A 
ATOM     37  C   UNL     1       5.488  -7.499  -5.662  1.00  0.00     0.007 A 
ATOM     38  C   UNL     1       4.042  -8.654  -4.106  1.00  0.00     0.007 A 
ATOM     39  C   UNL     1       6.323  -8.615  -5.715  1.00  0.00     0.046 A 
ATOM     40  C   UNL     1       4.877  -9.772  -4.160  1.00  0.00     0.046 A 
ATOM     41  C   UNL     1       6.012  -9.742  -4.964  1.00  0.00     0.115 A 
BRANCH  41  42
ATOM     42  O   UNL     1       6.852 -10.812  -5.046  1.00  0.00    -0.508 OA
ATOM     43  H   UNL     1       6.611 -11.443  -4.348  1.00  0.00     0.293 HD
ENDBRANCH  41  42
ENDBRANCH  35  36
ENDBRANCH  34  35
BRANCH  34  44
ATOM     44  C   UNL     1       4.177  -4.096  -3.752  1.00  0.00     0.243 C 
ATOM     45  O   UNL     1       4.651  -3.384  -2.871  1.00  0.00    -0.273 OA
ATOM     46  N   UNL     1       4.026  -3.648  -5.047  1.00  0.00    -0.341 N 
ATOM     47  H   UNL     1       3.521  -4.227  -5.714  1.00  0.00     0.164 HD
BRANCH  46  48
ATOM     48  C   UNL     1       4.462  -2.325  -5.498  1.00  0.00     0.196 C 
BRANCH  48  49
ATOM     49  C   UNL     1       4.888  -2.349  -6.976  1.00  0.00     0.072 C 
BRANCH  49  50
ATOM     50  C   UNL     1       4.429  -3.599  -7.693  1.00  0.00    -0.045 A 
ATOM     51  C   UNL     1       5.376  -4.499  -8.204  1.00  0.00     0.007 A 
ATOM     52  C   UNL     1       3.067  -3.866  -7.877  1.00  0.00     0.007 A 
ATOM     53  C   UNL     1       4.966  -5.649  -8.878  1.00  0.00     0.046 A 
ATOM     54  C   UNL     1       2.655  -5.016  -8.553  1.00  0.00     0.046 A 
ATOM     55  C   UNL     1       3.609  -5.899  -9.048  1.00  0.00     0.115 A 
BRANCH  55  56
ATOM     56  O   UNL     1       3.250  -7.033  -9.715  1.00  0.00    -0.508 OA
ATOM     57  H   UNL     1       4.031  -7.603  -9.792  1.00  0.00     0.293 HD
ENDBRANCH  55  56
ENDBRANCH  49  50
ENDBRANCH  48  49
BRANCH  48  58
ATOM     58  C   UNL     1       3.309  -1.329  -5.311  1.00  0.00     0.326 C 
ATOM     59  O   UNL     1       2.157  -1.451  -5.694  1.00  0.00    -0.250 OA
BRANCH  58  60
ATOM     60  O   UNL     1       3.664  -0.213  -4.626  1.00  0.00    -0.480 OA
ATOM     61  H   UNL     1       3.074  -0.232  -3.842  1.00  0.00     0.296 HD
ENDBRANCH  58  60
ENDBRANCH  48  58
ENDBRANCH  46  48
ENDBRANCH  34  44
ENDBRANCH  32  34
ENDBRANCH  25  30
ENDBRANCH  23  25
ENDBRANCH   2  23
TORSDOF 28
ENDMDL
MODEL 36
REMARK VINA RESULT:    -5.618      2.735      6.270
REMARK INTER + INTRA:         -20.073
REMARK INTER:                 -15.641
REMARK INTRA:                  -4.432
REMARK UNBOUND:                -6.081
REMARK SMILES CCCCCCC[C@H](N)[C@H](O)C(=O)N[C@H](C)C(=O)N(C)[C@H](CC(C)C)C(=O)N[C@@H](Cc1ccc(O)cc1)C(=O)N[C@@H](Cc1ccc(O)cc1)C(=O)O
REMARK SMILES IDX 18 1 17 2 15 3 16 4 14 5 12 6 13 7 10 9 11 10 8 12 9 13 7 16
REMARK SMILES IDX 6 17 5 18 4 19 3 20 2 21 1 22 19 23 20 24 21 25 22 26 23 27
REMARK SMILES IDX 24 28 25 29 26 30 27 31 28 32 29 34 30 35 31 36 32 37 37 38
REMARK SMILES IDX 33 39 36 40 34 41 35 42 38 44 39 45 40 46 41 48 42 49 43 50
REMARK SMILES IDX 44 51 49 52 45 53 48 54 46 55 47 56 50 58 51 59 52 60
REMARK H PARENT 14 8 11 11 9 14 9 15 28 33 35 43 40 47 47 57 52 61
ROOT
ATOM      1  O   UNL     1      -2.503  -1.898  -0.337  1.00  0.00    -0.272 OA
ATOM      2  C   UNL     1      -1.743  -2.510  -1.102  1.00  0.00     0.245 C 
ENDROOT
BRANCH   2   3
ATOM      3  C   UNL     1      -1.065  -1.728  -2.254  1.00  0.00     0.168 C 
ATOM      4  C   UNL     1      -1.498  -0.266  -2.246  1.00  0.00     0.041 C 
BRANCH   3   5
ATOM      5  N   UNL     1       0.382  -1.864  -2.316  1.00  0.00    -0.342 N 
ATOM      6  C   UNL     1       1.056  -1.941  -3.517  1.00  0.00     0.251 C 
ATOM      7  O   UNL     1       0.495  -1.943  -4.608  1.00  0.00    -0.272 OA
ATOM      8  H   UNL     1       0.953  -1.908  -1.475  1.00  0.00     0.164 HD
BRANCH   6   9
ATOM      9  C   UNL     1       2.583  -1.936  -3.343  1.00  0.00     0.219 C 
BRANCH   9  10
ATOM     10  O   UNL     1       3.026  -0.977  -2.375  1.00  0.00    -0.382 OA
ATOM     11  H   UNL     1       3.970  -1.210  -2.235  1.00  0.00     0.211 HD
ENDBRANCH   9  10
BRANCH   9  12
ATOM     12  C   UNL     1       3.165  -3.340  -3.034  1.00  0.00     0.089 C 
BRANCH  12  13
ATOM     13  N   UNL     1       2.135  -4.354  -3.354  1.00  0.00    -0.325 NA
ATOM     14  H   UNL     1       2.524  -5.287  -3.204  1.00  0.00     0.119 HD
ATOM     15  H   UNL     1       1.926  -4.309  -4.354  1.00  0.00     0.119 HD
ENDBRANCH  12  13
BRANCH  12  16
ATOM     16  C   UNL     1       4.496  -3.693  -3.740  1.00  0.00     0.022 C 
BRANCH  16  17
ATOM     17  C   UNL     1       4.592  -4.997  -4.543  1.00  0.00     0.002 C 
BRANCH  17  18
ATOM     18  C   UNL     1       4.521  -4.827  -6.059  1.00  0.00     0.000 C 
BRANCH  18  19
ATOM     19  C   UNL     1       4.701  -3.380  -6.535  1.00  0.00    -0.000 C 
BRANCH  19  20
ATOM     20  C   UNL     1       3.406  -2.648  -6.897  1.00  0.00    -0.000 C 
BRANCH  20  21
ATOM     21  C   UNL     1       3.445  -1.156  -6.560  1.00  0.00    -0.003 C 
ATOM     22  C   UNL     1       4.848  -0.711  -6.176  1.00  0.00     0.004 C 
ENDBRANCH  20  21
ENDBRANCH  19  20
ENDBRANCH  18  19
ENDBRANCH  17  18
ENDBRANCH  16  17
ENDBRANCH  12  16
ENDBRANCH   9  12
ENDBRANCH   6   9
ENDBRANCH   3   5
ENDBRANCH   2   3
BRANCH   2  23
ATOM     23  N   UNL     1      -1.420  -3.838  -0.846  1.00  0.00    -0.332 N 
ATOM     24  C   UNL     1      -0.381  -4.272   0.076  1.00  0.00     0.147 C 
BRANCH  23  25
ATOM     25  C   UNL     1      -2.238  -4.937  -1.430  1.00  0.00     0.174 C 
BRANCH  25  26
ATOM     26  C   UNL     1      -2.415  -6.134  -0.467  1.00  0.00     0.038 C 
BRANCH  26  27
ATOM     27  C   UNL     1      -3.847  -6.417   0.041  1.00  0.00    -0.015 C 
ATOM     28  C   UNL     1      -4.315  -7.833  -0.294  1.00  0.00     0.007 C 
ATOM     29  C   UNL     1      -4.032  -6.128   1.528  1.00  0.00     0.007 C 
ENDBRANCH  26  27
ENDBRANCH  25  26
BRANCH  25  30
ATOM     30  C   UNL     1      -1.683  -5.333  -2.818  1.00  0.00     0.243 C 
ATOM     31  O   UNL     1      -0.628  -4.872  -3.251  1.00  0.00    -0.273 OA
ATOM     32  N   UNL     1      -2.445  -6.222  -3.530  1.00  0.00    -0.342 N 
ATOM     33  H   UNL     1      -3.231  -6.666  -3.047  1.00  0.00     0.164 HD
BRANCH  32  34
ATOM     34  C   UNL     1      -2.089  -6.688  -4.873  1.00  0.00     0.175 C 
BRANCH  34  35
ATOM     35  C   UNL     1      -1.072  -7.839  -4.813  1.00  0.00     0.070 C 
BRANCH  35  36
ATOM     36  C   UNL     1      -0.108  -7.827  -5.978  1.00  0.00    -0.045 A 
ATOM     37  C   UNL     1      -0.270  -8.740  -7.032  1.00  0.00     0.007 A 
ATOM     38  C   UNL     1       0.966  -6.929  -6.014  1.00  0.00     0.007 A 
ATOM     39  C   UNL     1       0.623  -8.747  -8.104  1.00  0.00     0.046 A 
ATOM     40  C   UNL     1       1.861  -6.936  -7.086  1.00  0.00     0.046 A 
ATOM     41  C   UNL     1       1.680  -7.845  -8.123  1.00  0.00     0.115 A 
BRANCH  41  42
ATOM     42  O   UNL     1       2.531  -7.886  -9.188  1.00  0.00    -0.508 OA
ATOM     43  H   UNL     1       2.007  -8.044  -9.991  1.00  0.00     0.293 HD
ENDBRANCH  41  42
ENDBRANCH  35  36
ENDBRANCH  34  35
BRANCH  34  44
ATOM     44  C   UNL     1      -3.390  -7.104  -5.596  1.00  0.00     0.243 C 
ATOM     45  O   UNL     1      -3.798  -8.259  -5.679  1.00  0.00    -0.273 OA
ATOM     46  N   UNL     1      -4.002  -6.066  -6.265  1.00  0.00    -0.341 N 
ATOM     47  H   UNL     1      -3.562  -5.149  -6.263  1.00  0.00     0.164 HD
BRANCH  46  48
ATOM     48  C   UNL     1      -5.210  -6.231  -7.076  1.00  0.00     0.196 C 
BRANCH  48  49
ATOM     49  C   UNL     1      -6.143  -5.015  -6.945  1.00  0.00     0.072 C 
BRANCH  49  50
ATOM     50  C   UNL     1      -7.011  -5.078  -5.709  1.00  0.00    -0.045 A 
ATOM     51  C   UNL     1      -8.223  -4.373  -5.669  1.00  0.00     0.007 A 
ATOM     52  C   UNL     1      -6.615  -5.817  -4.587  1.00  0.00     0.007 A 
ATOM     53  C   UNL     1      -9.025  -4.413  -4.529  1.00  0.00     0.046 A 
ATOM     54  C   UNL     1      -7.418  -5.856  -3.445  1.00  0.00     0.046 A 
ATOM     55  C   UNL     1      -8.618  -5.154  -3.426  1.00  0.00     0.115 A 
BRANCH  55  56
ATOM     56  O   UNL     1      -9.430  -5.166  -2.331  1.00  0.00    -0.508 OA
ATOM     57  H   UNL     1      -9.256  -4.364  -1.812  1.00  0.00     0.293 HD
ENDBRANCH  55  56
ENDBRANCH  49  50
ENDBRANCH  48  49
BRANCH  48  58
ATOM     58  C   UNL     1      -4.804  -6.412  -8.545  1.00  0.00     0.326 C 
ATOM     59  O   UNL     1      -5.193  -5.766  -9.505  1.00  0.00    -0.250 OA
BRANCH  58  60
ATOM     60  O   UNL     1      -3.900  -7.405  -8.738  1.00  0.00    -0.480 OA
ATOM     61  H   UNL     1      -4.437  -8.126  -9.135  1.00  0.00     0.296 HD
ENDBRANCH  58  60
ENDBRANCH  48  58
ENDBRANCH  46  48
ENDBRANCH  34  44
ENDBRANCH  32  34
ENDBRANCH  25  30
ENDBRANCH  23  25
ENDBRANCH   2  23
TORSDOF 28
ENDMDL
MODEL 37
REMARK VINA RESULT:    -5.616     20.903     25.056
REMARK INTER + INTRA:         -20.069
REMARK INTER:                 -14.274
REMARK INTRA:                  -5.795
REMARK UNBOUND:                -6.081
REMARK SMILES CCCCCCC[C@H](N)[C@H](O)C(=O)N[C@H](C)C(=O)N(C)[C@H](CC(C)C)C(=O)N[C@@H](Cc1ccc(O)cc1)C(=O)N[C@@H](Cc1ccc(O)cc1)C(=O)O
REMARK SMILES IDX 18 1 17 2 15 3 16 4 14 5 12 6 13 7 10 9 11 10 8 12 9 13 7 16
REMARK SMILES IDX 6 17 5 18 4 19 3 20 2 21 1 22 19 23 20 24 21 25 22 26 23 27
REMARK SMILES IDX 24 28 25 29 26 30 27 31 28 32 29 34 30 35 31 36 32 37 37 38
REMARK SMILES IDX 33 39 36 40 34 41 35 42 38 44 39 45 40 46 41 48 42 49 43 50
REMARK SMILES IDX 44 51 49 52 45 53 48 54 46 55 47 56 50 58 51 59 52 60
REMARK H PARENT 14 8 11 11 9 14 9 15 28 33 35 43 40 47 47 57 52 61
ROOT
ATOM      1  O   UNL     1     -19.886  11.966  -4.246  1.00  0.00    -0.272 OA
ATOM      2  C   UNL     1     -20.089  11.224  -3.274  1.00  0.00     0.245 C 
ENDROOT
BRANCH   2   3
ATOM      3  C   UNL     1     -21.064  10.031  -3.443  1.00  0.00     0.168 C 
ATOM      4  C   UNL     1     -22.401  10.500  -4.006  1.00  0.00     0.041 C 
BRANCH   3   5
ATOM      5  N   UNL     1     -20.527   8.904  -4.190  1.00  0.00    -0.342 N 
ATOM      6  C   UNL     1     -20.158   7.729  -3.569  1.00  0.00     0.251 C 
ATOM      7  O   UNL     1     -20.214   7.559  -2.356  1.00  0.00    -0.272 OA
ATOM      8  H   UNL     1     -20.401   8.940  -5.198  1.00  0.00     0.164 HD
BRANCH   6   9
ATOM      9  C   UNL     1     -19.755   6.632  -4.567  1.00  0.00     0.219 C 
BRANCH   9  10
ATOM     10  O   UNL     1     -19.706   7.104  -5.918  1.00  0.00    -0.382 OA
ATOM     11  H   UNL     1     -18.898   7.663  -5.939  1.00  0.00     0.211 HD
ENDBRANCH   9  10
BRANCH   9  12
ATOM     12  C   UNL     1     -18.432   5.918  -4.185  1.00  0.00     0.089 C 
BRANCH  12  13
ATOM     13  N   UNL     1     -18.692   5.045  -3.018  1.00  0.00    -0.325 NA
ATOM     14  H   UNL     1     -18.801   5.623  -2.183  1.00  0.00     0.119 HD
ATOM     15  H   UNL     1     -17.862   4.473  -2.840  1.00  0.00     0.119 HD
ENDBRANCH  12  13
BRANCH  12  16
ATOM     16  C   UNL     1     -17.747   5.109  -5.313  1.00  0.00     0.022 C 
BRANCH  16  17
ATOM     17  C   UNL     1     -16.246   5.301  -5.564  1.00  0.00     0.002 C 
BRANCH  17  18
ATOM     18  C   UNL     1     -15.650   6.575  -4.970  1.00  0.00     0.000 C 
BRANCH  18  19
ATOM     19  C   UNL     1     -14.117   6.619  -4.995  1.00  0.00    -0.000 C 
BRANCH  19  20
ATOM     20  C   UNL     1     -13.500   7.984  -4.675  1.00  0.00    -0.000 C 
BRANCH  20  21
ATOM     21  C   UNL     1     -12.967   8.707  -5.915  1.00  0.00    -0.003 C 
ATOM     22  C   UNL     1     -13.042  10.217  -5.752  1.00  0.00     0.004 C 
ENDBRANCH  20  21
ENDBRANCH  19  20
ENDBRANCH  18  19
ENDBRANCH  17  18
ENDBRANCH  16  17
ENDBRANCH  12  16
ENDBRANCH   9  12
ENDBRANCH   6   9
ENDBRANCH   3   5
ENDBRANCH   2   3
BRANCH   2  23
ATOM     23  N   UNL     1     -19.359  11.396  -2.103  1.00  0.00    -0.332 N 
ATOM     24  C   UNL     1     -19.885  11.182  -0.763  1.00  0.00     0.147 C 
BRANCH  23  25
ATOM     25  C   UNL     1     -17.903  11.699  -2.164  1.00  0.00     0.174 C 
BRANCH  25  26
ATOM     26  C   UNL     1     -17.087  10.954  -1.081  1.00  0.00     0.038 C 
BRANCH  26  27
ATOM     27  C   UNL     1     -16.133   9.839  -1.567  1.00  0.00    -0.015 C 
ATOM     28  C   UNL     1     -16.878   8.675  -2.219  1.00  0.00     0.007 C 
ATOM     29  C   UNL     1     -15.023  10.347  -2.483  1.00  0.00     0.007 C 
ENDBRANCH  26  27
ENDBRANCH  25  26
BRANCH  25  30
ATOM     30  C   UNL     1     -17.677  13.228  -2.170  1.00  0.00     0.243 C 
ATOM     31  O   UNL     1     -18.417  13.997  -1.558  1.00  0.00    -0.273 OA
ATOM     32  N   UNL     1     -16.606  13.667  -2.904  1.00  0.00    -0.342 N 
ATOM     33  H   UNL     1     -15.958  12.962  -3.265  1.00  0.00     0.164 HD
BRANCH  32  34
ATOM     34  C   UNL     1     -16.256  15.083  -3.045  1.00  0.00     0.175 C 
BRANCH  34  35
ATOM     35  C   UNL     1     -14.958  15.416  -2.294  1.00  0.00     0.070 C 
BRANCH  35  36
ATOM     36  C   UNL     1     -13.724  14.915  -3.010  1.00  0.00    -0.045 A 
ATOM     37  C   UNL     1     -12.890  15.819  -3.687  1.00  0.00     0.007 A 
ATOM     38  C   UNL     1     -13.408  13.550  -3.029  1.00  0.00     0.007 A 
ATOM     39  C   UNL     1     -11.757  15.364  -4.362  1.00  0.00     0.046 A 
ATOM     40  C   UNL     1     -12.274  13.095  -3.706  1.00  0.00     0.046 A 
ATOM     41  C   UNL     1     -11.457  14.007  -4.366  1.00  0.00     0.115 A 
BRANCH  41  42
ATOM     42  O   UNL     1     -10.343  13.604  -5.040  1.00  0.00    -0.508 OA
ATOM     43  H   UNL     1      -9.834  14.394  -5.287  1.00  0.00     0.293 HD
ENDBRANCH  41  42
ENDBRANCH  35  36
ENDBRANCH  34  35
BRANCH  34  44
ATOM     44  C   UNL     1     -16.149  15.402  -4.553  1.00  0.00     0.243 C 
ATOM     45  O   UNL     1     -16.143  16.536  -5.024  1.00  0.00    -0.273 OA
ATOM     46  N   UNL     1     -16.192  14.282  -5.355  1.00  0.00    -0.341 N 
ATOM     47  H   UNL     1     -16.316  13.369  -4.923  1.00  0.00     0.164 HD
BRANCH  46  48
ATOM     48  C   UNL     1     -16.175  14.337  -6.819  1.00  0.00     0.196 C 
BRANCH  48  49
ATOM     49  C   UNL     1     -15.117  13.385  -7.403  1.00  0.00     0.072 C 
BRANCH  49  50
ATOM     50  C   UNL     1     -13.792  14.070  -7.649  1.00  0.00    -0.045 A 
ATOM     51  C   UNL     1     -13.719  15.470  -7.658  1.00  0.00     0.007 A 
ATOM     52  C   UNL     1     -12.630  13.325  -7.892  1.00  0.00     0.007 A 
ATOM     53  C   UNL     1     -12.504  16.113  -7.898  1.00  0.00     0.046 A 
ATOM     54  C   UNL     1     -11.414  13.968  -8.133  1.00  0.00     0.046 A 
ATOM     55  C   UNL     1     -11.362  15.358  -8.132  1.00  0.00     0.115 A 
BRANCH  55  56
ATOM     56  O   UNL     1     -10.195  16.024  -8.364  1.00  0.00    -0.508 OA
ATOM     57  H   UNL     1     -10.079  16.113  -9.324  1.00  0.00     0.293 HD
ENDBRANCH  55  56
ENDBRANCH  49  50
ENDBRANCH  48  49
BRANCH  48  58
ATOM     58  C   UNL     1     -17.563  13.952  -7.349  1.00  0.00     0.326 C 
ATOM     59  O   UNL     1     -18.084  14.320  -8.390  1.00  0.00    -0.250 OA
BRANCH  58  60
ATOM     60  O   UNL     1     -18.234  13.097  -6.538  1.00  0.00    -0.480 OA
ATOM     61  H   UNL     1     -17.561  12.417  -6.320  1.00  0.00     0.296 HD
ENDBRANCH  58  60
ENDBRANCH  48  58
ENDBRANCH  46  48
ENDBRANCH  34  44
ENDBRANCH  32  34
ENDBRANCH  25  30
ENDBRANCH  23  25
ENDBRANCH   2  23
TORSDOF 28
ENDMDL
MODEL 38
REMARK VINA RESULT:    -5.609      2.595      6.321
REMARK INTER + INTRA:         -20.052
REMARK INTER:                 -16.011
REMARK INTRA:                  -4.041
REMARK UNBOUND:                -6.081
REMARK SMILES CCCCCCC[C@H](N)[C@H](O)C(=O)N[C@H](C)C(=O)N(C)[C@H](CC(C)C)C(=O)N[C@@H](Cc1ccc(O)cc1)C(=O)N[C@@H](Cc1ccc(O)cc1)C(=O)O
REMARK SMILES IDX 18 1 17 2 15 3 16 4 14 5 12 6 13 7 10 9 11 10 8 12 9 13 7 16
REMARK SMILES IDX 6 17 5 18 4 19 3 20 2 21 1 22 19 23 20 24 21 25 22 26 23 27
REMARK SMILES IDX 24 28 25 29 26 30 27 31 28 32 29 34 30 35 31 36 32 37 37 38
REMARK SMILES IDX 33 39 36 40 34 41 35 42 38 44 39 45 40 46 41 48 42 49 43 50
REMARK SMILES IDX 44 51 49 52 45 53 48 54 46 55 47 56 50 58 51 59 52 60
REMARK H PARENT 14 8 11 11 9 14 9 15 28 33 35 43 40 47 47 57 52 61
ROOT
ATOM      1  O   UNL     1      -2.939  -8.898   0.061  1.00  0.00    -0.272 OA
ATOM      2  C   UNL     1      -3.081  -8.042  -0.825  1.00  0.00     0.245 C 
ENDROOT
BRANCH   2   3
ATOM      3  C   UNL     1      -1.968  -6.981  -1.016  1.00  0.00     0.168 C 
ATOM      4  C   UNL     1      -0.837  -7.533  -1.877  1.00  0.00     0.041 C 
BRANCH   3   5
ATOM      5  N   UNL     1      -2.432  -5.688  -1.494  1.00  0.00    -0.342 N 
ATOM      6  C   UNL     1      -1.852  -4.508  -1.079  1.00  0.00     0.251 C 
ATOM      7  O   UNL     1      -0.944  -4.453  -0.257  1.00  0.00    -0.272 OA
ATOM      8  H   UNL     1      -3.203  -5.605  -2.153  1.00  0.00     0.164 HD
BRANCH   6   9
ATOM      9  C   UNL     1      -2.407  -3.281  -1.820  1.00  0.00     0.219 C 
BRANCH   9  10
ATOM     10  O   UNL     1      -3.653  -3.547  -2.476  1.00  0.00    -0.382 OA
ATOM     11  H   UNL     1      -3.501  -4.412  -2.917  1.00  0.00     0.211 HD
ENDBRANCH   9  10
BRANCH   9  12
ATOM     12  C   UNL     1      -2.517  -2.023  -0.919  1.00  0.00     0.089 C 
BRANCH  12  13
ATOM     13  N   UNL     1      -2.776  -2.466   0.470  1.00  0.00    -0.325 NA
ATOM     14  H   UNL     1      -2.735  -1.657   1.094  1.00  0.00     0.119 HD
ATOM     15  H   UNL     1      -2.012  -3.075   0.772  1.00  0.00     0.119 HD
ENDBRANCH  12  13
BRANCH  12  16
ATOM     16  C   UNL     1      -1.308  -1.058  -0.952  1.00  0.00     0.022 C 
BRANCH  16  17
ATOM     17  C   UNL     1      -0.968  -0.332  -2.261  1.00  0.00     0.002 C 
BRANCH  17  18
ATOM     18  C   UNL     1      -0.001  -1.078  -3.178  1.00  0.00     0.000 C 
BRANCH  18  19
ATOM     19  C   UNL     1       1.476  -0.911  -2.797  1.00  0.00    -0.000 C 
BRANCH  19  20
ATOM     20  C   UNL     1       2.406  -2.019  -3.299  1.00  0.00    -0.000 C 
BRANCH  20  21
ATOM     21  C   UNL     1       1.651  -3.224  -3.866  1.00  0.00    -0.003 C 
ATOM     22  C   UNL     1       1.477  -4.313  -2.819  1.00  0.00     0.004 C 
ENDBRANCH  20  21
ENDBRANCH  19  20
ENDBRANCH  18  19
ENDBRANCH  17  18
ENDBRANCH  16  17
ENDBRANCH  12  16
ENDBRANCH   9  12
ENDBRANCH   6   9
ENDBRANCH   3   5
ENDBRANCH   2   3
BRANCH   2  23
ATOM     23  N   UNL     1      -4.160  -8.119  -1.699  1.00  0.00    -0.332 N 
ATOM     24  C   UNL     1      -5.373  -7.323  -1.586  1.00  0.00     0.147 C 
BRANCH  23  25
ATOM     25  C   UNL     1      -4.077  -8.964  -2.922  1.00  0.00     0.174 C 
BRANCH  25  26
ATOM     26  C   UNL     1      -3.573 -10.397  -2.631  1.00  0.00     0.038 C 
BRANCH  26  27
ATOM     27  C   UNL     1      -4.646 -11.474  -2.357  1.00  0.00    -0.015 C 
ATOM     28  C   UNL     1      -5.033 -12.247  -3.617  1.00  0.00     0.007 C 
ATOM     29  C   UNL     1      -4.270 -12.434  -1.232  1.00  0.00     0.007 C 
ENDBRANCH  26  27
ENDBRANCH  25  26
BRANCH  25  30
ATOM     30  C   UNL     1      -3.271  -8.233  -4.020  1.00  0.00     0.243 C 
ATOM     31  O   UNL     1      -3.429  -7.036  -4.255  1.00  0.00    -0.273 OA
ATOM     32  N   UNL     1      -2.376  -9.007  -4.714  1.00  0.00    -0.342 N 
ATOM     33  H   UNL     1      -2.200  -9.953  -4.367  1.00  0.00     0.164 HD
BRANCH  32  34
ATOM     34  C   UNL     1      -1.547  -8.490  -5.806  1.00  0.00     0.175 C 
BRANCH  34  35
ATOM     35  C   UNL     1      -0.155  -9.139  -5.806  1.00  0.00     0.070 C 
BRANCH  35  36
ATOM     36  C   UNL     1       0.962  -8.128  -5.675  1.00  0.00    -0.045 A 
ATOM     37  C   UNL     1       2.038  -8.379  -4.810  1.00  0.00     0.007 A 
ATOM     38  C   UNL     1       0.930  -6.925  -6.392  1.00  0.00     0.007 A 
ATOM     39  C   UNL     1       3.066  -7.446  -4.673  1.00  0.00     0.046 A 
ATOM     40  C   UNL     1       1.959  -5.990  -6.254  1.00  0.00     0.046 A 
ATOM     41  C   UNL     1       3.019  -6.260  -5.396  1.00  0.00     0.115 A 
BRANCH  41  42
ATOM     42  O   UNL     1       4.042  -5.374  -5.230  1.00  0.00    -0.508 OA
ATOM     43  H   UNL     1       4.803  -5.852  -4.862  1.00  0.00     0.293 HD
ENDBRANCH  41  42
ENDBRANCH  35  36
ENDBRANCH  34  35
BRANCH  34  44
ATOM     44  C   UNL     1      -2.298  -8.734  -7.134  1.00  0.00     0.243 C 
ATOM     45  O   UNL     1      -3.128  -9.622  -7.309  1.00  0.00    -0.273 OA
ATOM     46  N   UNL     1      -1.856  -7.938  -8.169  1.00  0.00    -0.341 N 
ATOM     47  H   UNL     1      -1.083  -7.297  -8.004  1.00  0.00     0.164 HD
BRANCH  46  48
ATOM     48  C   UNL     1      -2.369  -8.035  -9.537  1.00  0.00     0.196 C 
BRANCH  48  49
ATOM     49  C   UNL     1      -2.869  -6.673 -10.046  1.00  0.00     0.072 C 
BRANCH  49  50
ATOM     50  C   UNL     1      -4.291  -6.380  -9.623  1.00  0.00    -0.045 A 
ATOM     51  C   UNL     1      -5.332  -6.469 -10.558  1.00  0.00     0.007 A 
ATOM     52  C   UNL     1      -4.586  -5.996  -8.308  1.00  0.00     0.007 A 
ATOM     53  C   UNL     1      -6.645  -6.188 -10.182  1.00  0.00     0.046 A 
ATOM     54  C   UNL     1      -5.901  -5.713  -7.932  1.00  0.00     0.046 A 
ATOM     55  C   UNL     1      -6.920  -5.813  -8.873  1.00  0.00     0.115 A 
BRANCH  55  56
ATOM     56  O   UNL     1      -8.217  -5.545  -8.546  1.00  0.00    -0.508 OA
ATOM     57  H   UNL     1      -8.290  -5.520  -7.579  1.00  0.00     0.293 HD
ENDBRANCH  55  56
ENDBRANCH  49  50
ENDBRANCH  48  49
BRANCH  48  58
ATOM     58  C   UNL     1      -1.251  -8.549 -10.455  1.00  0.00     0.326 C 
ATOM     59  O   UNL     1      -0.392  -9.372 -10.183  1.00  0.00    -0.250 OA
BRANCH  58  60
ATOM     60  O   UNL     1      -1.277  -8.004 -11.697  1.00  0.00    -0.480 OA
ATOM     61  H   UNL     1      -1.044  -7.064 -11.537  1.00  0.00     0.296 HD
ENDBRANCH  58  60
ENDBRANCH  48  58
ENDBRANCH  46  48
ENDBRANCH  34  44
ENDBRANCH  32  34
ENDBRANCH  25  30
ENDBRANCH  23  25
ENDBRANCH   2  23
TORSDOF 28
ENDMDL
MODEL 39
REMARK VINA RESULT:    -5.607      2.518      6.185
REMARK INTER + INTRA:         -20.047
REMARK INTER:                 -14.365
REMARK INTRA:                  -5.683
REMARK UNBOUND:                -6.081
REMARK SMILES CCCCCCC[C@H](N)[C@H](O)C(=O)N[C@H](C)C(=O)N(C)[C@H](CC(C)C)C(=O)N[C@@H](Cc1ccc(O)cc1)C(=O)N[C@@H](Cc1ccc(O)cc1)C(=O)O
REMARK SMILES IDX 18 1 17 2 15 3 16 4 14 5 12 6 13 7 10 9 11 10 8 12 9 13 7 16
REMARK SMILES IDX 6 17 5 18 4 19 3 20 2 21 1 22 19 23 20 24 21 25 22 26 23 27
REMARK SMILES IDX 24 28 25 29 26 30 27 31 28 32 29 34 30 35 31 36 32 37 37 38
REMARK SMILES IDX 33 39 36 40 34 41 35 42 38 44 39 45 40 46 41 48 42 49 43 50
REMARK SMILES IDX 44 51 49 52 45 53 48 54 46 55 47 56 50 58 51 59 52 60
REMARK H PARENT 14 8 11 11 9 14 9 15 28 33 35 43 40 47 47 57 52 61
ROOT
ATOM      1  O   UNL     1      -2.548  -2.087  -0.227  1.00  0.00    -0.272 OA
ATOM      2  C   UNL     1      -1.744  -2.648  -0.987  1.00  0.00     0.245 C 
ENDROOT
BRANCH   2   3
ATOM      3  C   UNL     1      -1.103  -1.821  -2.129  1.00  0.00     0.168 C 
ATOM      4  C   UNL     1      -1.397  -0.335  -1.952  1.00  0.00     0.041 C 
BRANCH   3   5
ATOM      5  N   UNL     1       0.314  -2.071  -2.344  1.00  0.00    -0.342 N 
ATOM      6  C   UNL     1       0.891  -1.961  -3.591  1.00  0.00     0.251 C 
ATOM      7  O   UNL     1       0.260  -1.690  -4.607  1.00  0.00    -0.272 OA
ATOM      8  H   UNL     1       0.933  -2.337  -1.582  1.00  0.00     0.164 HD
BRANCH   6   9
ATOM      9  C   UNL     1       2.419  -2.130  -3.555  1.00  0.00     0.219 C 
BRANCH   9  10
ATOM     10  O   UNL     1       3.045  -1.285  -2.583  1.00  0.00    -0.382 OA
ATOM     11  H   UNL     1       2.882  -0.378  -2.924  1.00  0.00     0.211 HD
ENDBRANCH   9  10
BRANCH   9  12
ATOM     12  C   UNL     1       2.865  -3.604  -3.373  1.00  0.00     0.089 C 
BRANCH  12  13
ATOM     13  N   UNL     1       1.932  -4.471  -4.128  1.00  0.00    -0.325 NA
ATOM     14  H   UNL     1       1.703  -4.024  -5.018  1.00  0.00     0.119 HD
ATOM     15  H   UNL     1       1.045  -4.524  -3.621  1.00  0.00     0.119 HD
ENDBRANCH  12  13
BRANCH  12  16
ATOM     16  C   UNL     1       4.326  -3.924  -3.769  1.00  0.00     0.022 C 
BRANCH  16  17
ATOM     17  C   UNL     1       5.297  -4.431  -2.694  1.00  0.00     0.002 C 
BRANCH  17  18
ATOM     18  C   UNL     1       5.127  -5.900  -2.313  1.00  0.00     0.000 C 
BRANCH  18  19
ATOM     19  C   UNL     1       4.708  -6.803  -3.480  1.00  0.00    -0.000 C 
BRANCH  19  20
ATOM     20  C   UNL     1       3.946  -8.070  -3.079  1.00  0.00    -0.000 C 
BRANCH  20  21
ATOM     21  C   UNL     1       2.841  -8.444  -4.071  1.00  0.00    -0.003 C 
ATOM     22  C   UNL     1       3.380  -9.305  -5.203  1.00  0.00     0.004 C 
ENDBRANCH  20  21
ENDBRANCH  19  20
ENDBRANCH  18  19
ENDBRANCH  17  18
ENDBRANCH  16  17
ENDBRANCH  12  16
ENDBRANCH   9  12
ENDBRANCH   6   9
ENDBRANCH   3   5
ENDBRANCH   2   3
BRANCH   2  23
ATOM     23  N   UNL     1      -1.344  -3.956  -0.733  1.00  0.00    -0.332 N 
ATOM     24  C   UNL     1      -0.218  -4.325   0.112  1.00  0.00     0.147 C 
BRANCH  23  25
ATOM     25  C   UNL     1      -2.155  -5.100  -1.232  1.00  0.00     0.174 C 
BRANCH  25  26
ATOM     26  C   UNL     1      -2.138  -6.314  -0.273  1.00  0.00     0.038 C 
BRANCH  26  27
ATOM     27  C   UNL     1      -3.430  -6.592   0.527  1.00  0.00    -0.015 C 
ATOM     28  C   UNL     1      -3.669  -5.559   1.628  1.00  0.00     0.007 C 
ATOM     29  C   UNL     1      -4.669  -6.737  -0.352  1.00  0.00     0.007 C 
ENDBRANCH  26  27
ENDBRANCH  25  26
BRANCH  25  30
ATOM     30  C   UNL     1      -1.748  -5.448  -2.682  1.00  0.00     0.243 C 
ATOM     31  O   UNL     1      -0.807  -4.891  -3.245  1.00  0.00    -0.273 OA
ATOM     32  N   UNL     1      -2.508  -6.409  -3.297  1.00  0.00    -0.342 N 
ATOM     33  H   UNL     1      -3.179  -6.924  -2.720  1.00  0.00     0.164 HD
BRANCH  32  34
ATOM     34  C   UNL     1      -2.286  -6.846  -4.678  1.00  0.00     0.175 C 
BRANCH  34  35
ATOM     35  C   UNL     1      -1.547  -8.192  -4.726  1.00  0.00     0.070 C 
BRANCH  35  36
ATOM     36  C   UNL     1      -0.594  -8.295  -5.896  1.00  0.00    -0.045 A 
ATOM     37  C   UNL     1      -0.416  -9.524  -6.550  1.00  0.00     0.007 A 
ATOM     38  C   UNL     1       0.137  -7.181  -6.327  1.00  0.00     0.007 A 
ATOM     39  C   UNL     1       0.472  -9.631  -7.621  1.00  0.00     0.046 A 
ATOM     40  C   UNL     1       1.027  -7.288  -7.399  1.00  0.00     0.046 A 
ATOM     41  C   UNL     1       1.185  -8.514  -8.037  1.00  0.00     0.115 A 
BRANCH  41  42
ATOM     42  O   UNL     1       2.044  -8.662  -9.086  1.00  0.00    -0.508 OA
ATOM     43  H   UNL     1       1.532  -8.608  -9.909  1.00  0.00     0.293 HD
ENDBRANCH  41  42
ENDBRANCH  35  36
ENDBRANCH  34  35
BRANCH  34  44
ATOM     44  C   UNL     1      -3.658  -6.914  -5.386  1.00  0.00     0.243 C 
ATOM     45  O   UNL     1      -4.367  -5.940  -5.620  1.00  0.00    -0.273 OA
ATOM     46  N   UNL     1      -4.089  -8.202  -5.623  1.00  0.00    -0.341 N 
ATOM     47  H   UNL     1      -3.518  -8.981  -5.305  1.00  0.00     0.164 HD
BRANCH  46  48
ATOM     48  C   UNL     1      -5.388  -8.520  -6.221  1.00  0.00     0.196 C 
BRANCH  48  49
ATOM     49  C   UNL     1      -5.225  -9.132  -7.622  1.00  0.00     0.072 C 
BRANCH  49  50
ATOM     50  C   UNL     1      -4.360  -8.286  -8.530  1.00  0.00    -0.045 A 
ATOM     51  C   UNL     1      -3.075  -8.726  -8.880  1.00  0.00     0.007 A 
ATOM     52  C   UNL     1      -4.815  -7.053  -9.015  1.00  0.00     0.007 A 
ATOM     53  C   UNL     1      -2.263  -7.948  -9.705  1.00  0.00     0.046 A 
ATOM     54  C   UNL     1      -4.002  -6.274  -9.841  1.00  0.00     0.046 A 
ATOM     55  C   UNL     1      -2.732  -6.729 -10.180  1.00  0.00     0.115 A 
BRANCH  55  56
ATOM     56  O   UNL     1      -1.907  -5.998 -10.983  1.00  0.00    -0.508 OA
ATOM     57  H   UNL     1      -1.527  -5.277 -10.456  1.00  0.00     0.293 HD
ENDBRANCH  55  56
ENDBRANCH  49  50
ENDBRANCH  48  49
BRANCH  48  58
ATOM     58  C   UNL     1      -6.129  -9.509  -5.310  1.00  0.00     0.326 C 
ATOM     59  O   UNL     1      -6.823 -10.452  -5.653  1.00  0.00    -0.250 OA
BRANCH  58  60
ATOM     60  O   UNL     1      -5.945  -9.268  -3.988  1.00  0.00    -0.480 OA
ATOM     61  H   UNL     1      -6.791  -8.851  -3.715  1.00  0.00     0.296 HD
ENDBRANCH  58  60
ENDBRANCH  48  58
ENDBRANCH  46  48
ENDBRANCH  34  44
ENDBRANCH  32  34
ENDBRANCH  25  30
ENDBRANCH  23  25
ENDBRANCH   2  23
TORSDOF 28
ENDMDL
MODEL 40
REMARK VINA RESULT:    -5.588     20.944     25.494
REMARK INTER + INTRA:         -19.999
REMARK INTER:                 -16.387
REMARK INTRA:                  -3.612
REMARK UNBOUND:                -6.081
REMARK SMILES CCCCCCC[C@H](N)[C@H](O)C(=O)N[C@H](C)C(=O)N(C)[C@H](CC(C)C)C(=O)N[C@@H](Cc1ccc(O)cc1)C(=O)N[C@@H](Cc1ccc(O)cc1)C(=O)O
REMARK SMILES IDX 18 1 17 2 15 3 16 4 14 5 12 6 13 7 10 9 11 10 8 12 9 13 7 16
REMARK SMILES IDX 6 17 5 18 4 19 3 20 2 21 1 22 19 23 20 24 21 25 22 26 23 27
REMARK SMILES IDX 24 28 25 29 26 30 27 31 28 32 29 34 30 35 31 36 32 37 37 38
REMARK SMILES IDX 33 39 36 40 34 41 35 42 38 44 39 45 40 46 41 48 42 49 43 50
REMARK SMILES IDX 44 51 49 52 45 53 48 54 46 55 47 56 50 58 51 59 52 60
REMARK H PARENT 14 8 11 11 9 14 9 15 28 33 35 43 40 47 47 57 52 61
ROOT
ATOM      1  O   UNL     1     -17.912  12.819  -0.134  1.00  0.00    -0.272 OA
ATOM      2  C   UNL     1     -18.633  11.956  -0.655  1.00  0.00     0.245 C 
ENDROOT
BRANCH   2   3
ATOM      3  C   UNL     1     -18.475  10.484  -0.198  1.00  0.00     0.168 C 
ATOM      4  C   UNL     1     -19.091  10.277   1.182  1.00  0.00     0.041 C 
BRANCH   3   5
ATOM      5  N   UNL     1     -18.943   9.493  -1.154  1.00  0.00    -0.342 N 
ATOM      6  C   UNL     1     -18.393   8.231  -1.222  1.00  0.00     0.251 C 
ATOM      7  O   UNL     1     -17.454   7.863  -0.523  1.00  0.00    -0.272 OA
ATOM      8  H   UNL     1     -19.694   9.694  -1.811  1.00  0.00     0.164 HD
BRANCH   6   9
ATOM      9  C   UNL     1     -19.136   7.310  -2.204  1.00  0.00     0.219 C 
BRANCH   9  10
ATOM     10  O   UNL     1     -20.535   7.606  -2.287  1.00  0.00    -0.382 OA
ATOM     11  H   UNL     1     -20.829   7.599  -1.350  1.00  0.00     0.211 HD
ENDBRANCH   9  10
BRANCH   9  12
ATOM     12  C   UNL     1     -18.494   7.281  -3.616  1.00  0.00     0.089 C 
BRANCH  12  13
ATOM     13  N   UNL     1     -17.175   7.949  -3.544  1.00  0.00    -0.325 NA
ATOM     14  H   UNL     1     -16.636   7.547  -2.774  1.00  0.00     0.119 HD
ATOM     15  H   UNL     1     -17.314   8.930  -3.288  1.00  0.00     0.119 HD
ENDBRANCH  12  13
BRANCH  12  16
ATOM     16  C   UNL     1     -18.347   5.883  -4.265  1.00  0.00     0.022 C 
BRANCH  16  17
ATOM     17  C   UNL     1     -17.245   5.657  -5.308  1.00  0.00     0.002 C 
BRANCH  17  18
ATOM     18  C   UNL     1     -17.437   4.427  -6.192  1.00  0.00     0.000 C 
BRANCH  18  19
ATOM     19  C   UNL     1     -18.525   4.591  -7.262  1.00  0.00    -0.000 C 
BRANCH  19  20
ATOM     20  C   UNL     1     -19.450   3.383  -7.439  1.00  0.00    -0.000 C 
BRANCH  20  21
ATOM     21  C   UNL     1     -18.722   2.044  -7.297  1.00  0.00    -0.003 C 
ATOM     22  C   UNL     1     -17.999   1.667  -8.581  1.00  0.00     0.004 C 
ENDBRANCH  20  21
ENDBRANCH  19  20
ENDBRANCH  18  19
ENDBRANCH  17  18
ENDBRANCH  16  17
ENDBRANCH  12  16
ENDBRANCH   9  12
ENDBRANCH   6   9
ENDBRANCH   3   5
ENDBRANCH   2   3
BRANCH   2  23
ATOM     23  N   UNL     1     -19.641  12.330  -1.538  1.00  0.00    -0.332 N 
ATOM     24  C   UNL     1     -20.934  11.672  -1.642  1.00  0.00     0.147 C 
BRANCH  23  25
ATOM     25  C   UNL     1     -19.492  13.555  -2.371  1.00  0.00     0.174 C 
BRANCH  25  26
ATOM     26  C   UNL     1     -20.844  14.101  -2.886  1.00  0.00     0.038 C 
BRANCH  26  27
ATOM     27  C   UNL     1     -20.966  15.634  -3.042  1.00  0.00    -0.015 C 
ATOM     28  C   UNL     1     -20.472  16.124  -4.402  1.00  0.00     0.007 C 
ATOM     29  C   UNL     1     -22.370  16.163  -2.757  1.00  0.00     0.007 C 
ENDBRANCH  26  27
ENDBRANCH  25  26
BRANCH  25  30
ATOM     30  C   UNL     1     -18.453  13.313  -3.491  1.00  0.00     0.243 C 
ATOM     31  O   UNL     1     -18.764  12.810  -4.569  1.00  0.00    -0.273 OA
ATOM     32  N   UNL     1     -17.168  13.691  -3.199  1.00  0.00    -0.342 N 
ATOM     33  H   UNL     1     -17.015  14.229  -2.342  1.00  0.00     0.164 HD
BRANCH  32  34
ATOM     34  C   UNL     1     -16.049  13.513  -4.128  1.00  0.00     0.175 C 
BRANCH  34  35
ATOM     35  C   UNL     1     -15.694  14.830  -4.835  1.00  0.00     0.070 C 
BRANCH  35  36
ATOM     36  C   UNL     1     -15.721  14.710  -6.342  1.00  0.00    -0.045 A 
ATOM     37  C   UNL     1     -15.518  13.461  -6.950  1.00  0.00     0.007 A 
ATOM     38  C   UNL     1     -15.922  15.837  -7.150  1.00  0.00     0.007 A 
ATOM     39  C   UNL     1     -15.527  13.343  -8.341  1.00  0.00     0.046 A 
ATOM     40  C   UNL     1     -15.929  15.719  -8.542  1.00  0.00     0.046 A 
ATOM     41  C   UNL     1     -15.733  14.472  -9.125  1.00  0.00     0.115 A 
BRANCH  41  42
ATOM     42  O   UNL     1     -15.731  14.313 -10.479  1.00  0.00    -0.508 OA
ATOM     43  H   UNL     1     -16.361  14.947 -10.861  1.00  0.00     0.293 HD
ENDBRANCH  41  42
ENDBRANCH  35  36
ENDBRANCH  34  35
BRANCH  34  44
ATOM     44  C   UNL     1     -14.852  12.944  -3.333  1.00  0.00     0.243 C 
ATOM     45  O   UNL     1     -14.954  12.291  -2.299  1.00  0.00    -0.273 OA
ATOM     46  N   UNL     1     -13.627  13.349  -3.820  1.00  0.00    -0.341 N 
ATOM     47  H   UNL     1     -13.597  13.987  -4.612  1.00  0.00     0.164 HD
BRANCH  46  48
ATOM     48  C   UNL     1     -12.353  12.994  -3.192  1.00  0.00     0.196 C 
BRANCH  48  49
ATOM     49  C   UNL     1     -11.243  12.814  -4.242  1.00  0.00     0.072 C 
BRANCH  49  50
ATOM     50  C   UNL     1     -11.730  12.114  -5.490  1.00  0.00    -0.045 A 
ATOM     51  C   UNL     1     -11.580  12.731  -6.741  1.00  0.00     0.007 A 
ATOM     52  C   UNL     1     -12.353  10.862  -5.418  1.00  0.00     0.007 A 
ATOM     53  C   UNL     1     -12.037  12.101  -7.898  1.00  0.00     0.046 A 
ATOM     54  C   UNL     1     -12.812  10.231  -6.577  1.00  0.00     0.046 A 
ATOM     55  C   UNL     1     -12.649  10.856  -7.808  1.00  0.00     0.115 A 
BRANCH  55  56
ATOM     56  O   UNL     1     -13.084  10.275  -8.962  1.00  0.00    -0.508 OA
ATOM     57  H   UNL     1     -13.042  10.936  -9.672  1.00  0.00     0.293 HD
ENDBRANCH  55  56
ENDBRANCH  49  50
ENDBRANCH  48  49
BRANCH  48  58
ATOM     58  C   UNL     1     -11.955  14.102  -2.207  1.00  0.00     0.326 C 
ATOM     59  O   UNL     1     -12.297  15.273  -2.235  1.00  0.00    -0.250 OA
BRANCH  58  60
ATOM     60  O   UNL     1     -11.144  13.672  -1.208  1.00  0.00    -0.480 OA
ATOM     61  H   UNL     1     -11.431  14.208  -0.437  1.00  0.00     0.296 HD
ENDBRANCH  58  60
ENDBRANCH  48  58
ENDBRANCH  46  48
ENDBRANCH  34  44
ENDBRANCH  32  34
ENDBRANCH  25  30
ENDBRANCH  23  25
ENDBRANCH   2  23
TORSDOF 28
ENDMDL
MODEL 41
REMARK VINA RESULT:    -5.562      2.770      6.600
REMARK INTER + INTRA:         -19.935
REMARK INTER:                 -16.243
REMARK INTRA:                  -3.692
REMARK UNBOUND:                -6.081
REMARK SMILES CCCCCCC[C@H](N)[C@H](O)C(=O)N[C@H](C)C(=O)N(C)[C@H](CC(C)C)C(=O)N[C@@H](Cc1ccc(O)cc1)C(=O)N[C@@H](Cc1ccc(O)cc1)C(=O)O
REMARK SMILES IDX 18 1 17 2 15 3 16 4 14 5 12 6 13 7 10 9 11 10 8 12 9 13 7 16
REMARK SMILES IDX 6 17 5 18 4 19 3 20 2 21 1 22 19 23 20 24 21 25 22 26 23 27
REMARK SMILES IDX 24 28 25 29 26 30 27 31 28 32 29 34 30 35 31 36 32 37 37 38
REMARK SMILES IDX 33 39 36 40 34 41 35 42 38 44 39 45 40 46 41 48 42 49 43 50
REMARK SMILES IDX 44 51 49 52 45 53 48 54 46 55 47 56 50 58 51 59 52 60
REMARK H PARENT 14 8 11 11 9 14 9 15 28 33 35 43 40 47 47 57 52 61
ROOT
ATOM      1  O   UNL     1      -3.553  -8.883   0.624  1.00  0.00    -0.272 OA
ATOM      2  C   UNL     1      -3.546  -8.083  -0.323  1.00  0.00     0.245 C 
ENDROOT
BRANCH   2   3
ATOM      3  C   UNL     1      -2.307  -7.174  -0.516  1.00  0.00     0.168 C 
ATOM      4  C   UNL     1      -1.221  -7.898  -1.304  1.00  0.00     0.041 C 
BRANCH   3   5
ATOM      5  N   UNL     1      -2.594  -5.860  -1.072  1.00  0.00    -0.342 N 
ATOM      6  C   UNL     1      -1.696  -4.818  -0.977  1.00  0.00     0.251 C 
ATOM      7  O   UNL     1      -0.622  -4.902  -0.391  1.00  0.00    -0.272 OA
ATOM      8  H   UNL     1      -3.469  -5.660  -1.551  1.00  0.00     0.164 HD
BRANCH   6   9
ATOM      9  C   UNL     1      -2.147  -3.572  -1.755  1.00  0.00     0.219 C 
BRANCH   9  10
ATOM     10  O   UNL     1      -3.147  -3.866  -2.738  1.00  0.00    -0.382 OA
ATOM     11  H   UNL     1      -3.715  -4.535  -2.296  1.00  0.00     0.211 HD
ENDBRANCH   9  10
BRANCH   9  12
ATOM     12  C   UNL     1      -2.605  -2.411  -0.834  1.00  0.00     0.089 C 
BRANCH  12  13
ATOM     13  N   UNL     1      -2.645  -2.908   0.560  1.00  0.00    -0.325 NA
ATOM     14  H   UNL     1      -2.204  -3.829   0.601  1.00  0.00     0.119 HD
ATOM     15  H   UNL     1      -3.619  -3.066   0.828  1.00  0.00     0.119 HD
ENDBRANCH  12  13
BRANCH  12  16
ATOM     16  C   UNL     1      -1.767  -1.112  -0.912  1.00  0.00     0.022 C 
BRANCH  16  17
ATOM     17  C   UNL     1      -1.235  -0.647  -2.275  1.00  0.00     0.002 C 
BRANCH  17  18
ATOM     18  C   UNL     1       0.252  -0.906  -2.508  1.00  0.00     0.000 C 
BRANCH  18  19
ATOM     19  C   UNL     1       0.543  -1.896  -3.643  1.00  0.00    -0.000 C 
BRANCH  19  20
ATOM     20  C   UNL     1       1.858  -2.669  -3.511  1.00  0.00    -0.000 C 
BRANCH  20  21
ATOM     21  C   UNL     1       3.047  -1.772  -3.153  1.00  0.00    -0.003 C 
ATOM     22  C   UNL     1       4.364  -2.521  -3.281  1.00  0.00     0.004 C 
ENDBRANCH  20  21
ENDBRANCH  19  20
ENDBRANCH  18  19
ENDBRANCH  17  18
ENDBRANCH  16  17
ENDBRANCH  12  16
ENDBRANCH   9  12
ENDBRANCH   6   9
ENDBRANCH   3   5
ENDBRANCH   2   3
BRANCH   2  23
ATOM     23  N   UNL     1      -4.579  -8.099  -1.254  1.00  0.00    -0.332 N 
ATOM     24  C   UNL     1      -5.792  -7.300  -1.156  1.00  0.00     0.147 C 
BRANCH  23  25
ATOM     25  C   UNL     1      -4.439  -8.872  -2.519  1.00  0.00     0.174 C 
BRANCH  25  26
ATOM     26  C   UNL     1      -3.829 -10.277  -2.301  1.00  0.00     0.038 C 
BRANCH  26  27
ATOM     27  C   UNL     1      -4.816 -11.439  -2.052  1.00  0.00    -0.015 C 
ATOM     28  C   UNL     1      -4.846 -11.878  -0.589  1.00  0.00     0.007 C 
ATOM     29  C   UNL     1      -6.229 -11.153  -2.556  1.00  0.00     0.007 C 
ENDBRANCH  26  27
ENDBRANCH  25  26
BRANCH  25  30
ATOM     30  C   UNL     1      -3.694  -8.029  -3.579  1.00  0.00     0.243 C 
ATOM     31  O   UNL     1      -3.810  -6.806  -3.635  1.00  0.00    -0.273 OA
ATOM     32  N   UNL     1      -2.906  -8.734  -4.451  1.00  0.00    -0.342 N 
ATOM     33  H   UNL     1      -2.750  -9.726  -4.253  1.00  0.00     0.164 HD
BRANCH  32  34
ATOM     34  C   UNL     1      -2.149  -8.104  -5.536  1.00  0.00     0.175 C 
BRANCH  34  35
ATOM     35  C   UNL     1      -0.746  -8.717  -5.668  1.00  0.00     0.070 C 
BRANCH  35  36
ATOM     36  C   UNL     1       0.351  -7.676  -5.650  1.00  0.00    -0.045 A 
ATOM     37  C   UNL     1       0.804  -7.113  -6.852  1.00  0.00     0.007 A 
ATOM     38  C   UNL     1       0.943  -7.278  -4.445  1.00  0.00     0.007 A 
ATOM     39  C   UNL     1       1.825  -6.162  -6.847  1.00  0.00     0.046 A 
ATOM     40  C   UNL     1       1.967  -6.327  -4.438  1.00  0.00     0.046 A 
ATOM     41  C   UNL     1       2.397  -5.777  -5.641  1.00  0.00     0.115 A 
BRANCH  41  42
ATOM     42  O   UNL     1       3.394  -4.847  -5.679  1.00  0.00    -0.508 OA
ATOM     43  H   UNL     1       3.870  -4.945  -6.521  1.00  0.00     0.293 HD
ENDBRANCH  41  42
ENDBRANCH  35  36
ENDBRANCH  34  35
BRANCH  34  44
ATOM     44  C   UNL     1      -2.968  -8.251  -6.839  1.00  0.00     0.243 C 
ATOM     45  O   UNL     1      -2.480  -8.467  -7.944  1.00  0.00    -0.273 OA
ATOM     46  N   UNL     1      -4.311  -7.985  -6.675  1.00  0.00    -0.341 N 
ATOM     47  H   UNL     1      -4.650  -7.696  -5.761  1.00  0.00     0.164 HD
BRANCH  46  48
ATOM     48  C   UNL     1      -5.274  -7.994  -7.778  1.00  0.00     0.196 C 
BRANCH  48  49
ATOM     49  C   UNL     1      -4.892  -6.973  -8.863  1.00  0.00     0.072 C 
BRANCH  49  50
ATOM     50  C   UNL     1      -6.060  -6.112  -9.289  1.00  0.00    -0.045 A 
ATOM     51  C   UNL     1      -6.656  -5.237  -8.368  1.00  0.00     0.007 A 
ATOM     52  C   UNL     1      -6.575  -6.187 -10.589  1.00  0.00     0.007 A 
ATOM     53  C   UNL     1      -7.742  -4.447  -8.745  1.00  0.00     0.046 A 
ATOM     54  C   UNL     1      -7.663  -5.397 -10.966  1.00  0.00     0.046 A 
ATOM     55  C   UNL     1      -8.237  -4.532 -10.040  1.00  0.00     0.115 A 
BRANCH  55  56
ATOM     56  O   UNL     1      -9.301  -3.745 -10.368  1.00  0.00    -0.508 OA
ATOM     57  H   UNL     1      -9.591  -3.980 -11.264  1.00  0.00     0.293 HD
ENDBRANCH  55  56
ENDBRANCH  49  50
ENDBRANCH  48  49
BRANCH  48  58
ATOM     58  C   UNL     1      -5.321  -9.401  -8.389  1.00  0.00     0.326 C 
ATOM     59  O   UNL     1      -5.826 -10.401  -7.904  1.00  0.00    -0.250 OA
BRANCH  58  60
ATOM     60  O   UNL     1      -4.733  -9.481  -9.609  1.00  0.00    -0.480 OA
ATOM     61  H   UNL     1      -5.427  -9.894 -10.168  1.00  0.00     0.296 HD
ENDBRANCH  58  60
ENDBRANCH  48  58
ENDBRANCH  46  48
ENDBRANCH  34  44
ENDBRANCH  32  34
ENDBRANCH  25  30
ENDBRANCH  23  25
ENDBRANCH   2  23
TORSDOF 28
ENDMDL
MODEL 42
REMARK VINA RESULT:    -5.542      3.029      9.169
REMARK INTER + INTRA:         -19.884
REMARK INTER:                 -16.572
REMARK INTRA:                  -3.312
REMARK UNBOUND:                -6.081
REMARK SMILES CCCCCCC[C@H](N)[C@H](O)C(=O)N[C@H](C)C(=O)N(C)[C@H](CC(C)C)C(=O)N[C@@H](Cc1ccc(O)cc1)C(=O)N[C@@H](Cc1ccc(O)cc1)C(=O)O
REMARK SMILES IDX 18 1 17 2 15 3 16 4 14 5 12 6 13 7 10 9 11 10 8 12 9 13 7 16
REMARK SMILES IDX 6 17 5 18 4 19 3 20 2 21 1 22 19 23 20 24 21 25 22 26 23 27
REMARK SMILES IDX 24 28 25 29 26 30 27 31 28 32 29 34 30 35 31 36 32 37 37 38
REMARK SMILES IDX 33 39 36 40 34 41 35 42 38 44 39 45 40 46 41 48 42 49 43 50
REMARK SMILES IDX 44 51 49 52 45 53 48 54 46 55 47 56 50 58 51 59 52 60
REMARK H PARENT 14 8 11 11 9 14 9 15 28 33 35 43 40 47 47 57 52 61
ROOT
ATOM      1  O   UNL     1      -4.037  -5.227  -3.984  1.00  0.00    -0.272 OA
ATOM      2  C   UNL     1      -4.659  -6.292  -3.852  1.00  0.00     0.245 C 
ENDROOT
BRANCH   2   3
ATOM      3  C   UNL     1      -6.197  -6.277  -4.029  1.00  0.00     0.168 C 
ATOM      4  C   UNL     1      -6.838  -5.231  -3.124  1.00  0.00     0.041 C 
BRANCH   3   5
ATOM      5  N   UNL     1      -6.653  -6.155  -5.405  1.00  0.00    -0.342 N 
ATOM      6  C   UNL     1      -6.740  -4.933  -6.038  1.00  0.00     0.251 C 
ATOM      7  O   UNL     1      -6.486  -3.867  -5.487  1.00  0.00    -0.272 OA
ATOM      8  H   UNL     1      -6.925  -6.968  -5.954  1.00  0.00     0.164 HD
BRANCH   6   9
ATOM      9  C   UNL     1      -7.106  -5.058  -7.525  1.00  0.00     0.219 C 
BRANCH   9  10
ATOM     10  O   UNL     1      -7.727  -3.876  -8.043  1.00  0.00    -0.382 OA
ATOM     11  H   UNL     1      -8.576  -3.826  -7.551  1.00  0.00     0.211 HD
ENDBRANCH   9  10
BRANCH   9  12
ATOM     12  C   UNL     1      -5.907  -5.484  -8.413  1.00  0.00     0.089 C 
BRANCH  12  13
ATOM     13  N   UNL     1      -4.685  -5.490  -7.577  1.00  0.00    -0.325 NA
ATOM     14  H   UNL     1      -4.769  -6.217  -6.864  1.00  0.00     0.119 HD
ATOM     15  H   UNL     1      -4.636  -4.611  -7.057  1.00  0.00     0.119 HD
ENDBRANCH  12  13
BRANCH  12  16
ATOM     16  C   UNL     1      -6.055  -6.838  -9.148  1.00  0.00     0.022 C 
BRANCH  16  17
ATOM     17  C   UNL     1      -4.792  -7.610  -9.553  1.00  0.00     0.002 C 
BRANCH  17  18
ATOM     18  C   UNL     1      -3.926  -6.921 -10.606  1.00  0.00     0.000 C 
BRANCH  18  19
ATOM     19  C   UNL     1      -2.579  -7.612 -10.856  1.00  0.00    -0.000 C 
BRANCH  19  20
ATOM     20  C   UNL     1      -2.671  -9.065 -11.330  1.00  0.00    -0.000 C 
BRANCH  20  21
ATOM     21  C   UNL     1      -1.422  -9.530 -12.083  1.00  0.00    -0.003 C 
ATOM     22  C   UNL     1      -0.236  -8.619 -11.806  1.00  0.00     0.004 C 
ENDBRANCH  20  21
ENDBRANCH  19  20
ENDBRANCH  18  19
ENDBRANCH  17  18
ENDBRANCH  16  17
ENDBRANCH  12  16
ENDBRANCH   9  12
ENDBRANCH   6   9
ENDBRANCH   3   5
ENDBRANCH   2   3
BRANCH   2  23
ATOM     23  N   UNL     1      -3.966  -7.484  -3.671  1.00  0.00    -0.332 N 
ATOM     24  C   UNL     1      -4.396  -8.564  -2.795  1.00  0.00     0.147 C 
BRANCH  23  25
ATOM     25  C   UNL     1      -2.762  -7.786  -4.493  1.00  0.00     0.174 C 
BRANCH  25  26
ATOM     26  C   UNL     1      -2.672  -9.274  -4.905  1.00  0.00     0.038 C 
BRANCH  26  27
ATOM     27  C   UNL     1      -2.217  -9.574  -6.350  1.00  0.00    -0.015 C 
ATOM     28  C   UNL     1      -3.151 -10.550  -7.066  1.00  0.00     0.007 C 
ATOM     29  C   UNL     1      -2.004  -8.319  -7.193  1.00  0.00     0.007 C 
ENDBRANCH  26  27
ENDBRANCH  25  26
BRANCH  25  30
ATOM     30  C   UNL     1      -1.491  -7.256  -3.790  1.00  0.00     0.243 C 
ATOM     31  O   UNL     1      -0.880  -7.928  -2.962  1.00  0.00    -0.273 OA
ATOM     32  N   UNL     1      -1.099  -5.992  -4.147  1.00  0.00    -0.342 N 
ATOM     33  H   UNL     1      -1.574  -5.555  -4.942  1.00  0.00     0.164 HD
BRANCH  32  34
ATOM     34  C   UNL     1       0.065  -5.319  -3.564  1.00  0.00     0.175 C 
BRANCH  34  35
ATOM     35  C   UNL     1       0.649  -4.277  -4.530  1.00  0.00     0.070 C 
BRANCH  35  36
ATOM     36  C   UNL     1       1.900  -3.619  -3.993  1.00  0.00    -0.045 A 
ATOM     37  C   UNL     1       1.881  -2.263  -3.632  1.00  0.00     0.007 A 
ATOM     38  C   UNL     1       3.095  -4.340  -3.869  1.00  0.00     0.007 A 
ATOM     39  C   UNL     1       3.034  -1.644  -3.148  1.00  0.00     0.046 A 
ATOM     40  C   UNL     1       4.251  -3.720  -3.386  1.00  0.00     0.046 A 
ATOM     41  C   UNL     1       4.208  -2.376  -3.029  1.00  0.00     0.115 A 
BRANCH  41  42
ATOM     42  O   UNL     1       5.313  -1.733  -2.555  1.00  0.00    -0.508 OA
ATOM     43  H   UNL     1       5.163  -1.518  -1.620  1.00  0.00     0.293 HD
ENDBRANCH  41  42
ENDBRANCH  35  36
ENDBRANCH  34  35
BRANCH  34  44
ATOM     44  C   UNL     1      -0.370  -4.685  -2.224  1.00  0.00     0.243 C 
ATOM     45  O   UNL     1       0.338  -4.625  -1.223  1.00  0.00    -0.273 OA
ATOM     46  N   UNL     1      -1.694  -4.299  -2.204  1.00  0.00    -0.341 N 
ATOM     47  H   UNL     1      -2.273  -4.476  -3.021  1.00  0.00     0.164 HD
BRANCH  46  48
ATOM     48  C   UNL     1      -2.351  -3.735  -1.022  1.00  0.00     0.196 C 
BRANCH  48  49
ATOM     49  C   UNL     1      -1.831  -4.386   0.271  1.00  0.00     0.072 C 
BRANCH  49  50
ATOM     50  C   UNL     1      -2.574  -5.655   0.622  1.00  0.00    -0.045 A 
ATOM     51  C   UNL     1      -3.639  -5.613   1.533  1.00  0.00     0.007 A 
ATOM     52  C   UNL     1      -2.201  -6.886   0.066  1.00  0.00     0.007 A 
ATOM     53  C   UNL     1      -4.322  -6.780   1.875  1.00  0.00     0.046 A 
ATOM     54  C   UNL     1      -2.884  -8.054   0.409  1.00  0.00     0.046 A 
ATOM     55  C   UNL     1      -3.941  -7.991   1.311  1.00  0.00     0.115 A 
BRANCH  55  56
ATOM     56  O   UNL     1      -4.633  -9.108   1.673  1.00  0.00    -0.508 OA
ATOM     57  H   UNL     1      -5.575  -8.956   1.495  1.00  0.00     0.293 HD
ENDBRANCH  55  56
ENDBRANCH  49  50
ENDBRANCH  48  49
BRANCH  48  58
ATOM     58  C   UNL     1      -2.089  -2.223  -0.979  1.00  0.00     0.326 C 
ATOM     59  O   UNL     1      -2.841  -1.332  -1.339  1.00  0.00    -0.250 OA
BRANCH  58  60
ATOM     60  O   UNL     1      -0.877  -1.898  -0.462  1.00  0.00    -0.480 OA
ATOM     61  H   UNL     1      -0.717  -0.995  -0.812  1.00  0.00     0.296 HD
ENDBRANCH  58  60
ENDBRANCH  48  58
ENDBRANCH  46  48
ENDBRANCH  34  44
ENDBRANCH  32  34
ENDBRANCH  25  30
ENDBRANCH  23  25
ENDBRANCH   2  23
TORSDOF 28
ENDMDL
MODEL 43
REMARK VINA RESULT:    -5.540      3.493     10.332
REMARK INTER + INTRA:         -19.879
REMARK INTER:                 -17.277
REMARK INTRA:                  -2.602
REMARK UNBOUND:                -6.081
REMARK SMILES CCCCCCC[C@H](N)[C@H](O)C(=O)N[C@H](C)C(=O)N(C)[C@H](CC(C)C)C(=O)N[C@@H](Cc1ccc(O)cc1)C(=O)N[C@@H](Cc1ccc(O)cc1)C(=O)O
REMARK SMILES IDX 18 1 17 2 15 3 16 4 14 5 12 6 13 7 10 9 11 10 8 12 9 13 7 16
REMARK SMILES IDX 6 17 5 18 4 19 3 20 2 21 1 22 19 23 20 24 21 25 22 26 23 27
REMARK SMILES IDX 24 28 25 29 26 30 27 31 28 32 29 34 30 35 31 36 32 37 37 38
REMARK SMILES IDX 33 39 36 40 34 41 35 42 38 44 39 45 40 46 41 48 42 49 43 50
REMARK SMILES IDX 44 51 49 52 45 53 48 54 46 55 47 56 50 58 51 59 52 60
REMARK H PARENT 14 8 11 11 9 14 9 15 28 33 35 43 40 47 47 57 52 61
ROOT
ATOM      1  O   UNL     1      -5.259  -5.528  -7.581  1.00  0.00    -0.272 OA
ATOM      2  C   UNL     1      -4.768  -6.456  -8.240  1.00  0.00     0.245 C 
ENDROOT
BRANCH   2   3
ATOM      3  C   UNL     1      -5.562  -7.007  -9.451  1.00  0.00     0.168 C 
ATOM      4  C   UNL     1      -5.302  -8.498  -9.636  1.00  0.00     0.041 C 
BRANCH   3   5
ATOM      5  N   UNL     1      -6.984  -6.701  -9.438  1.00  0.00    -0.342 N 
ATOM      6  C   UNL     1      -7.585  -5.990 -10.456  1.00  0.00     0.251 C 
ATOM      7  O   UNL     1      -6.972  -5.530 -11.413  1.00  0.00    -0.272 OA
ATOM      8  H   UNL     1      -7.590  -7.000  -8.678  1.00  0.00     0.164 HD
BRANCH   6   9
ATOM      9  C   UNL     1      -9.112  -5.911 -10.304  1.00  0.00     0.219 C 
BRANCH   9  10
ATOM     10  O   UNL     1      -9.631  -4.609 -10.604  1.00  0.00    -0.382 OA
ATOM     11  H   UNL     1      -9.001  -4.001 -10.157  1.00  0.00     0.211 HD
ENDBRANCH   9  10
BRANCH   9  12
ATOM     12  C   UNL     1      -9.862  -7.002 -11.112  1.00  0.00     0.089 C 
BRANCH  12  13
ATOM     13  N   UNL     1      -9.294  -8.322 -10.755  1.00  0.00    -0.325 NA
ATOM     14  H   UNL     1      -8.462  -8.184 -10.178  1.00  0.00     0.119 HD
ATOM     15  H   UNL     1      -8.957  -8.778 -11.605  1.00  0.00     0.119 HD
ENDBRANCH  12  13
BRANCH  12  16
ATOM     16  C   UNL     1     -11.401  -7.025 -10.954  1.00  0.00     0.022 C 
BRANCH  16  17
ATOM     17  C   UNL     1     -12.115  -8.374 -10.793  1.00  0.00     0.002 C 
BRANCH  17  18
ATOM     18  C   UNL     1     -12.384  -9.121 -12.098  1.00  0.00     0.000 C 
BRANCH  18  19
ATOM     19  C   UNL     1     -13.192 -10.413 -11.923  1.00  0.00    -0.000 C 
BRANCH  19  20
ATOM     20  C   UNL     1     -12.403 -11.604 -11.370  1.00  0.00    -0.000 C 
BRANCH  20  21
ATOM     21  C   UNL     1     -11.485 -11.225 -10.205  1.00  0.00    -0.003 C 
ATOM     22  C   UNL     1     -10.088 -11.797 -10.391  1.00  0.00     0.004 C 
ENDBRANCH  20  21
ENDBRANCH  19  20
ENDBRANCH  18  19
ENDBRANCH  17  18
ENDBRANCH  16  17
ENDBRANCH  12  16
ENDBRANCH   9  12
ENDBRANCH   6   9
ENDBRANCH   3   5
ENDBRANCH   2   3
BRANCH   2  23
ATOM     23  N   UNL     1      -3.478  -6.899  -7.964  1.00  0.00    -0.332 N 
ATOM     24  C   UNL     1      -2.293  -6.508  -8.712  1.00  0.00     0.147 C 
BRANCH  23  25
ATOM     25  C   UNL     1      -3.213  -7.732  -6.759  1.00  0.00     0.174 C 
BRANCH  25  26
ATOM     26  C   UNL     1      -4.438  -8.569  -6.324  1.00  0.00     0.038 C 
BRANCH  26  27
ATOM     27  C   UNL     1      -4.154  -9.885  -5.566  1.00  0.00    -0.015 C 
ATOM     28  C   UNL     1      -2.968 -10.652  -6.152  1.00  0.00     0.007 C 
ATOM     29  C   UNL     1      -3.980  -9.695  -4.062  1.00  0.00     0.007 C 
ENDBRANCH  26  27
ENDBRANCH  25  26
BRANCH  25  30
ATOM     30  C   UNL     1      -2.622  -6.860  -5.628  1.00  0.00     0.243 C 
ATOM     31  O   UNL     1      -3.257  -5.937  -5.120  1.00  0.00    -0.273 OA
ATOM     32  N   UNL     1      -1.347  -7.179  -5.237  1.00  0.00    -0.342 N 
ATOM     33  H   UNL     1      -0.941  -8.043  -5.605  1.00  0.00     0.164 HD
BRANCH  32  34
ATOM     34  C   UNL     1      -0.619  -6.444  -4.199  1.00  0.00     0.175 C 
BRANCH  34  35
ATOM     35  C   UNL     1      -0.510  -7.265  -2.905  1.00  0.00     0.070 C 
BRANCH  35  36
ATOM     36  C   UNL     1      -1.333  -6.689  -1.775  1.00  0.00    -0.045 A 
ATOM     37  C   UNL     1      -2.284  -7.487  -1.122  1.00  0.00     0.007 A 
ATOM     38  C   UNL     1      -1.178  -5.353  -1.381  1.00  0.00     0.007 A 
ATOM     39  C   UNL     1      -3.058  -6.960  -0.088  1.00  0.00     0.046 A 
ATOM     40  C   UNL     1      -1.953  -4.824  -0.347  1.00  0.00     0.046 A 
ATOM     41  C   UNL     1      -2.886  -5.634   0.292  1.00  0.00     0.115 A 
BRANCH  41  42
ATOM     42  O   UNL     1      -3.665  -5.157   1.305  1.00  0.00    -0.508 OA
ATOM     43  H   UNL     1      -3.084  -4.758   1.974  1.00  0.00     0.293 HD
ENDBRANCH  41  42
ENDBRANCH  35  36
ENDBRANCH  34  35
BRANCH  34  44
ATOM     44  C   UNL     1       0.769  -6.068  -4.763  1.00  0.00     0.243 C 
ATOM     45  O   UNL     1       1.200  -6.440  -5.851  1.00  0.00    -0.273 OA
ATOM     46  N   UNL     1       1.554  -5.370  -3.870  1.00  0.00    -0.341 N 
ATOM     47  H   UNL     1       1.196  -5.187  -2.936  1.00  0.00     0.164 HD
BRANCH  46  48
ATOM     48  C   UNL     1       2.933  -4.964  -4.154  1.00  0.00     0.196 C 
BRANCH  48  49
ATOM     49  C   UNL     1       3.277  -3.632  -3.467  1.00  0.00     0.072 C 
BRANCH  49  50
ATOM     50  C   UNL     1       3.670  -2.554  -4.451  1.00  0.00    -0.045 A 
ATOM     51  C   UNL     1       4.970  -2.029  -4.431  1.00  0.00     0.007 A 
ATOM     52  C   UNL     1       2.746  -2.051  -5.376  1.00  0.00     0.007 A 
ATOM     53  C   UNL     1       5.340  -1.025  -5.326  1.00  0.00     0.046 A 
ATOM     54  C   UNL     1       3.116  -1.045  -6.271  1.00  0.00     0.046 A 
ATOM     55  C   UNL     1       4.412  -0.541  -6.239  1.00  0.00     0.115 A 
BRANCH  55  56
ATOM     56  O   UNL     1       4.812   0.442  -7.095  1.00  0.00    -0.508 OA
ATOM     57  H   UNL     1       5.218   0.025  -7.871  1.00  0.00     0.293 HD
ENDBRANCH  55  56
ENDBRANCH  49  50
ENDBRANCH  48  49
BRANCH  48  58
ATOM     58  C   UNL     1       3.888  -6.060  -3.661  1.00  0.00     0.326 C 
ATOM     59  O   UNL     1       4.360  -6.977  -4.313  1.00  0.00    -0.250 OA
BRANCH  58  60
ATOM     60  O   UNL     1       4.221  -5.938  -2.352  1.00  0.00    -0.480 OA
ATOM     61  H   UNL     1       4.924  -6.614  -2.234  1.00  0.00     0.296 HD
ENDBRANCH  58  60
ENDBRANCH  48  58
ENDBRANCH  46  48
ENDBRANCH  34  44
ENDBRANCH  32  34
ENDBRANCH  25  30
ENDBRANCH  23  25
ENDBRANCH   2  23
TORSDOF 28
ENDMDL
MODEL 44
REMARK VINA RESULT:    -5.534      2.303      6.380
REMARK INTER + INTRA:         -19.863
REMARK INTER:                 -16.605
REMARK INTRA:                  -3.258
REMARK UNBOUND:                -6.081
REMARK SMILES CCCCCCC[C@H](N)[C@H](O)C(=O)N[C@H](C)C(=O)N(C)[C@H](CC(C)C)C(=O)N[C@@H](Cc1ccc(O)cc1)C(=O)N[C@@H](Cc1ccc(O)cc1)C(=O)O
REMARK SMILES IDX 18 1 17 2 15 3 16 4 14 5 12 6 13 7 10 9 11 10 8 12 9 13 7 16
REMARK SMILES IDX 6 17 5 18 4 19 3 20 2 21 1 22 19 23 20 24 21 25 22 26 23 27
REMARK SMILES IDX 24 28 25 29 26 30 27 31 28 32 29 34 30 35 31 36 32 37 37 38
REMARK SMILES IDX 33 39 36 40 34 41 35 42 38 44 39 45 40 46 41 48 42 49 43 50
REMARK SMILES IDX 44 51 49 52 45 53 48 54 46 55 47 56 50 58 51 59 52 60
REMARK H PARENT 14 8 11 11 9 14 9 15 28 33 35 43 40 47 47 57 52 61
ROOT
ATOM      1  O   UNL     1       1.850  -5.362  -6.831  1.00  0.00    -0.272 OA
ATOM      2  C   UNL     1       2.339  -5.849  -5.801  1.00  0.00     0.245 C 
ENDROOT
BRANCH   2   3
ATOM      3  C   UNL     1       3.859  -5.684  -5.553  1.00  0.00     0.168 C 
ATOM      4  C   UNL     1       4.655  -6.062  -6.797  1.00  0.00     0.041 C 
BRANCH   3   5
ATOM      5  N   UNL     1       4.255  -4.386  -5.029  1.00  0.00    -0.342 N 
ATOM      6  C   UNL     1       4.458  -3.300  -5.854  1.00  0.00     0.251 C 
ATOM      7  O   UNL     1       4.364  -3.351  -7.075  1.00  0.00    -0.272 OA
ATOM      8  H   UNL     1       4.399  -4.230  -4.034  1.00  0.00     0.164 HD
BRANCH   6   9
ATOM      9  C   UNL     1       4.730  -2.004  -5.073  1.00  0.00     0.219 C 
BRANCH   9  10
ATOM     10  O   UNL     1       5.970  -1.387  -5.440  1.00  0.00    -0.382 OA
ATOM     11  H   UNL     1       6.275  -1.921  -6.207  1.00  0.00     0.211 HD
ENDBRANCH   9  10
BRANCH   9  12
ATOM     12  C   UNL     1       3.563  -0.986  -5.158  1.00  0.00     0.089 C 
BRANCH  12  13
ATOM     13  N   UNL     1       3.357  -0.628  -6.580  1.00  0.00    -0.325 NA
ATOM     14  H   UNL     1       3.281   0.388  -6.663  1.00  0.00     0.119 HD
ATOM     15  H   UNL     1       2.450  -0.989  -6.884  1.00  0.00     0.119 HD
ENDBRANCH  12  13
BRANCH  12  16
ATOM     16  C   UNL     1       2.224  -1.435  -4.523  1.00  0.00     0.022 C 
BRANCH  16  17
ATOM     17  C   UNL     1       2.129  -1.571  -2.997  1.00  0.00     0.002 C 
BRANCH  17  18
ATOM     18  C   UNL     1       0.818  -2.161  -2.483  1.00  0.00     0.000 C 
BRANCH  18  19
ATOM     19  C   UNL     1      -0.430  -1.629  -3.201  1.00  0.00    -0.000 C 
BRANCH  19  20
ATOM     20  C   UNL     1      -1.288  -0.661  -2.381  1.00  0.00    -0.000 C 
BRANCH  20  21
ATOM     21  C   UNL     1      -1.265  -0.962  -0.880  1.00  0.00    -0.003 C 
ATOM     22  C   UNL     1      -2.669  -0.992  -0.299  1.00  0.00     0.004 C 
ENDBRANCH  20  21
ENDBRANCH  19  20
ENDBRANCH  18  19
ENDBRANCH  17  18
ENDBRANCH  16  17
ENDBRANCH  12  16
ENDBRANCH   9  12
ENDBRANCH   6   9
ENDBRANCH   3   5
ENDBRANCH   2   3
BRANCH   2  23
ATOM     23  N   UNL     1       1.511  -6.420  -4.840  1.00  0.00    -0.332 N 
ATOM     24  C   UNL     1       0.959  -5.708  -3.697  1.00  0.00     0.147 C 
BRANCH  23  25
ATOM     25  C   UNL     1       1.021  -7.816  -5.004  1.00  0.00     0.174 C 
BRANCH  25  26
ATOM     26  C   UNL     1       1.753  -8.582  -6.131  1.00  0.00     0.038 C 
BRANCH  26  27
ATOM     27  C   UNL     1       2.512  -9.866  -5.726  1.00  0.00    -0.015 C 
ATOM     28  C   UNL     1       2.976 -10.677  -6.936  1.00  0.00     0.007 C 
ATOM     29  C   UNL     1       3.677  -9.608  -4.773  1.00  0.00     0.007 C 
ENDBRANCH  26  27
ENDBRANCH  25  26
BRANCH  25  30
ATOM     30  C   UNL     1      -0.518  -7.827  -5.144  1.00  0.00     0.243 C 
ATOM     31  O   UNL     1      -1.231  -8.523  -4.422  1.00  0.00    -0.273 OA
ATOM     32  N   UNL     1      -1.031  -7.019  -6.125  1.00  0.00    -0.342 N 
ATOM     33  H   UNL     1      -0.390  -6.368  -6.586  1.00  0.00     0.164 HD
BRANCH  32  34
ATOM     34  C   UNL     1      -2.464  -6.923  -6.418  1.00  0.00     0.175 C 
BRANCH  34  35
ATOM     35  C   UNL     1      -2.944  -8.120  -7.254  1.00  0.00     0.070 C 
BRANCH  35  36
ATOM     36  C   UNL     1      -2.189  -8.264  -8.556  1.00  0.00    -0.045 A 
ATOM     37  C   UNL     1      -2.413  -7.355  -9.602  1.00  0.00     0.007 A 
ATOM     38  C   UNL     1      -1.279  -9.312  -8.748  1.00  0.00     0.007 A 
ATOM     39  C   UNL     1      -1.732  -7.488 -10.812  1.00  0.00     0.046 A 
ATOM     40  C   UNL     1      -0.598  -9.447  -9.960  1.00  0.00     0.046 A 
ATOM     41  C   UNL     1      -0.830  -8.532 -10.981  1.00  0.00     0.115 A 
BRANCH  41  42
ATOM     42  O   UNL     1      -0.187  -8.628 -12.180  1.00  0.00    -0.508 OA
ATOM     43  H   UNL     1       0.234  -7.773 -12.369  1.00  0.00     0.293 HD
ENDBRANCH  41  42
ENDBRANCH  35  36
ENDBRANCH  34  35
BRANCH  34  44
ATOM     44  C   UNL     1      -3.221  -6.815  -5.076  1.00  0.00     0.243 C 
ATOM     45  O   UNL     1      -4.210  -7.481  -4.782  1.00  0.00    -0.273 OA
ATOM     46  N   UNL     1      -2.762  -5.797  -4.267  1.00  0.00    -0.341 N 
ATOM     47  H   UNL     1      -2.014  -5.197  -4.605  1.00  0.00     0.164 HD
BRANCH  46  48
ATOM     48  C   UNL     1      -3.366  -5.459  -2.977  1.00  0.00     0.196 C 
BRANCH  48  49
ATOM     49  C   UNL     1      -2.318  -4.911  -1.994  1.00  0.00     0.072 C 
BRANCH  49  50
ATOM     50  C   UNL     1      -2.635  -5.250  -0.555  1.00  0.00    -0.045 A 
ATOM     51  C   UNL     1      -3.324  -6.433  -0.252  1.00  0.00     0.007 A 
ATOM     52  C   UNL     1      -2.270  -4.388   0.486  1.00  0.00     0.007 A 
ATOM     53  C   UNL     1      -3.634  -6.751   1.071  1.00  0.00     0.046 A 
ATOM     54  C   UNL     1      -2.581  -4.705   1.810  1.00  0.00     0.046 A 
ATOM     55  C   UNL     1      -3.260  -5.885   2.091  1.00  0.00     0.115 A 
BRANCH  55  56
ATOM     56  O   UNL     1      -3.584  -6.231   3.370  1.00  0.00    -0.508 OA
ATOM     57  H   UNL     1      -4.218  -6.965   3.337  1.00  0.00     0.293 HD
ENDBRANCH  55  56
ENDBRANCH  49  50
ENDBRANCH  48  49
BRANCH  48  58
ATOM     58  C   UNL     1      -4.462  -4.408  -3.199  1.00  0.00     0.326 C 
ATOM     59  O   UNL     1      -5.522  -4.557  -3.786  1.00  0.00    -0.250 OA
BRANCH  58  60
ATOM     60  O   UNL     1      -4.174  -3.201  -2.650  1.00  0.00    -0.480 OA
ATOM     61  H   UNL     1      -4.206  -3.378  -1.685  1.00  0.00     0.296 HD
ENDBRANCH  58  60
ENDBRANCH  48  58
ENDBRANCH  46  48
ENDBRANCH  34  44
ENDBRANCH  32  34
ENDBRANCH  25  30
ENDBRANCH  23  25
ENDBRANCH   2  23
TORSDOF 28
ENDMDL
MODEL 45
REMARK VINA RESULT:    -5.517      2.638      6.817
REMARK INTER + INTRA:         -19.823
REMARK INTER:                 -15.510
REMARK INTRA:                  -4.313
REMARK UNBOUND:                -6.081
REMARK SMILES CCCCCCC[C@H](N)[C@H](O)C(=O)N[C@H](C)C(=O)N(C)[C@H](CC(C)C)C(=O)N[C@@H](Cc1ccc(O)cc1)C(=O)N[C@@H](Cc1ccc(O)cc1)C(=O)O
REMARK SMILES IDX 18 1 17 2 15 3 16 4 14 5 12 6 13 7 10 9 11 10 8 12 9 13 7 16
REMARK SMILES IDX 6 17 5 18 4 19 3 20 2 21 1 22 19 23 20 24 21 25 22 26 23 27
REMARK SMILES IDX 24 28 25 29 26 30 27 31 28 32 29 34 30 35 31 36 32 37 37 38
REMARK SMILES IDX 33 39 36 40 34 41 35 42 38 44 39 45 40 46 41 48 42 49 43 50
REMARK SMILES IDX 44 51 49 52 45 53 48 54 46 55 47 56 50 58 51 59 52 60
REMARK H PARENT 14 8 11 11 9 14 9 15 28 33 35 43 40 47 47 57 52 61
ROOT
ATOM      1  O   UNL     1      -5.028  -8.259  -0.546  1.00  0.00    -0.272 OA
ATOM      2  C   UNL     1      -4.463  -7.354  -1.178  1.00  0.00     0.245 C 
ENDROOT
BRANCH   2   3
ATOM      3  C   UNL     1      -3.165  -6.742  -0.595  1.00  0.00     0.168 C 
ATOM      4  C   UNL     1      -1.970  -7.651  -0.862  1.00  0.00     0.041 C 
BRANCH   3   5
ATOM      5  N   UNL     1      -2.902  -5.369  -0.997  1.00  0.00    -0.342 N 
ATOM      6  C   UNL     1      -2.244  -4.482  -0.171  1.00  0.00     0.251 C 
ATOM      7  O   UNL     1      -1.872  -4.763   0.963  1.00  0.00    -0.272 OA
ATOM      8  H   UNL     1      -3.195  -5.010  -1.902  1.00  0.00     0.164 HD
BRANCH   6   9
ATOM      9  C   UNL     1      -1.952  -3.137  -0.856  1.00  0.00     0.219 C 
BRANCH   9  10
ATOM     10  O   UNL     1      -2.276  -2.014  -0.027  1.00  0.00    -0.382 OA
ATOM     11  H   UNL     1      -1.914  -1.248  -0.525  1.00  0.00     0.211 HD
ENDBRANCH   9  10
BRANCH   9  12
ATOM     12  C   UNL     1      -0.500  -3.028  -1.389  1.00  0.00     0.089 C 
BRANCH  12  13
ATOM     13  N   UNL     1       0.060  -4.394  -1.503  1.00  0.00    -0.325 NA
ATOM     14  H   UNL     1       0.176  -4.788  -0.568  1.00  0.00     0.119 HD
ATOM     15  H   UNL     1       1.007  -4.333  -1.886  1.00  0.00     0.119 HD
ENDBRANCH  12  13
BRANCH  12  16
ATOM     16  C   UNL     1      -0.324  -2.268  -2.726  1.00  0.00     0.022 C 
BRANCH  16  17
ATOM     17  C   UNL     1       0.309  -0.870  -2.712  1.00  0.00     0.002 C 
BRANCH  17  18
ATOM     18  C   UNL     1       1.815  -0.841  -2.963  1.00  0.00     0.000 C 
BRANCH  18  19
ATOM     19  C   UNL     1       2.292  -1.848  -4.018  1.00  0.00    -0.000 C 
BRANCH  19  20
ATOM     20  C   UNL     1       3.056  -1.241  -5.197  1.00  0.00    -0.000 C 
BRANCH  20  21
ATOM     21  C   UNL     1       4.560  -1.522  -5.146  1.00  0.00    -0.003 C 
ATOM     22  C   UNL     1       5.213  -1.295  -6.501  1.00  0.00     0.004 C 
ENDBRANCH  20  21
ENDBRANCH  19  20
ENDBRANCH  18  19
ENDBRANCH  17  18
ENDBRANCH  16  17
ENDBRANCH  12  16
ENDBRANCH   9  12
ENDBRANCH   6   9
ENDBRANCH   3   5
ENDBRANCH   2   3
BRANCH   2  23
ATOM     23  N   UNL     1      -4.924  -6.993  -2.440  1.00  0.00    -0.332 N 
ATOM     24  C   UNL     1      -5.854  -5.904  -2.698  1.00  0.00     0.147 C 
BRANCH  23  25
ATOM     25  C   UNL     1      -4.372  -7.648  -3.657  1.00  0.00     0.174 C 
BRANCH  25  26
ATOM     26  C   UNL     1      -4.172  -9.172  -3.483  1.00  0.00     0.038 C 
BRANCH  26  27
ATOM     27  C   UNL     1      -5.377 -10.079  -3.816  1.00  0.00    -0.015 C 
ATOM     28  C   UNL     1      -6.404  -9.382  -4.709  1.00  0.00     0.007 C 
ATOM     29  C   UNL     1      -4.977 -11.428  -4.409  1.00  0.00     0.007 C 
ENDBRANCH  26  27
ENDBRANCH  25  26
BRANCH  25  30
ATOM     30  C   UNL     1      -3.102  -6.905  -4.132  1.00  0.00     0.243 C 
ATOM     31  O   UNL     1      -3.049  -5.677  -4.183  1.00  0.00    -0.273 OA
ATOM     32  N   UNL     1      -2.048  -7.703  -4.495  1.00  0.00    -0.342 N 
ATOM     33  H   UNL     1      -2.119  -8.703  -4.291  1.00  0.00     0.164 HD
BRANCH  32  34
ATOM     34  C   UNL     1      -0.776  -7.173  -4.994  1.00  0.00     0.175 C 
BRANCH  34  35
ATOM     35  C   UNL     1       0.366  -7.434  -4.001  1.00  0.00     0.070 C 
BRANCH  35  36
ATOM     36  C   UNL     1       1.671  -6.803  -4.431  1.00  0.00    -0.045 A 
ATOM     37  C   UNL     1       1.675  -5.525  -5.010  1.00  0.00     0.007 A 
ATOM     38  C   UNL     1       2.884  -7.488  -4.282  1.00  0.00     0.007 A 
ATOM     39  C   UNL     1       2.873  -4.940  -5.423  1.00  0.00     0.046 A 
ATOM     40  C   UNL     1       4.084  -6.903  -4.697  1.00  0.00     0.046 A 
ATOM     41  C   UNL     1       4.067  -5.633  -5.263  1.00  0.00     0.115 A 
BRANCH  41  42
ATOM     42  O   UNL     1       5.214  -5.027  -5.682  1.00  0.00    -0.508 OA
ATOM     43  H   UNL     1       5.443  -5.382  -6.558  1.00  0.00     0.293 HD
ENDBRANCH  41  42
ENDBRANCH  35  36
ENDBRANCH  34  35
BRANCH  34  44
ATOM     44  C   UNL     1      -0.500  -7.813  -6.373  1.00  0.00     0.243 C 
ATOM     45  O   UNL     1       0.049  -8.900  -6.537  1.00  0.00    -0.273 OA
ATOM     46  N   UNL     1      -0.810  -6.988  -7.434  1.00  0.00    -0.341 N 
ATOM     47  H   UNL     1      -1.154  -6.050  -7.245  1.00  0.00     0.164 HD
BRANCH  46  48
ATOM     48  C   UNL     1      -0.572  -7.349  -8.833  1.00  0.00     0.196 C 
BRANCH  48  49
ATOM     49  C   UNL     1      -1.592  -6.676  -9.766  1.00  0.00     0.072 C 
BRANCH  49  50
ATOM     50  C   UNL     1      -2.516  -7.670 -10.433  1.00  0.00    -0.045 A 
ATOM     51  C   UNL     1      -1.980  -8.742 -11.162  1.00  0.00     0.007 A 
ATOM     52  C   UNL     1      -3.907  -7.528 -10.353  1.00  0.00     0.007 A 
ATOM     53  C   UNL     1      -2.822  -9.658 -11.793  1.00  0.00     0.046 A 
ATOM     54  C   UNL     1      -4.750  -8.444 -10.985  1.00  0.00     0.046 A 
ATOM     55  C   UNL     1      -4.200  -9.503 -11.699  1.00  0.00     0.115 A 
BRANCH  55  56
ATOM     56  O   UNL     1      -4.988 -10.418 -12.331  1.00  0.00    -0.508 OA
ATOM     57  H   UNL     1      -4.710 -11.306 -12.053  1.00  0.00     0.293 HD
ENDBRANCH  55  56
ENDBRANCH  49  50
ENDBRANCH  48  49
BRANCH  48  58
ATOM     58  C   UNL     1       0.848  -6.919  -9.225  1.00  0.00     0.326 C 
ATOM     59  O   UNL     1       1.653  -7.548  -9.892  1.00  0.00    -0.250 OA
BRANCH  58  60
ATOM     60  O   UNL     1       1.188  -5.689  -8.763  1.00  0.00    -0.480 OA
ATOM     61  H   UNL     1       0.525  -5.099  -9.184  1.00  0.00     0.296 HD
ENDBRANCH  58  60
ENDBRANCH  48  58
ENDBRANCH  46  48
ENDBRANCH  34  44
ENDBRANCH  32  34
ENDBRANCH  25  30
ENDBRANCH  23  25
ENDBRANCH   2  23
TORSDOF 28
ENDMDL
MODEL 46
REMARK VINA RESULT:    -5.449      2.458      6.357
REMARK INTER + INTRA:         -19.653
REMARK INTER:                 -14.731
REMARK INTRA:                  -4.922
REMARK UNBOUND:                -6.081
REMARK SMILES CCCCCCC[C@H](N)[C@H](O)C(=O)N[C@H](C)C(=O)N(C)[C@H](CC(C)C)C(=O)N[C@@H](Cc1ccc(O)cc1)C(=O)N[C@@H](Cc1ccc(O)cc1)C(=O)O
REMARK SMILES IDX 18 1 17 2 15 3 16 4 14 5 12 6 13 7 10 9 11 10 8 12 9 13 7 16
REMARK SMILES IDX 6 17 5 18 4 19 3 20 2 21 1 22 19 23 20 24 21 25 22 26 23 27
REMARK SMILES IDX 24 28 25 29 26 30 27 31 28 32 29 34 30 35 31 36 32 37 37 38
REMARK SMILES IDX 33 39 36 40 34 41 35 42 38 44 39 45 40 46 41 48 42 49 43 50
REMARK SMILES IDX 44 51 49 52 45 53 48 54 46 55 47 56 50 58 51 59 52 60
REMARK H PARENT 14 8 11 11 9 14 9 15 28 33 35 43 40 47 47 57 52 61
ROOT
ATOM      1  O   UNL     1      -4.741  -6.856  -0.400  1.00  0.00    -0.272 OA
ATOM      2  C   UNL     1      -4.123  -6.295  -1.317  1.00  0.00     0.245 C 
ENDROOT
BRANCH   2   3
ATOM      3  C   UNL     1      -2.684  -5.792  -1.041  1.00  0.00     0.168 C 
ATOM      4  C   UNL     1      -1.693  -6.951  -1.057  1.00  0.00     0.041 C 
BRANCH   3   5
ATOM      5  N   UNL     1      -2.248  -4.694  -1.889  1.00  0.00    -0.342 N 
ATOM      6  C   UNL     1      -2.053  -3.423  -1.391  1.00  0.00     0.251 C 
ATOM      7  O   UNL     1      -2.269  -3.113  -0.224  1.00  0.00    -0.272 OA
ATOM      8  H   UNL     1      -2.070  -4.821  -2.882  1.00  0.00     0.164 HD
BRANCH   6   9
ATOM      9  C   UNL     1      -1.456  -2.462  -2.432  1.00  0.00     0.219 C 
BRANCH   9  10
ATOM     10  O   UNL     1      -2.025  -1.149  -2.361  1.00  0.00    -0.382 OA
ATOM     11  H   UNL     1      -2.597  -1.187  -1.563  1.00  0.00     0.211 HD
ENDBRANCH   9  10
BRANCH   9  12
ATOM     12  C   UNL     1       0.092  -2.395  -2.382  1.00  0.00     0.089 C 
BRANCH  12  13
ATOM     13  N   UNL     1       0.605  -3.724  -1.978  1.00  0.00    -0.325 NA
ATOM     14  H   UNL     1       1.035  -3.652  -1.054  1.00  0.00     0.119 HD
ATOM     15  H   UNL     1       1.366  -3.990  -2.607  1.00  0.00     0.119 HD
ENDBRANCH  12  13
BRANCH  12  16
ATOM     16  C   UNL     1       0.793  -1.926  -3.679  1.00  0.00     0.022 C 
BRANCH  16  17
ATOM     17  C   UNL     1       2.030  -1.023  -3.576  1.00  0.00     0.002 C 
BRANCH  17  18
ATOM     18  C   UNL     1       3.352  -1.761  -3.379  1.00  0.00     0.000 C 
BRANCH  18  19
ATOM     19  C   UNL     1       3.439  -3.098  -4.127  1.00  0.00    -0.000 C 
BRANCH  19  20
ATOM     20  C   UNL     1       4.397  -4.124  -3.515  1.00  0.00    -0.000 C 
BRANCH  20  21
ATOM     21  C   UNL     1       3.691  -5.401  -3.050  1.00  0.00    -0.003 C 
ATOM     22  C   UNL     1       4.691  -6.480  -2.666  1.00  0.00     0.004 C 
ENDBRANCH  20  21
ENDBRANCH  19  20
ENDBRANCH  18  19
ENDBRANCH  17  18
ENDBRANCH  16  17
ENDBRANCH  12  16
ENDBRANCH   9  12
ENDBRANCH   6   9
ENDBRANCH   3   5
ENDBRANCH   2   3
BRANCH   2  23
ATOM     23  N   UNL     1      -4.674  -6.235  -2.592  1.00  0.00    -0.332 N 
ATOM     24  C   UNL     1      -5.507  -5.147  -3.082  1.00  0.00     0.147 C 
BRANCH  23  25
ATOM     25  C   UNL     1      -4.324  -7.263  -3.611  1.00  0.00     0.174 C 
BRANCH  25  26
ATOM     26  C   UNL     1      -4.167  -8.679  -3.008  1.00  0.00     0.038 C 
BRANCH  26  27
ATOM     27  C   UNL     1      -5.402  -9.605  -3.064  1.00  0.00    -0.015 C 
ATOM     28  C   UNL     1      -5.947  -9.938  -1.675  1.00  0.00     0.007 C 
ATOM     29  C   UNL     1      -6.516  -9.078  -3.965  1.00  0.00     0.007 C 
ENDBRANCH  26  27
ENDBRANCH  25  26
BRANCH  25  30
ATOM     30  C   UNL     1      -3.101  -6.800  -4.436  1.00  0.00     0.243 C 
ATOM     31  O   UNL     1      -2.840  -5.609  -4.598  1.00  0.00    -0.273 OA
ATOM     32  N   UNL     1      -2.336  -7.801  -4.976  1.00  0.00    -0.342 N 
ATOM     33  H   UNL     1      -2.534  -8.761  -4.680  1.00  0.00     0.164 HD
BRANCH  32  34
ATOM     34  C   UNL     1      -1.157  -7.549  -5.809  1.00  0.00     0.175 C 
BRANCH  34  35
ATOM     35  C   UNL     1       0.096  -8.215  -5.219  1.00  0.00     0.070 C 
BRANCH  35  36
ATOM     36  C   UNL     1       1.378  -7.559  -5.680  1.00  0.00    -0.045 A 
ATOM     37  C   UNL     1       1.363  -6.234  -6.139  1.00  0.00     0.007 A 
ATOM     38  C   UNL     1       2.588  -8.266  -5.677  1.00  0.00     0.007 A 
ATOM     39  C   UNL     1       2.538  -5.624  -6.578  1.00  0.00     0.046 A 
ATOM     40  C   UNL     1       3.765  -7.657  -6.118  1.00  0.00     0.046 A 
ATOM     41  C   UNL     1       3.730  -6.340  -6.564  1.00  0.00     0.115 A 
BRANCH  41  42
ATOM     42  O   UNL     1       4.855  -5.709  -7.004  1.00  0.00    -0.508 OA
ATOM     43  H   UNL     1       5.524  -6.385  -7.205  1.00  0.00     0.293 HD
ENDBRANCH  41  42
ENDBRANCH  35  36
ENDBRANCH  34  35
BRANCH  34  44
ATOM     44  C   UNL     1      -1.462  -8.054  -7.237  1.00  0.00     0.243 C 
ATOM     45  O   UNL     1      -1.323  -9.216  -7.606  1.00  0.00    -0.273 OA
ATOM     46  N   UNL     1      -1.789  -7.045  -8.118  1.00  0.00    -0.341 N 
ATOM     47  H   UNL     1      -1.778  -6.081  -7.791  1.00  0.00     0.164 HD
BRANCH  46  48
ATOM     48  C   UNL     1      -2.053  -7.271  -9.540  1.00  0.00     0.196 C 
BRANCH  48  49
ATOM     49  C   UNL     1      -3.008  -6.207 -10.109  1.00  0.00     0.072 C 
BRANCH  49  50
ATOM     50  C   UNL     1      -4.438  -6.691 -10.186  1.00  0.00    -0.045 A 
ATOM     51  C   UNL     1      -4.711  -8.001 -10.607  1.00  0.00     0.007 A 
ATOM     52  C   UNL     1      -5.504  -5.842  -9.864  1.00  0.00     0.007 A 
ATOM     53  C   UNL     1      -6.027  -8.454 -10.695  1.00  0.00     0.046 A 
ATOM     54  C   UNL     1      -6.823  -6.296  -9.953  1.00  0.00     0.046 A 
ATOM     55  C   UNL     1      -7.073  -7.599 -10.367  1.00  0.00     0.115 A 
BRANCH  55  56
ATOM     56  O   UNL     1      -8.344  -8.080 -10.469  1.00  0.00    -0.508 OA
ATOM     57  H   UNL     1      -8.730  -8.115  -9.579  1.00  0.00     0.293 HD
ENDBRANCH  55  56
ENDBRANCH  49  50
ENDBRANCH  48  49
BRANCH  48  58
ATOM     58  C   UNL     1      -0.724  -7.232 -10.307  1.00  0.00     0.326 C 
ATOM     59  O   UNL     1      -0.478  -7.748 -11.385  1.00  0.00    -0.250 OA
BRANCH  58  60
ATOM     60  O   UNL     1       0.245  -6.522  -9.676  1.00  0.00    -0.480 OA
ATOM     61  H   UNL     1      -0.139  -5.620  -9.616  1.00  0.00     0.296 HD
ENDBRANCH  58  60
ENDBRANCH  48  58
ENDBRANCH  46  48
ENDBRANCH  34  44
ENDBRANCH  32  34
ENDBRANCH  25  30
ENDBRANCH  23  25
ENDBRANCH   2  23
TORSDOF 28
ENDMDL
MODEL 47
REMARK VINA RESULT:    -5.384      2.332      7.968
REMARK INTER + INTRA:         -19.491
REMARK INTER:                 -16.635
REMARK INTRA:                  -2.856
REMARK UNBOUND:                -6.081
REMARK SMILES CCCCCCC[C@H](N)[C@H](O)C(=O)N[C@H](C)C(=O)N(C)[C@H](CC(C)C)C(=O)N[C@@H](Cc1ccc(O)cc1)C(=O)N[C@@H](Cc1ccc(O)cc1)C(=O)O
REMARK SMILES IDX 18 1 17 2 15 3 16 4 14 5 12 6 13 7 10 9 11 10 8 12 9 13 7 16
REMARK SMILES IDX 6 17 5 18 4 19 3 20 2 21 1 22 19 23 20 24 21 25 22 26 23 27
REMARK SMILES IDX 24 28 25 29 26 30 27 31 28 32 29 34 30 35 31 36 32 37 37 38
REMARK SMILES IDX 33 39 36 40 34 41 35 42 38 44 39 45 40 46 41 48 42 49 43 50
REMARK SMILES IDX 44 51 49 52 45 53 48 54 46 55 47 56 50 58 51 59 52 60
REMARK H PARENT 14 8 11 11 9 14 9 15 28 33 35 43 40 47 47 57 52 61
ROOT
ATOM      1  O   UNL     1      -3.245  -9.187  -3.931  1.00  0.00    -0.272 OA
ATOM      2  C   UNL     1      -2.906  -8.072  -3.507  1.00  0.00     0.245 C 
ENDROOT
BRANCH   2   3
ATOM      3  C   UNL     1      -2.117  -7.993  -2.176  1.00  0.00     0.168 C 
ATOM      4  C   UNL     1      -0.670  -7.585  -2.428  1.00  0.00     0.041 C 
BRANCH   3   5
ATOM      5  N   UNL     1      -2.739  -7.178  -1.145  1.00  0.00    -0.342 N 
ATOM      6  C   UNL     1      -2.628  -7.488   0.194  1.00  0.00     0.251 C 
ATOM      7  O   UNL     1      -2.043  -8.482   0.612  1.00  0.00    -0.272 OA
ATOM      8  H   UNL     1      -3.280  -6.347  -1.372  1.00  0.00     0.164 HD
BRANCH   6   9
ATOM      9  C   UNL     1      -3.241  -6.413   1.106  1.00  0.00     0.219 C 
BRANCH   9  10
ATOM     10  O   UNL     1      -3.143  -6.746   2.496  1.00  0.00    -0.382 OA
ATOM     11  H   UNL     1      -3.510  -5.956   2.949  1.00  0.00     0.211 HD
ENDBRANCH   9  10
BRANCH   9  12
ATOM     12  C   UNL     1      -2.676  -4.994   0.839  1.00  0.00     0.089 C 
BRANCH  12  13
ATOM     13  N   UNL     1      -3.301  -4.054   1.797  1.00  0.00    -0.325 NA
ATOM     14  H   UNL     1      -2.623  -3.812   2.522  1.00  0.00     0.119 HD
ATOM     15  H   UNL     1      -4.057  -4.536   2.289  1.00  0.00     0.119 HD
ENDBRANCH  12  13
BRANCH  12  16
ATOM     16  C   UNL     1      -1.135  -4.857   0.889  1.00  0.00     0.022 C 
BRANCH  16  17
ATOM     17  C   UNL     1      -0.384  -4.411  -0.373  1.00  0.00     0.002 C 
BRANCH  17  18
ATOM     18  C   UNL     1      -1.266  -3.835  -1.479  1.00  0.00     0.000 C 
BRANCH  18  19
ATOM     19  C   UNL     1      -0.594  -3.797  -2.858  1.00  0.00    -0.000 C 
BRANCH  19  20
ATOM     20  C   UNL     1      -0.058  -2.427  -3.283  1.00  0.00    -0.000 C 
BRANCH  20  21
ATOM     21  C   UNL     1      -0.092  -1.394  -2.154  1.00  0.00    -0.003 C 
ATOM     22  C   UNL     1      -1.179  -0.355  -2.385  1.00  0.00     0.004 C 
ENDBRANCH  20  21
ENDBRANCH  19  20
ENDBRANCH  18  19
ENDBRANCH  17  18
ENDBRANCH  16  17
ENDBRANCH  12  16
ENDBRANCH   9  12
ENDBRANCH   6   9
ENDBRANCH   3   5
ENDBRANCH   2   3
BRANCH   2  23
ATOM     23  N   UNL     1      -3.126  -6.938  -4.281  1.00  0.00    -0.332 N 
ATOM     24  C   UNL     1      -3.576  -5.656  -3.759  1.00  0.00     0.147 C 
BRANCH  23  25
ATOM     25  C   UNL     1      -2.779  -6.937  -5.729  1.00  0.00     0.174 C 
BRANCH  25  26
ATOM     26  C   UNL     1      -3.821  -7.681  -6.598  1.00  0.00     0.038 C 
BRANCH  26  27
ATOM     27  C   UNL     1      -4.544  -6.854  -7.684  1.00  0.00    -0.015 C 
ATOM     28  C   UNL     1      -5.435  -5.763  -7.092  1.00  0.00     0.007 C 
ATOM     29  C   UNL     1      -3.600  -6.267  -8.730  1.00  0.00     0.007 C 
ENDBRANCH  26  27
ENDBRANCH  25  26
BRANCH  25  30
ATOM     30  C   UNL     1      -1.331  -7.439  -5.929  1.00  0.00     0.243 C 
ATOM     31  O   UNL     1      -1.085  -8.525  -6.451  1.00  0.00    -0.273 OA
ATOM     32  N   UNL     1      -0.344  -6.597  -5.482  1.00  0.00    -0.342 N 
ATOM     33  H   UNL     1      -0.621  -5.656  -5.192  1.00  0.00     0.164 HD
BRANCH  32  34
ATOM     34  C   UNL     1       1.083  -6.920  -5.565  1.00  0.00     0.175 C 
BRANCH  34  35
ATOM     35  C   UNL     1       1.313  -8.439  -5.569  1.00  0.00     0.070 C 
BRANCH  35  36
ATOM     36  C   UNL     1       2.592  -8.839  -4.870  1.00  0.00    -0.045 A 
ATOM     37  C   UNL     1       3.081  -8.066  -3.806  1.00  0.00     0.007 A 
ATOM     38  C   UNL     1       3.317  -9.964  -5.284  1.00  0.00     0.007 A 
ATOM     39  C   UNL     1       4.269  -8.419  -3.163  1.00  0.00     0.046 A 
ATOM     40  C   UNL     1       4.506 -10.318  -4.643  1.00  0.00     0.046 A 
ATOM     41  C   UNL     1       4.971  -9.542  -3.586  1.00  0.00     0.115 A 
BRANCH  41  42
ATOM     42  O   UNL     1       6.127  -9.851  -2.934  1.00  0.00    -0.508 OA
ATOM     43  H   UNL     1       6.458  -9.045  -2.501  1.00  0.00     0.293 HD
ENDBRANCH  41  42
ENDBRANCH  35  36
ENDBRANCH  34  35
BRANCH  34  44
ATOM     44  C   UNL     1       1.654  -6.245  -6.832  1.00  0.00     0.243 C 
ATOM     45  O   UNL     1       1.129  -6.296  -7.941  1.00  0.00    -0.273 OA
ATOM     46  N   UNL     1       2.895  -5.677  -6.639  1.00  0.00    -0.341 N 
ATOM     47  H   UNL     1       3.341  -5.762  -5.730  1.00  0.00     0.164 HD
BRANCH  46  48
ATOM     48  C   UNL     1       3.664  -5.039  -7.710  1.00  0.00     0.196 C 
BRANCH  48  49
ATOM     49  C   UNL     1       4.763  -4.125  -7.143  1.00  0.00     0.072 C 
BRANCH  49  50
ATOM     50  C   UNL     1       4.211  -3.036  -6.251  1.00  0.00    -0.045 A 
ATOM     51  C   UNL     1       3.400  -2.030  -6.797  1.00  0.00     0.007 A 
ATOM     52  C   UNL     1       4.513  -3.001  -4.884  1.00  0.00     0.007 A 
ATOM     53  C   UNL     1       2.896  -1.012  -5.987  1.00  0.00     0.046 A 
ATOM     54  C   UNL     1       4.009  -1.981  -4.073  1.00  0.00     0.046 A 
ATOM     55  C   UNL     1       3.203  -0.996  -4.632  1.00  0.00     0.115 A 
BRANCH  55  56
ATOM     56  O   UNL     1       2.692   0.017  -3.876  1.00  0.00    -0.508 OA
ATOM     57  H   UNL     1       1.742  -0.142  -3.754  1.00  0.00     0.293 HD
ENDBRANCH  55  56
ENDBRANCH  49  50
ENDBRANCH  48  49
BRANCH  48  58
ATOM     58  C   UNL     1       4.301  -6.129  -8.584  1.00  0.00     0.326 C 
ATOM     59  O   UNL     1       4.280  -6.205  -9.802  1.00  0.00    -0.250 OA
BRANCH  58  60
ATOM     60  O   UNL     1       4.958  -7.078  -7.872  1.00  0.00    -0.480 OA
ATOM     61  H   UNL     1       4.281  -7.391  -7.233  1.00  0.00     0.296 HD
ENDBRANCH  58  60
ENDBRANCH  48  58
ENDBRANCH  46  48
ENDBRANCH  34  44
ENDBRANCH  32  34
ENDBRANCH  25  30
ENDBRANCH  23  25
ENDBRANCH   2  23
TORSDOF 28
ENDMDL
MODEL 48
REMARK VINA RESULT:    -5.371     21.299     24.976
REMARK INTER + INTRA:         -19.458
REMARK INTER:                 -15.362
REMARK INTRA:                  -4.096
REMARK UNBOUND:                -6.081
REMARK SMILES CCCCCCC[C@H](N)[C@H](O)C(=O)N[C@H](C)C(=O)N(C)[C@H](CC(C)C)C(=O)N[C@@H](Cc1ccc(O)cc1)C(=O)N[C@@H](Cc1ccc(O)cc1)C(=O)O
REMARK SMILES IDX 18 1 17 2 15 3 16 4 14 5 12 6 13 7 10 9 11 10 8 12 9 13 7 16
REMARK SMILES IDX 6 17 5 18 4 19 3 20 2 21 1 22 19 23 20 24 21 25 22 26 23 27
REMARK SMILES IDX 24 28 25 29 26 30 27 31 28 32 29 34 30 35 31 36 32 37 37 38
REMARK SMILES IDX 33 39 36 40 34 41 35 42 38 44 39 45 40 46 41 48 42 49 43 50
REMARK SMILES IDX 44 51 49 52 45 53 48 54 46 55 47 56 50 58 51 59 52 60
REMARK H PARENT 14 8 11 11 9 14 9 15 28 33 35 43 40 47 47 57 52 61
ROOT
ATOM      1  O   UNL     1     -15.946  12.881  -4.800  1.00  0.00    -0.272 OA
ATOM      2  C   UNL     1     -16.236  13.407  -3.715  1.00  0.00     0.245 C 
ENDROOT
BRANCH   2   3
ATOM      3  C   UNL     1     -17.718  13.406  -3.265  1.00  0.00     0.168 C 
ATOM      4  C   UNL     1     -18.646  13.635  -4.453  1.00  0.00     0.041 C 
BRANCH   3   5
ATOM      5  N   UNL     1     -18.118  12.249  -2.480  1.00  0.00    -0.342 N 
ATOM      6  C   UNL     1     -18.079  12.255  -1.102  1.00  0.00     0.251 C 
ATOM      7  O   UNL     1     -17.673  13.205  -0.441  1.00  0.00    -0.272 OA
ATOM      8  H   UNL     1     -18.441  11.389  -2.918  1.00  0.00     0.164 HD
BRANCH   6   9
ATOM      9  C   UNL     1     -18.680  10.981  -0.484  1.00  0.00     0.219 C 
BRANCH   9  10
ATOM     10  O   UNL     1     -19.973  10.667  -1.015  1.00  0.00    -0.382 OA
ATOM     11  H   UNL     1     -20.242  11.493  -1.474  1.00  0.00     0.211 HD
ENDBRANCH   9  10
BRANCH   9  12
ATOM     12  C   UNL     1     -17.734   9.756  -0.577  1.00  0.00     0.089 C 
BRANCH  12  13
ATOM     13  N   UNL     1     -16.419  10.217  -1.079  1.00  0.00    -0.325 NA
ATOM     14  H   UNL     1     -15.985   9.467  -1.620  1.00  0.00     0.119 HD
ATOM     15  H   UNL     1     -15.795  10.368  -0.283  1.00  0.00     0.119 HD
ENDBRANCH  12  13
BRANCH  12  16
ATOM     16  C   UNL     1     -17.549   8.942   0.727  1.00  0.00     0.022 C 
BRANCH  16  17
ATOM     17  C   UNL     1     -17.656   9.662   2.078  1.00  0.00     0.002 C 
BRANCH  17  18
ATOM     18  C   UNL     1     -16.912   8.988   3.229  1.00  0.00     0.000 C 
BRANCH  18  19
ATOM     19  C   UNL     1     -17.264   9.547   4.613  1.00  0.00    -0.000 C 
BRANCH  19  20
ATOM     20  C   UNL     1     -16.864   8.658   5.794  1.00  0.00    -0.000 C 
BRANCH  20  21
ATOM     21  C   UNL     1     -15.733   9.254   6.637  1.00  0.00    -0.003 C 
ATOM     22  C   UNL     1     -14.600   9.767   5.762  1.00  0.00     0.004 C 
ENDBRANCH  20  21
ENDBRANCH  19  20
ENDBRANCH  18  19
ENDBRANCH  17  18
ENDBRANCH  16  17
ENDBRANCH  12  16
ENDBRANCH   9  12
ENDBRANCH   6   9
ENDBRANCH   3   5
ENDBRANCH   2   3
BRANCH   2  23
ATOM     23  N   UNL     1     -15.229  13.872  -2.876  1.00  0.00    -0.332 N 
ATOM     24  C   UNL     1     -14.499  13.046  -1.926  1.00  0.00     0.147 C 
BRANCH  23  25
ATOM     25  C   UNL     1     -14.737  15.271  -2.998  1.00  0.00     0.174 C 
BRANCH  25  26
ATOM     26  C   UNL     1     -15.863  16.280  -3.325  1.00  0.00     0.038 C 
BRANCH  26  27
ATOM     27  C   UNL     1     -16.478  17.051  -2.135  1.00  0.00    -0.015 C 
ATOM     28  C   UNL     1     -17.989  16.851  -2.028  1.00  0.00     0.007 C 
ATOM     29  C   UNL     1     -15.800  16.751  -0.801  1.00  0.00     0.007 C 
ENDBRANCH  26  27
ENDBRANCH  25  26
BRANCH  25  30
ATOM     30  C   UNL     1     -13.545  15.332  -3.981  1.00  0.00     0.243 C 
ATOM     31  O   UNL     1     -12.719  16.243  -3.946  1.00  0.00    -0.273 OA
ATOM     32  N   UNL     1     -13.475  14.310  -4.893  1.00  0.00    -0.342 N 
ATOM     33  H   UNL     1     -14.112  13.520  -4.768  1.00  0.00     0.164 HD
BRANCH  32  34
ATOM     34  C   UNL     1     -12.430  14.219  -5.916  1.00  0.00     0.175 C 
BRANCH  34  35
ATOM     35  C   UNL     1     -11.438  13.088  -5.603  1.00  0.00     0.070 C 
BRANCH  35  36
ATOM     36  C   UNL     1     -12.101  11.730  -5.539  1.00  0.00    -0.045 A 
ATOM     37  C   UNL     1     -12.764  11.328  -4.369  1.00  0.00     0.007 A 
ATOM     38  C   UNL     1     -12.046  10.850  -6.628  1.00  0.00     0.007 A 
ATOM     39  C   UNL     1     -13.367  10.072  -4.296  1.00  0.00     0.046 A 
ATOM     40  C   UNL     1     -12.648   9.592  -6.554  1.00  0.00     0.046 A 
ATOM     41  C   UNL     1     -13.305   9.215  -5.388  1.00  0.00     0.115 A 
BRANCH  41  42
ATOM     42  O   UNL     1     -13.904   7.995  -5.274  1.00  0.00    -0.508 OA
ATOM     43  H   UNL     1     -13.344   7.338  -5.719  1.00  0.00     0.293 HD
ENDBRANCH  41  42
ENDBRANCH  35  36
ENDBRANCH  34  35
BRANCH  34  44
ATOM     44  C   UNL     1     -13.118  14.022  -7.286  1.00  0.00     0.243 C 
ATOM     45  O   UNL     1     -12.520  13.838  -8.342  1.00  0.00    -0.273 OA
ATOM     46  N   UNL     1     -14.484  14.201  -7.245  1.00  0.00    -0.341 N 
ATOM     47  H   UNL     1     -14.921  14.468  -6.366  1.00  0.00     0.164 HD
BRANCH  46  48
ATOM     48  C   UNL     1     -15.342  14.132  -8.430  1.00  0.00     0.196 C 
BRANCH  48  49
ATOM     49  C   UNL     1     -16.827  14.033  -8.041  1.00  0.00     0.072 C 
BRANCH  49  50
ATOM     50  C   UNL     1     -17.515  12.843  -8.671  1.00  0.00    -0.045 A 
ATOM     51  C   UNL     1     -18.812  12.493  -8.269  1.00  0.00     0.007 A 
ATOM     52  C   UNL     1     -16.868  12.066  -9.640  1.00  0.00     0.007 A 
ATOM     53  C   UNL     1     -19.452  11.389  -8.833  1.00  0.00     0.046 A 
ATOM     54  C   UNL     1     -17.508  10.960 -10.204  1.00  0.00     0.046 A 
ATOM     55  C   UNL     1     -18.796  10.632  -9.796  1.00  0.00     0.115 A 
BRANCH  55  56
ATOM     56  O   UNL     1     -19.455   9.560 -10.321  1.00  0.00    -0.508 OA
ATOM     57  H   UNL     1     -19.846   9.826 -11.168  1.00  0.00     0.293 HD
ENDBRANCH  55  56
ENDBRANCH  49  50
ENDBRANCH  48  49
BRANCH  48  58
ATOM     58  C   UNL     1     -15.116  15.387  -9.284  1.00  0.00     0.326 C 
ATOM     59  O   UNL     1     -14.971  16.533  -8.890  1.00  0.00    -0.250 OA
BRANCH  58  60
ATOM     60  O   UNL     1     -15.066  15.134 -10.616  1.00  0.00    -0.480 OA
ATOM     61  H   UNL     1     -15.137  16.027 -11.019  1.00  0.00     0.296 HD
ENDBRANCH  58  60
ENDBRANCH  48  58
ENDBRANCH  46  48
ENDBRANCH  34  44
ENDBRANCH  32  34
ENDBRANCH  25  30
ENDBRANCH  23  25
ENDBRANCH   2  23
TORSDOF 28
ENDMDL
MODEL 49
REMARK VINA RESULT:    -5.369      2.729      6.285
REMARK INTER + INTRA:         -19.452
REMARK INTER:                 -14.413
REMARK INTRA:                  -5.040
REMARK UNBOUND:                -6.081
REMARK SMILES CCCCCCC[C@H](N)[C@H](O)C(=O)N[C@H](C)C(=O)N(C)[C@H](CC(C)C)C(=O)N[C@@H](Cc1ccc(O)cc1)C(=O)N[C@@H](Cc1ccc(O)cc1)C(=O)O
REMARK SMILES IDX 18 1 17 2 15 3 16 4 14 5 12 6 13 7 10 9 11 10 8 12 9 13 7 16
REMARK SMILES IDX 6 17 5 18 4 19 3 20 2 21 1 22 19 23 20 24 21 25 22 26 23 27
REMARK SMILES IDX 24 28 25 29 26 30 27 31 28 32 29 34 30 35 31 36 32 37 37 38
REMARK SMILES IDX 33 39 36 40 34 41 35 42 38 44 39 45 40 46 41 48 42 49 43 50
REMARK SMILES IDX 44 51 49 52 45 53 48 54 46 55 47 56 50 58 51 59 52 60
REMARK H PARENT 14 8 11 11 9 14 9 15 28 33 35 43 40 47 47 57 52 61
ROOT
ATOM      1  O   UNL     1      -2.336  -1.751  -0.349  1.00  0.00    -0.272 OA
ATOM      2  C   UNL     1      -1.594  -2.315  -1.167  1.00  0.00     0.245 C 
ENDROOT
BRANCH   2   3
ATOM      3  C   UNL     1      -1.014  -1.483  -2.338  1.00  0.00     0.168 C 
ATOM      4  C   UNL     1      -1.637  -0.091  -2.374  1.00  0.00     0.041 C 
BRANCH   3   5
ATOM      5  N   UNL     1       0.438  -1.428  -2.388  1.00  0.00    -0.342 N 
ATOM      6  C   UNL     1       1.135  -1.654  -3.556  1.00  0.00     0.251 C 
ATOM      7  O   UNL     1       0.598  -1.955  -4.617  1.00  0.00    -0.272 OA
ATOM      8  H   UNL     1       0.996  -1.222  -1.563  1.00  0.00     0.164 HD
BRANCH   6   9
ATOM      9  C   UNL     1       2.645  -1.405  -3.406  1.00  0.00     0.219 C 
BRANCH   9  10
ATOM     10  O   UNL     1       2.969  -0.686  -2.210  1.00  0.00    -0.382 OA
ATOM     11  H   UNL     1       2.843   0.255  -2.464  1.00  0.00     0.211 HD
ENDBRANCH   9  10
BRANCH   9  12
ATOM     12  C   UNL     1       3.490  -2.700  -3.516  1.00  0.00     0.089 C 
BRANCH  12  13
ATOM     13  N   UNL     1       4.813  -2.449  -2.900  1.00  0.00    -0.325 NA
ATOM     14  H   UNL     1       5.059  -1.464  -3.023  1.00  0.00     0.119 HD
ATOM     15  H   UNL     1       5.524  -2.968  -3.420  1.00  0.00     0.119 HD
ENDBRANCH  12  13
BRANCH  12  16
ATOM     16  C   UNL     1       2.857  -3.977  -2.912  1.00  0.00     0.022 C 
BRANCH  16  17
ATOM     17  C   UNL     1       2.544  -5.163  -3.834  1.00  0.00     0.002 C 
BRANCH  17  18
ATOM     18  C   UNL     1       3.672  -6.183  -3.978  1.00  0.00     0.000 C 
BRANCH  18  19
ATOM     19  C   UNL     1       4.380  -6.144  -5.339  1.00  0.00    -0.000 C 
BRANCH  19  20
ATOM     20  C   UNL     1       3.806  -5.139  -6.341  1.00  0.00    -0.000 C 
BRANCH  20  21
ATOM     21  C   UNL     1       4.458  -5.232  -7.724  1.00  0.00    -0.003 C 
ATOM     22  C   UNL     1       3.571  -4.621  -8.797  1.00  0.00     0.004 C 
ENDBRANCH  20  21
ENDBRANCH  19  20
ENDBRANCH  18  19
ENDBRANCH  17  18
ENDBRANCH  16  17
ENDBRANCH  12  16
ENDBRANCH   9  12
ENDBRANCH   6   9
ENDBRANCH   3   5
ENDBRANCH   2   3
BRANCH   2  23
ATOM     23  N   UNL     1      -1.201  -3.632  -0.956  1.00  0.00    -0.332 N 
ATOM     24  C   UNL     1      -0.015  -4.031  -0.213  1.00  0.00     0.147 C 
BRANCH  23  25
ATOM     25  C   UNL     1      -2.076  -4.756  -1.389  1.00  0.00     0.174 C 
BRANCH  25  26
ATOM     26  C   UNL     1      -2.213  -5.861  -0.316  1.00  0.00     0.038 C 
BRANCH  26  27
ATOM     27  C   UNL     1      -3.354  -5.700   0.713  1.00  0.00    -0.015 C 
ATOM     28  C   UNL     1      -3.855  -7.042   1.245  1.00  0.00     0.007 C 
ATOM     29  C   UNL     1      -3.005  -4.762   1.866  1.00  0.00     0.007 C 
ENDBRANCH  26  27
ENDBRANCH  25  26
BRANCH  25  30
ATOM     30  C   UNL     1      -1.620  -5.283  -2.769  1.00  0.00     0.243 C 
ATOM     31  O   UNL     1      -1.170  -4.534  -3.635  1.00  0.00    -0.273 OA
ATOM     32  N   UNL     1      -1.758  -6.633  -2.964  1.00  0.00    -0.342 N 
ATOM     33  H   UNL     1      -2.005  -7.206  -2.152  1.00  0.00     0.164 HD
BRANCH  32  34
ATOM     34  C   UNL     1      -1.404  -7.303  -4.218  1.00  0.00     0.175 C 
BRANCH  34  35
ATOM     35  C   UNL     1      -0.013  -7.950  -4.132  1.00  0.00     0.070 C 
BRANCH  35  36
ATOM     36  C   UNL     1       0.709  -7.963  -5.461  1.00  0.00    -0.045 A 
ATOM     37  C   UNL     1       0.334  -7.066  -6.472  1.00  0.00     0.007 A 
ATOM     38  C   UNL     1       1.739  -8.880  -5.711  1.00  0.00     0.007 A 
ATOM     39  C   UNL     1       0.984  -7.080  -7.706  1.00  0.00     0.046 A 
ATOM     40  C   UNL     1       2.390  -8.895  -6.947  1.00  0.00     0.046 A 
ATOM     41  C   UNL     1       2.007  -7.993  -7.933  1.00  0.00     0.115 A 
BRANCH  41  42
ATOM     42  O   UNL     1       2.615  -7.976  -9.154  1.00  0.00    -0.508 OA
ATOM     43  H   UNL     1       3.556  -8.182  -9.028  1.00  0.00     0.293 HD
ENDBRANCH  41  42
ENDBRANCH  35  36
ENDBRANCH  34  35
BRANCH  34  44
ATOM     44  C   UNL     1      -2.505  -8.341  -4.534  1.00  0.00     0.243 C 
ATOM     45  O   UNL     1      -2.510  -9.066  -5.525  1.00  0.00    -0.273 OA
ATOM     46  N   UNL     1      -3.570  -8.294  -3.660  1.00  0.00    -0.341 N 
ATOM     47  H   UNL     1      -3.573  -7.595  -2.922  1.00  0.00     0.164 HD
BRANCH  46  48
ATOM     48  C   UNL     1      -4.762  -9.134  -3.797  1.00  0.00     0.196 C 
BRANCH  48  49
ATOM     49  C   UNL     1      -5.577  -8.750  -5.043  1.00  0.00     0.072 C 
BRANCH  49  50
ATOM     50  C   UNL     1      -5.749  -7.255  -5.188  1.00  0.00    -0.045 A 
ATOM     51  C   UNL     1      -5.235  -6.599  -6.316  1.00  0.00     0.007 A 
ATOM     52  C   UNL     1      -6.399  -6.505  -4.200  1.00  0.00     0.007 A 
ATOM     53  C   UNL     1      -5.376  -5.218  -6.455  1.00  0.00     0.046 A 
ATOM     54  C   UNL     1      -6.538  -5.122  -4.338  1.00  0.00     0.046 A 
ATOM     55  C   UNL     1      -6.026  -4.490  -5.466  1.00  0.00     0.115 A 
BRANCH  55  56
ATOM     56  O   UNL     1      -6.141  -3.143  -5.638  1.00  0.00    -0.508 OA
ATOM     57  H   UNL     1      -5.260  -2.782  -5.823  1.00  0.00     0.293 HD
ENDBRANCH  55  56
ENDBRANCH  49  50
ENDBRANCH  48  49
BRANCH  48  58
ATOM     58  C   UNL     1      -4.328 -10.603  -3.897  1.00  0.00     0.326 C 
ATOM     59  O   UNL     1      -3.723 -11.254  -3.061  1.00  0.00    -0.250 OA
BRANCH  58  60
ATOM     60  O   UNL     1      -4.697 -11.198  -5.060  1.00  0.00    -0.480 OA
ATOM     61  H   UNL     1      -5.534 -11.654  -4.826  1.00  0.00     0.296 HD
ENDBRANCH  58  60
ENDBRANCH  48  58
ENDBRANCH  46  48
ENDBRANCH  34  44
ENDBRANCH  32  34
ENDBRANCH  25  30
ENDBRANCH  23  25
ENDBRANCH   2  23
TORSDOF 28
ENDMDL
MODEL 50
REMARK VINA RESULT:    -5.349      2.793      6.281
REMARK INTER + INTRA:         -19.404
REMARK INTER:                 -14.390
REMARK INTRA:                  -5.014
REMARK UNBOUND:                -6.081
REMARK SMILES CCCCCCC[C@H](N)[C@H](O)C(=O)N[C@H](C)C(=O)N(C)[C@H](CC(C)C)C(=O)N[C@@H](Cc1ccc(O)cc1)C(=O)N[C@@H](Cc1ccc(O)cc1)C(=O)O
REMARK SMILES IDX 18 1 17 2 15 3 16 4 14 5 12 6 13 7 10 9 11 10 8 12 9 13 7 16
REMARK SMILES IDX 6 17 5 18 4 19 3 20 2 21 1 22 19 23 20 24 21 25 22 26 23 27
REMARK SMILES IDX 24 28 25 29 26 30 27 31 28 32 29 34 30 35 31 36 32 37 37 38
REMARK SMILES IDX 33 39 36 40 34 41 35 42 38 44 39 45 40 46 41 48 42 49 43 50
REMARK SMILES IDX 44 51 49 52 45 53 48 54 46 55 47 56 50 58 51 59 52 60
REMARK H PARENT 14 8 11 11 9 14 9 15 28 33 35 43 40 47 47 57 52 61
ROOT
ATOM      1  O   UNL     1      -2.471  -2.107  -0.132  1.00  0.00    -0.272 OA
ATOM      2  C   UNL     1      -1.708  -2.596  -0.977  1.00  0.00     0.245 C 
ENDROOT
BRANCH   2   3
ATOM      3  C   UNL     1      -1.188  -1.689  -2.120  1.00  0.00     0.168 C 
ATOM      4  C   UNL     1      -1.731  -0.271  -1.976  1.00  0.00     0.041 C 
BRANCH   3   5
ATOM      5  N   UNL     1       0.255  -1.701  -2.301  1.00  0.00    -0.342 N 
ATOM      6  C   UNL     1       0.832  -1.742  -3.553  1.00  0.00     0.251 C 
ATOM      7  O   UNL     1       0.186  -1.813  -4.593  1.00  0.00    -0.272 OA
ATOM      8  H   UNL     1       0.895  -1.679  -1.510  1.00  0.00     0.164 HD
BRANCH   6   9
ATOM      9  C   UNL     1       2.362  -1.602  -3.508  1.00  0.00     0.219 C 
BRANCH   9  10
ATOM     10  O   UNL     1       2.817  -0.886  -2.354  1.00  0.00    -0.382 OA
ATOM     11  H   UNL     1       2.913   0.037  -2.677  1.00  0.00     0.211 HD
ENDBRANCH   9  10
BRANCH   9  12
ATOM     12  C   UNL     1       3.102  -2.959  -3.641  1.00  0.00     0.089 C 
BRANCH  12  13
ATOM     13  N   UNL     1       2.130  -4.048  -3.389  1.00  0.00    -0.325 NA
ATOM     14  H   UNL     1       1.836  -4.016  -2.411  1.00  0.00     0.119 HD
ATOM     15  H   UNL     1       2.606  -4.947  -3.496  1.00  0.00     0.119 HD
ENDBRANCH  12  13
BRANCH  12  16
ATOM     16  C   UNL     1       3.836  -3.201  -4.982  1.00  0.00     0.022 C 
BRANCH  16  17
ATOM     17  C   UNL     1       4.652  -4.489  -5.164  1.00  0.00     0.002 C 
BRANCH  17  18
ATOM     18  C   UNL     1       4.290  -5.312  -6.398  1.00  0.00     0.000 C 
BRANCH  18  19
ATOM     19  C   UNL     1       3.233  -6.393  -6.140  1.00  0.00    -0.000 C 
BRANCH  19  20
ATOM     20  C   UNL     1       3.756  -7.666  -5.468  1.00  0.00    -0.000 C 
BRANCH  20  21
ATOM     21  C   UNL     1       2.640  -8.544  -4.895  1.00  0.00    -0.003 C 
ATOM     22  C   UNL     1       2.747  -9.975  -5.396  1.00  0.00     0.004 C 
ENDBRANCH  20  21
ENDBRANCH  19  20
ENDBRANCH  18  19
ENDBRANCH  17  18
ENDBRANCH  16  17
ENDBRANCH  12  16
ENDBRANCH   9  12
ENDBRANCH   6   9
ENDBRANCH   3   5
ENDBRANCH   2   3
BRANCH   2  23
ATOM     23  N   UNL     1      -1.239  -3.896  -0.821  1.00  0.00    -0.332 N 
ATOM     24  C   UNL     1      -0.031  -4.257  -0.093  1.00  0.00     0.147 C 
BRANCH  23  25
ATOM     25  C   UNL     1      -2.048  -5.049  -1.302  1.00  0.00     0.174 C 
BRANCH  25  26
ATOM     26  C   UNL     1      -1.966  -6.276  -0.364  1.00  0.00     0.038 C 
BRANCH  26  27
ATOM     27  C   UNL     1      -3.187  -6.546   0.545  1.00  0.00    -0.015 C 
ATOM     28  C   UNL     1      -3.305  -5.531   1.681  1.00  0.00     0.007 C 
ATOM     29  C   UNL     1      -4.503  -6.650  -0.222  1.00  0.00     0.007 C 
ENDBRANCH  26  27
ENDBRANCH  25  26
BRANCH  25  30
ATOM     30  C   UNL     1      -1.698  -5.368  -2.774  1.00  0.00     0.243 C 
ATOM     31  O   UNL     1      -0.910  -4.678  -3.418  1.00  0.00    -0.273 OA
ATOM     32  N   UNL     1      -2.327  -6.463  -3.309  1.00  0.00    -0.342 N 
ATOM     33  H   UNL     1      -2.854  -7.065  -2.672  1.00  0.00     0.164 HD
BRANCH  32  34
ATOM     34  C   UNL     1      -2.136  -6.898  -4.696  1.00  0.00     0.175 C 
BRANCH  34  35
ATOM     35  C   UNL     1      -1.253  -8.152  -4.772  1.00  0.00     0.070 C 
BRANCH  35  36
ATOM     36  C   UNL     1      -0.770  -8.443  -6.175  1.00  0.00    -0.045 A 
ATOM     37  C   UNL     1      -0.879  -9.740  -6.700  1.00  0.00     0.007 A 
ATOM     38  C   UNL     1      -0.189  -7.437  -6.958  1.00  0.00     0.007 A 
ATOM     39  C   UNL     1      -0.423 -10.021  -7.988  1.00  0.00     0.046 A 
ATOM     40  C   UNL     1       0.269  -7.718  -8.248  1.00  0.00     0.046 A 
ATOM     41  C   UNL     1       0.146  -9.009  -8.752  1.00  0.00     0.115 A 
BRANCH  41  42
ATOM     42  O   UNL     1       0.581  -9.326 -10.004  1.00  0.00    -0.508 OA
ATOM     43  H   UNL     1       0.795  -8.501 -10.471  1.00  0.00     0.293 HD
ENDBRANCH  41  42
ENDBRANCH  35  36
ENDBRANCH  34  35
BRANCH  34  44
ATOM     44  C   UNL     1      -3.531  -7.135  -5.319  1.00  0.00     0.243 C 
ATOM     45  O   UNL     1      -4.147  -8.195  -5.256  1.00  0.00    -0.273 OA
ATOM     46  N   UNL     1      -3.980  -6.075  -6.078  1.00  0.00    -0.341 N 
ATOM     47  H   UNL     1      -3.381  -5.262  -6.195  1.00  0.00     0.164 HD
BRANCH  46  48
ATOM     48  C   UNL     1      -5.243  -6.094  -6.820  1.00  0.00     0.196 C 
BRANCH  48  49
ATOM     49  C   UNL     1      -6.102  -4.861  -6.495  1.00  0.00     0.072 C 
BRANCH  49  50
ATOM     50  C   UNL     1      -7.103  -5.123  -5.393  1.00  0.00    -0.045 A 
ATOM     51  C   UNL     1      -8.348  -4.477  -5.411  1.00  0.00     0.007 A 
ATOM     52  C   UNL     1      -6.800  -5.990  -4.335  1.00  0.00     0.007 A 
ATOM     53  C   UNL     1      -9.274  -4.701  -4.392  1.00  0.00     0.046 A 
ATOM     54  C   UNL     1      -7.728  -6.214  -3.315  1.00  0.00     0.046 A 
ATOM     55  C   UNL     1      -8.958  -5.567  -3.353  1.00  0.00     0.115 A 
BRANCH  55  56
ATOM     56  O   UNL     1      -9.891  -5.758  -2.376  1.00  0.00    -0.508 OA
ATOM     57  H   UNL     1     -10.755  -5.482  -2.721  1.00  0.00     0.293 HD
ENDBRANCH  55  56
ENDBRANCH  49  50
ENDBRANCH  48  49
BRANCH  48  58
ATOM     58  C   UNL     1      -4.937  -6.127  -8.324  1.00  0.00     0.326 C 
ATOM     59  O   UNL     1      -5.516  -5.518  -9.209  1.00  0.00    -0.250 OA
BRANCH  58  60
ATOM     60  O   UNL     1      -3.890  -6.927  -8.646  1.00  0.00    -0.480 OA
ATOM     61  H   UNL     1      -3.400  -6.400  -9.314  1.00  0.00     0.296 HD
ENDBRANCH  58  60
ENDBRANCH  48  58
ENDBRANCH  46  48
ENDBRANCH  34  44
ENDBRANCH  32  34
ENDBRANCH  25  30
ENDBRANCH  23  25
ENDBRANCH   2  23
TORSDOF 28
ENDMDL
