MODEL 1
REMARK VINA RESULT:    -7.023      0.000      0.000
REMARK INTER + INTRA:         -17.979
REMARK INTER:                 -14.207
REMARK INTRA:                  -3.772
REMARK UNBOUND:                -3.772
REMARK SMILES CC[C@@H](C)[C@@H](NC(=O)[C@@H](O)Cc1ccc(O)c(Cl)c1)C(=O)N1[C@H](C(=O)NCCCCN=C(N)N)C[C@H]2CC[C@H](OS(=O)(=O)O)C[C@@H]21
REMARK SMILES IDX 22 1 36 2 46 3 35 4 23 5 45 6 37 7 39 8 38 9 20 10 21 11
REMARK SMILES IDX 5 12 6 13 7 14 8 15 9 17 11 18 12 19 17 20 19 21 15 22 14 23
REMARK SMILES IDX 13 24 18 25 16 26 10 28 3 30 4 31 2 32 1 33 24 34 25 35
REMARK SMILES IDX 26 36 27 38 28 39 29 40 30 41 31 42 32 43 33 44 34 45 40 50
REMARK SMILES IDX 41 51 42 52 43 53 44 54
REMARK H PARENT 6 16 16 27 10 29 26 37 33 46 33 47 34 48 34 49 44 55
ROOT
ATOM      1  N   UNL     1       9.313  -1.141 -15.802  1.00  0.00    -0.326 N 
ATOM      2  C   UNL     1      10.386  -1.725 -17.815  1.00  0.00     0.014 C 
ATOM      3  C   UNL     1      10.598  -1.642 -16.301  1.00  0.00     0.091 C 
ATOM      4  C   UNL     1       9.474  -0.539 -18.091  1.00  0.00     0.041 C 
ATOM      5  C   UNL     1       8.468  -0.695 -16.937  1.00  0.00     0.175 C 
ATOM      6  C   UNL     1      11.086  -3.002 -15.806  1.00  0.00     0.059 C 
ATOM      7  C   UNL     1      11.712  -1.829 -18.543  1.00  0.00     0.008 C 
ATOM      8  C   UNL     1      11.942  -3.768 -16.838  1.00  0.00     0.143 C 
ATOM      9  C   UNL     1      12.653  -2.816 -17.822  1.00  0.00     0.034 C 
ENDROOT
BRANCH   1  10
ATOM     10  C   UNL     1       8.917  -0.848 -14.508  1.00  0.00     0.246 C 
ATOM     11  O   UNL     1       8.127   0.083 -14.318  1.00  0.00    -0.272 OA
BRANCH  10  12
ATOM     12  C   UNL     1       9.438  -1.720 -13.330  1.00  0.00     0.174 C 
BRANCH  12  13
ATOM     13  N   UNL     1       8.354  -2.548 -12.804  1.00  0.00    -0.342 N 
ATOM     14  C   UNL     1       7.959  -3.759 -13.326  1.00  0.00     0.249 C 
ATOM     15  O   UNL     1       8.499  -4.297 -14.285  1.00  0.00    -0.272 OA
ATOM     16  H   UNL     1       7.716  -2.162 -12.112  1.00  0.00     0.164 HD
BRANCH  14  17
ATOM     17  C   UNL     1       6.772  -4.380 -12.558  1.00  0.00     0.207 C 
BRANCH  17  18
ATOM     18  C   UNL     1       6.761  -3.895 -11.105  1.00  0.00     0.077 C 
BRANCH  18  19
ATOM     19  C   UNL     1       5.414  -3.330 -10.712  1.00  0.00    -0.043 A 
ATOM     20  C   UNL     1       3.468  -3.350  -9.265  1.00  0.00     0.083 A 
ATOM     21  C   UNL     1       4.732  -3.839  -9.596  1.00  0.00     0.028 A 
ATOM     22  C   UNL     1       2.878  -2.354 -10.045  1.00  0.00     0.134 A 
ATOM     23  C   UNL     1       3.543  -1.841 -11.152  1.00  0.00     0.048 A 
ATOM     24  C   UNL     1       4.808  -2.330 -11.487  1.00  0.00     0.008 A 
ATOM     25  Cl  UNL     1       2.644  -3.988  -7.891  1.00  0.00    -0.080 Cl
BRANCH  22  26
ATOM     26  O   UNL     1       1.636  -1.851  -9.766  1.00  0.00    -0.506 OA
ATOM     27  H   UNL     1       1.766  -1.115  -9.139  1.00  0.00     0.293 HD
ENDBRANCH  22  26
ENDBRANCH  18  19
ENDBRANCH  17  18
BRANCH  17  28
ATOM     28  O   UNL     1       6.836  -5.815 -12.581  1.00  0.00    -0.383 OA
ATOM     29  H   UNL     1       6.581  -6.085 -13.492  1.00  0.00     0.211 HD
ENDBRANCH  17  28
ENDBRANCH  14  17
ENDBRANCH  12  13
BRANCH  12  30
ATOM     30  C   UNL     1      10.134  -0.881 -12.224  1.00  0.00     0.018 C 
ATOM     31  C   UNL     1      11.539  -1.427 -11.927  1.00  0.00     0.010 C 
BRANCH  30  32
ATOM     32  C   UNL     1       9.315  -0.779 -10.914  1.00  0.00     0.002 C 
ATOM     33  C   UNL     1       9.869  -1.570  -9.737  1.00  0.00     0.004 C 
ENDBRANCH  30  32
ENDBRANCH  12  30
ENDBRANCH  10  12
ENDBRANCH   1  10
BRANCH   5  34
ATOM     34  C   UNL     1       7.382  -1.754 -17.263  1.00  0.00     0.242 C 
ATOM     35  O   UNL     1       7.127  -2.102 -18.416  1.00  0.00    -0.273 OA
ATOM     36  N   UNL     1       6.688  -2.236 -16.176  1.00  0.00    -0.354 N 
ATOM     37  H   UNL     1       6.861  -1.822 -15.259  1.00  0.00     0.163 HD
BRANCH  36  38
ATOM     38  C   UNL     1       5.798  -3.376 -16.269  1.00  0.00     0.116 C 
BRANCH  38  39
ATOM     39  C   UNL     1       4.675  -3.241 -15.245  1.00  0.00     0.023 C 
BRANCH  39  40
ATOM     40  C   UNL     1       4.134  -4.593 -14.792  1.00  0.00     0.026 C 
BRANCH  40  41
ATOM     41  C   UNL     1       2.605  -4.595 -14.800  1.00  0.00     0.146 C 
BRANCH  41  42
ATOM     42  N   UNL     1       2.106  -4.584 -13.431  1.00  0.00    -0.254 NA
ATOM     43  C   UNL     1       1.050  -3.919 -13.147  1.00  0.00     0.185 C 
ATOM     44  N   UNL     1       0.257  -3.174 -13.940  1.00  0.00    -0.370 N 
ATOM     45  N   UNL     1       0.608  -3.918 -11.879  1.00  0.00    -0.370 N 
ATOM     46  H   UNL     1      -0.390  -2.515 -13.543  1.00  0.00     0.159 HD
ATOM     47  H   UNL     1       0.438  -3.077 -14.934  1.00  0.00     0.159 HD
ATOM     48  H   UNL     1       1.145  -4.463 -11.217  1.00  0.00     0.159 HD
ATOM     49  H   UNL     1      -0.319  -3.628 -11.626  1.00  0.00     0.159 HD
ENDBRANCH  41  42
ENDBRANCH  40  41
ENDBRANCH  39  40
ENDBRANCH  38  39
ENDBRANCH  36  38
ENDBRANCH   5  34
BRANCH   8  50
ATOM     50  O   UNL     1      11.120  -4.664 -17.588  1.00  0.00    -0.245 OA
BRANCH  50  51
ATOM     51  S   UNL     1      10.852  -6.167 -17.027  1.00  0.00     0.397 S 
ATOM     52  O   UNL     1      11.683  -6.363 -15.861  1.00  0.00    -0.169 OA
ATOM     53  O   UNL     1      10.856  -7.105 -18.130  1.00  0.00    -0.169 OA
BRANCH  51  54
ATOM     54  O   UNL     1       9.345  -6.055 -16.477  1.00  0.00    -0.264 OA
ATOM     55  H   UNL     1       8.741  -6.138 -17.242  1.00  0.00     0.236 HD
ENDBRANCH  51  54
ENDBRANCH  50  51
ENDBRANCH   8  50
TORSDOF 19
ENDMDL
MODEL 2
REMARK VINA RESULT:    -6.882      3.468      5.641
REMARK INTER + INTRA:         -17.695
REMARK INTER:                 -13.511
REMARK INTRA:                  -4.184
REMARK UNBOUND:                -3.772
REMARK SMILES CC[C@@H](C)[C@@H](NC(=O)[C@@H](O)Cc1ccc(O)c(Cl)c1)C(=O)N1[C@H](C(=O)NCCCCN=C(N)N)C[C@H]2CC[C@H](OS(=O)(=O)O)C[C@@H]21
REMARK SMILES IDX 22 1 36 2 46 3 35 4 23 5 45 6 37 7 39 8 38 9 20 10 21 11
REMARK SMILES IDX 5 12 6 13 7 14 8 15 9 17 11 18 12 19 17 20 19 21 15 22 14 23
REMARK SMILES IDX 13 24 18 25 16 26 10 28 3 30 4 31 2 32 1 33 24 34 25 35
REMARK SMILES IDX 26 36 27 38 28 39 29 40 30 41 31 42 32 43 33 44 34 45 40 50
REMARK SMILES IDX 41 51 42 52 43 53 44 54
REMARK H PARENT 6 16 16 27 10 29 26 37 33 46 33 47 34 48 34 49 44 55
ROOT
ATOM      1  N   UNL     1       6.817  -3.413 -15.979  1.00  0.00    -0.326 N 
ATOM      2  C   UNL     1       9.053  -4.140 -15.858  1.00  0.00     0.014 C 
ATOM      3  C   UNL     1       8.176  -2.962 -16.292  1.00  0.00     0.091 C 
ATOM      4  C   UNL     1       8.181  -5.343 -16.181  1.00  0.00     0.041 C 
ATOM      5  C   UNL     1       6.829  -4.855 -15.630  1.00  0.00     0.175 C 
ATOM      6  C   UNL     1       8.694  -1.697 -15.611  1.00  0.00     0.059 C 
ATOM      7  C   UNL     1      10.437  -4.039 -16.469  1.00  0.00     0.008 C 
ATOM      8  C   UNL     1      10.220  -1.700 -15.372  1.00  0.00     0.143 C 
ATOM      9  C   UNL     1      10.963  -2.591 -16.388  1.00  0.00     0.034 C 
ENDROOT
BRANCH   1  10
ATOM     10  C   UNL     1       5.604  -2.775 -16.171  1.00  0.00     0.246 C 
ATOM     11  O   UNL     1       5.041  -2.870 -17.267  1.00  0.00    -0.272 OA
BRANCH  10  12
ATOM     12  C   UNL     1       4.955  -1.990 -14.994  1.00  0.00     0.174 C 
BRANCH  12  13
ATOM     13  N   UNL     1       3.615  -2.511 -14.726  1.00  0.00    -0.342 N 
ATOM     14  C   UNL     1       3.248  -3.203 -13.593  1.00  0.00     0.249 C 
ATOM     15  O   UNL     1       4.007  -3.438 -12.661  1.00  0.00    -0.272 OA
ATOM     16  H   UNL     1       2.924  -2.530 -15.471  1.00  0.00     0.164 HD
BRANCH  14  17
ATOM     17  C   UNL     1       1.766  -3.635 -13.614  1.00  0.00     0.207 C 
BRANCH  17  18
ATOM     18  C   UNL     1       0.966  -2.855 -12.566  1.00  0.00     0.077 C 
BRANCH  18  19
ATOM     19  C   UNL     1       0.937  -1.373 -12.869  1.00  0.00    -0.043 A 
ATOM     20  C   UNL     1       0.353   0.460 -14.346  1.00  0.00     0.083 A 
ATOM     21  C   UNL     1       0.334  -0.903 -14.046  1.00  0.00     0.028 A 
ATOM     22  C   UNL     1       0.974   1.358 -13.478  1.00  0.00     0.134 A 
ATOM     23  C   UNL     1       1.575   0.905 -12.309  1.00  0.00     0.048 A 
ATOM     24  C   UNL     1       1.559  -0.458 -12.006  1.00  0.00     0.008 A 
ATOM     25  Cl  UNL     1      -0.393   1.019 -15.797  1.00  0.00    -0.080 Cl
BRANCH  22  26
ATOM     26  O   UNL     1       1.027   2.701 -13.735  1.00  0.00    -0.506 OA
ATOM     27  H   UNL     1       0.106   3.019 -13.754  1.00  0.00     0.293 HD
ENDBRANCH  22  26
ENDBRANCH  18  19
ENDBRANCH  17  18
BRANCH  17  28
ATOM     28  O   UNL     1       1.634  -5.043 -13.363  1.00  0.00    -0.383 OA
ATOM     29  H   UNL     1       0.924  -5.134 -12.688  1.00  0.00     0.211 HD
ENDBRANCH  17  28
ENDBRANCH  14  17
ENDBRANCH  12  13
BRANCH  12  30
ATOM     30  C   UNL     1       4.960  -0.455 -15.222  1.00  0.00     0.018 C 
ATOM     31  C   UNL     1       5.297   0.290 -13.920  1.00  0.00     0.010 C 
BRANCH  30  32
ATOM     32  C   UNL     1       3.639   0.089 -15.819  1.00  0.00     0.002 C 
ATOM     33  C   UNL     1       3.623   1.584 -16.111  1.00  0.00     0.004 C 
ENDBRANCH  30  32
ENDBRANCH  12  30
ENDBRANCH  10  12
ENDBRANCH   1  10
BRANCH   5  34
ATOM     34  C   UNL     1       6.732  -5.051 -14.094  1.00  0.00     0.242 C 
ATOM     35  O   UNL     1       6.313  -6.092 -13.588  1.00  0.00    -0.273 OA
ATOM     36  N   UNL     1       7.097  -3.958 -13.340  1.00  0.00    -0.354 N 
ATOM     37  H   UNL     1       7.321  -3.084 -13.818  1.00  0.00     0.163 HD
BRANCH  36  38
ATOM     38  C   UNL     1       7.274  -4.032 -11.905  1.00  0.00     0.116 C 
BRANCH  38  39
ATOM     39  C   UNL     1       8.111  -2.850 -11.423  1.00  0.00     0.023 C 
BRANCH  39  40
ATOM     40  C   UNL     1       7.852  -2.510  -9.960  1.00  0.00     0.026 C 
BRANCH  40  41
ATOM     41  C   UNL     1       6.444  -1.942  -9.776  1.00  0.00     0.146 C 
BRANCH  41  42
ATOM     42  N   UNL     1       5.851  -2.481  -8.559  1.00  0.00    -0.254 NA
ATOM     43  C   UNL     1       4.939  -3.376  -8.642  1.00  0.00     0.185 C 
ATOM     44  N   UNL     1       4.389  -3.953  -9.726  1.00  0.00    -0.370 N 
ATOM     45  N   UNL     1       4.402  -3.857  -7.509  1.00  0.00    -0.370 N 
ATOM     46  H   UNL     1       3.521  -4.455  -9.655  1.00  0.00     0.159 HD
ATOM     47  H   UNL     1       4.689  -3.715 -10.667  1.00  0.00     0.159 HD
ATOM     48  H   UNL     1       4.767  -3.481  -6.645  1.00  0.00     0.159 HD
ATOM     49  H   UNL     1       3.869  -4.708  -7.478  1.00  0.00     0.159 HD
ENDBRANCH  41  42
ENDBRANCH  40  41
ENDBRANCH  39  40
ENDBRANCH  38  39
ENDBRANCH  36  38
ENDBRANCH   5  34
BRANCH   8  50
ATOM     50  O   UNL     1      10.509  -2.174 -14.057  1.00  0.00    -0.245 OA
BRANCH  50  51
ATOM     51  S   UNL     1      11.232  -1.184 -12.988  1.00  0.00     0.397 S 
ATOM     52  O   UNL     1      12.240  -0.425 -13.693  1.00  0.00    -0.169 OA
ATOM     53  O   UNL     1      11.542  -1.918 -11.778  1.00  0.00    -0.169 OA
BRANCH  51  54
ATOM     54  O   UNL     1      10.057  -0.142 -12.647  1.00  0.00    -0.264 OA
ATOM     55  H   UNL     1      10.453   0.602 -12.148  1.00  0.00     0.236 HD
ENDBRANCH  51  54
ENDBRANCH  50  51
ENDBRANCH   8  50
TORSDOF 19
ENDMDL
MODEL 3
REMARK VINA RESULT:    -6.871      3.658      6.482
REMARK INTER + INTRA:         -17.672
REMARK INTER:                 -13.336
REMARK INTRA:                  -4.336
REMARK UNBOUND:                -3.772
REMARK SMILES CC[C@@H](C)[C@@H](NC(=O)[C@@H](O)Cc1ccc(O)c(Cl)c1)C(=O)N1[C@H](C(=O)NCCCCN=C(N)N)C[C@H]2CC[C@H](OS(=O)(=O)O)C[C@@H]21
REMARK SMILES IDX 22 1 36 2 46 3 35 4 23 5 45 6 37 7 39 8 38 9 20 10 21 11
REMARK SMILES IDX 5 12 6 13 7 14 8 15 9 17 11 18 12 19 17 20 19 21 15 22 14 23
REMARK SMILES IDX 13 24 18 25 16 26 10 28 3 30 4 31 2 32 1 33 24 34 25 35
REMARK SMILES IDX 26 36 27 38 28 39 29 40 30 41 31 42 32 43 33 44 34 45 40 50
REMARK SMILES IDX 41 51 42 52 43 53 44 54
REMARK H PARENT 6 16 16 27 10 29 26 37 33 46 33 47 34 48 34 49 44 55
ROOT
ATOM      1  N   UNL     1       5.924  -2.708 -14.107  1.00  0.00    -0.326 N 
ATOM      2  C   UNL     1       7.259  -0.932 -14.886  1.00  0.00     0.014 C 
ATOM      3  C   UNL     1       7.072  -1.889 -13.705  1.00  0.00     0.091 C 
ATOM      4  C   UNL     1       5.831  -0.690 -15.350  1.00  0.00     0.041 C 
ATOM      5  C   UNL     1       5.285  -2.130 -15.314  1.00  0.00     0.175 C 
ATOM      6  C   UNL     1       8.403  -2.589 -13.436  1.00  0.00     0.059 C 
ATOM      7  C   UNL     1       8.124   0.250 -14.495  1.00  0.00     0.008 C 
ATOM      8  C   UNL     1       9.638  -1.723 -13.762  1.00  0.00     0.143 C 
ATOM      9  C   UNL     1       9.333  -0.215 -13.656  1.00  0.00     0.034 C 
ENDROOT
BRANCH   1  10
ATOM     10  C   UNL     1       5.284  -3.732 -13.429  1.00  0.00     0.246 C 
ATOM     11  O   UNL     1       5.581  -4.903 -13.689  1.00  0.00    -0.272 OA
BRANCH  10  12
ATOM     12  C   UNL     1       4.240  -3.387 -12.328  1.00  0.00     0.174 C 
BRANCH  12  13
ATOM     13  N   UNL     1       3.049  -2.796 -12.937  1.00  0.00    -0.342 N 
ATOM     14  C   UNL     1       1.792  -3.357 -12.921  1.00  0.00     0.249 C 
ATOM     15  O   UNL     1       1.524  -4.414 -12.362  1.00  0.00    -0.272 OA
ATOM     16  H   UNL     1       3.146  -2.003 -13.567  1.00  0.00     0.164 HD
BRANCH  14  17
ATOM     17  C   UNL     1       0.747  -2.499 -13.666  1.00  0.00     0.207 C 
BRANCH  17  18
ATOM     18  C   UNL     1       0.775  -1.056 -13.152  1.00  0.00     0.077 C 
BRANCH  18  19
ATOM     19  C   UNL     1       1.033  -0.068 -14.267  1.00  0.00    -0.043 A 
ATOM     20  C   UNL     1       0.214   1.307 -16.090  1.00  0.00     0.083 A 
ATOM     21  C   UNL     1      -0.033   0.434 -15.030  1.00  0.00     0.028 A 
ATOM     22  C   UNL     1       1.523   1.683 -16.395  1.00  0.00     0.134 A 
ATOM     23  C   UNL     1       2.588   1.195 -15.647  1.00  0.00     0.048 A 
ATOM     24  C   UNL     1       2.344   0.319 -14.587  1.00  0.00     0.008 A 
ATOM     25  Cl  UNL     1      -1.109   1.912 -17.016  1.00  0.00    -0.080 Cl
BRANCH  22  26
ATOM     26  O   UNL     1       1.815   2.529 -17.431  1.00  0.00    -0.506 OA
ATOM     27  H   UNL     1       2.107   1.970 -18.175  1.00  0.00     0.293 HD
ENDBRANCH  22  26
ENDBRANCH  18  19
ENDBRANCH  17  18
BRANCH  17  28
ATOM     28  O   UNL     1      -0.575  -3.037 -13.504  1.00  0.00    -0.383 OA
ATOM     29  H   UNL     1      -0.777  -3.519 -14.338  1.00  0.00     0.211 HD
ENDBRANCH  17  28
ENDBRANCH  14  17
ENDBRANCH  12  13
BRANCH  12  30
ATOM     30  C   UNL     1       4.830  -2.501 -11.198  1.00  0.00     0.018 C 
ATOM     31  C   UNL     1       4.754  -3.220  -9.842  1.00  0.00     0.010 C 
BRANCH  30  32
ATOM     32  C   UNL     1       4.170  -1.104 -11.096  1.00  0.00     0.002 C 
ATOM     33  C   UNL     1       5.063   0.068 -11.483  1.00  0.00     0.004 C 
ENDBRANCH  30  32
ENDBRANCH  12  30
ENDBRANCH  10  12
ENDBRANCH   1  10
BRANCH   5  34
ATOM     34  C   UNL     1       5.686  -2.926 -16.584  1.00  0.00     0.242 C 
ATOM     35  O   UNL     1       5.098  -2.793 -17.657  1.00  0.00    -0.273 OA
ATOM     36  N   UNL     1       6.711  -3.829 -16.410  1.00  0.00    -0.354 N 
ATOM     37  H   UNL     1       7.078  -3.981 -15.469  1.00  0.00     0.163 HD
BRANCH  36  38
ATOM     38  C   UNL     1       7.353  -4.495 -17.524  1.00  0.00     0.116 C 
BRANCH  38  39
ATOM     39  C   UNL     1       8.400  -3.573 -18.145  1.00  0.00     0.023 C 
BRANCH  39  40
ATOM     40  C   UNL     1       9.557  -4.344 -18.770  1.00  0.00     0.026 C 
BRANCH  40  41
ATOM     41  C   UNL     1       9.610  -5.774 -18.233  1.00  0.00     0.146 C 
BRANCH  41  42
ATOM     42  N   UNL     1      10.879  -5.999 -17.554  1.00  0.00    -0.254 NA
ATOM     43  C   UNL     1      10.986  -5.732 -16.307  1.00  0.00     0.185 C 
ATOM     44  N   UNL     1      10.074  -5.246 -15.445  1.00  0.00    -0.370 N 
ATOM     45  N   UNL     1      12.166  -5.942 -15.700  1.00  0.00    -0.370 N 
ATOM     46  H   UNL     1      10.359  -4.856 -14.562  1.00  0.00     0.159 HD
ATOM     47  H   UNL     1       9.122  -5.043 -15.734  1.00  0.00     0.159 HD
ATOM     48  H   UNL     1      12.906  -6.316 -16.278  1.00  0.00     0.159 HD
ATOM     49  H   UNL     1      12.264  -5.985 -14.702  1.00  0.00     0.159 HD
ENDBRANCH  41  42
ENDBRANCH  40  41
ENDBRANCH  39  40
ENDBRANCH  38  39
ENDBRANCH  36  38
ENDBRANCH   5  34
BRANCH   8  50
ATOM     50  O   UNL     1      10.096  -2.000 -15.086  1.00  0.00    -0.245 OA
BRANCH  50  51
ATOM     51  S   UNL     1      11.689  -1.960 -15.410  1.00  0.00     0.397 S 
ATOM     52  O   UNL     1      12.321  -3.033 -14.676  1.00  0.00    -0.169 OA
ATOM     53  O   UNL     1      12.168  -0.596 -15.325  1.00  0.00    -0.169 OA
BRANCH  51  54
ATOM     54  O   UNL     1      11.729  -2.403 -16.955  1.00  0.00    -0.264 OA
ATOM     55  H   UNL     1      10.830  -2.702 -17.203  1.00  0.00     0.236 HD
ENDBRANCH  51  54
ENDBRANCH  50  51
ENDBRANCH   8  50
TORSDOF 19
ENDMDL
MODEL 4
REMARK VINA RESULT:    -6.801      3.154      5.637
REMARK INTER + INTRA:         -17.530
REMARK INTER:                 -12.826
REMARK INTRA:                  -4.704
REMARK UNBOUND:                -3.772
REMARK SMILES CC[C@@H](C)[C@@H](NC(=O)[C@@H](O)Cc1ccc(O)c(Cl)c1)C(=O)N1[C@H](C(=O)NCCCCN=C(N)N)C[C@H]2CC[C@H](OS(=O)(=O)O)C[C@@H]21
REMARK SMILES IDX 22 1 36 2 46 3 35 4 23 5 45 6 37 7 39 8 38 9 20 10 21 11
REMARK SMILES IDX 5 12 6 13 7 14 8 15 9 17 11 18 12 19 17 20 19 21 15 22 14 23
REMARK SMILES IDX 13 24 18 25 16 26 10 28 3 30 4 31 2 32 1 33 24 34 25 35
REMARK SMILES IDX 26 36 27 38 28 39 29 40 30 41 31 42 32 43 33 44 34 45 40 50
REMARK SMILES IDX 41 51 42 52 43 53 44 54
REMARK H PARENT 6 16 16 27 10 29 26 37 33 46 33 47 34 48 34 49 44 55
ROOT
ATOM      1  N   UNL     1       5.947  -1.259 -15.840  1.00  0.00    -0.326 N 
ATOM      2  C   UNL     1       6.560   0.195 -14.093  1.00  0.00     0.014 C 
ATOM      3  C   UNL     1       7.099  -0.498 -15.347  1.00  0.00     0.091 C 
ATOM      4  C   UNL     1       5.587  -0.833 -13.534  1.00  0.00     0.041 C 
ATOM      5  C   UNL     1       4.863  -1.253 -14.827  1.00  0.00     0.175 C 
ATOM      6  C   UNL     1       7.710   0.563 -16.260  1.00  0.00     0.059 C 
ATOM      7  C   UNL     1       7.694   0.696 -13.220  1.00  0.00     0.008 C 
ATOM      8  C   UNL     1       8.331   1.754 -15.499  1.00  0.00     0.143 C 
ATOM      9  C   UNL     1       8.789   1.360 -14.081  1.00  0.00     0.034 C 
ENDROOT
BRANCH   1  10
ATOM     10  C   UNL     1       5.840  -2.096 -16.938  1.00  0.00     0.246 C 
ATOM     11  O   UNL     1       5.186  -1.723 -17.917  1.00  0.00    -0.272 OA
BRANCH  10  12
ATOM     12  C   UNL     1       6.578  -3.467 -16.932  1.00  0.00     0.174 C 
BRANCH  12  13
ATOM     13  N   UNL     1       6.692  -3.966 -15.562  1.00  0.00    -0.342 N 
ATOM     14  C   UNL     1       5.747  -4.733 -14.919  1.00  0.00     0.249 C 
ATOM     15  O   UNL     1       4.705  -5.110 -15.440  1.00  0.00    -0.272 OA
ATOM     16  H   UNL     1       7.424  -3.606 -14.954  1.00  0.00     0.164 HD
BRANCH  14  17
ATOM     17  C   UNL     1       6.152  -5.087 -13.472  1.00  0.00     0.207 C 
BRANCH  17  18
ATOM     18  C   UNL     1       7.456  -4.378 -13.092  1.00  0.00     0.077 C 
BRANCH  18  19
ATOM     19  C   UNL     1       7.307  -3.570 -11.822  1.00  0.00    -0.043 A 
ATOM     20  C   UNL     1       5.947  -2.801  -9.967  1.00  0.00     0.083 A 
ATOM     21  C   UNL     1       6.097  -3.586 -11.110  1.00  0.00     0.028 A 
ATOM     22  C   UNL     1       6.999  -1.996  -9.529  1.00  0.00     0.134 A 
ATOM     23  C   UNL     1       8.202  -1.971 -10.224  1.00  0.00     0.048 A 
ATOM     24  C   UNL     1       8.355  -2.754 -11.370  1.00  0.00     0.008 A 
ATOM     25  Cl  UNL     1       4.453  -2.833  -9.106  1.00  0.00    -0.080 Cl
BRANCH  22  26
ATOM     26  O   UNL     1       6.895  -1.201  -8.420  1.00  0.00    -0.506 OA
ATOM     27  H   UNL     1       6.210  -1.601  -7.852  1.00  0.00     0.293 HD
ENDBRANCH  22  26
ENDBRANCH  18  19
ENDBRANCH  17  18
BRANCH  17  28
ATOM     28  O   UNL     1       6.316  -6.505 -13.313  1.00  0.00    -0.383 OA
ATOM     29  H   UNL     1       7.212  -6.716 -13.661  1.00  0.00     0.211 HD
ENDBRANCH  17  28
ENDBRANCH  14  17
ENDBRANCH  12  13
BRANCH  12  30
ATOM     30  C   UNL     1       7.948  -3.413 -17.659  1.00  0.00     0.018 C 
ATOM     31  C   UNL     1       8.207  -4.715 -18.434  1.00  0.00     0.010 C 
BRANCH  30  32
ATOM     32  C   UNL     1       9.140  -3.108 -16.719  1.00  0.00     0.002 C 
ATOM     33  C   UNL     1      10.217  -2.204 -17.304  1.00  0.00     0.004 C 
ENDBRANCH  30  32
ENDBRANCH  12  30
ENDBRANCH  10  12
ENDBRANCH   1  10
BRANCH   5  34
ATOM     34  C   UNL     1       3.752  -0.241 -15.215  1.00  0.00     0.242 C 
ATOM     35  O   UNL     1       3.899   0.583 -16.118  1.00  0.00    -0.273 OA
ATOM     36  N   UNL     1       2.614  -0.296 -14.442  1.00  0.00    -0.354 N 
ATOM     37  H   UNL     1       2.599  -0.917 -13.633  1.00  0.00     0.163 HD
BRANCH  36  38
ATOM     38  C   UNL     1       1.405   0.419 -14.795  1.00  0.00     0.116 C 
BRANCH  38  39
ATOM     39  C   UNL     1       0.222  -0.144 -14.010  1.00  0.00     0.023 C 
BRANCH  39  40
ATOM     40  C   UNL     1       0.649  -0.785 -12.694  1.00  0.00     0.026 C 
BRANCH  40  41
ATOM     41  C   UNL     1       0.179  -2.237 -12.620  1.00  0.00     0.146 C 
BRANCH  41  42
ATOM     42  N   UNL     1       0.614  -2.956 -13.811  1.00  0.00    -0.254 NA
ATOM     43  C   UNL     1       1.652  -3.703 -13.756  1.00  0.00     0.185 C 
ATOM     44  N   UNL     1       2.475  -3.965 -12.724  1.00  0.00    -0.370 N 
ATOM     45  N   UNL     1       2.039  -4.353 -14.865  1.00  0.00    -0.370 N 
ATOM     46  H   UNL     1       3.383  -4.370 -12.883  1.00  0.00     0.159 HD
ATOM     47  H   UNL     1       2.321  -3.565 -11.804  1.00  0.00     0.159 HD
ATOM     48  H   UNL     1       1.466  -4.217 -15.688  1.00  0.00     0.159 HD
ATOM     49  H   UNL     1       2.682  -5.125 -14.847  1.00  0.00     0.159 HD
ENDBRANCH  41  42
ENDBRANCH  40  41
ENDBRANCH  39  40
ENDBRANCH  38  39
ENDBRANCH  36  38
ENDBRANCH   5  34
BRANCH   8  50
ATOM     50  O   UNL     1       7.382   2.815 -15.391  1.00  0.00    -0.245 OA
BRANCH  50  51
ATOM     51  S   UNL     1       6.959   3.653 -16.719  1.00  0.00     0.397 S 
ATOM     52  O   UNL     1       7.895   3.326 -17.770  1.00  0.00    -0.169 OA
ATOM     53  O   UNL     1       6.672   5.026 -16.357  1.00  0.00    -0.169 OA
BRANCH  51  54
ATOM     54  O   UNL     1       5.573   2.949 -17.132  1.00  0.00    -0.264 OA
ATOM     55  H   UNL     1       5.538   2.077 -16.690  1.00  0.00     0.236 HD
ENDBRANCH  51  54
ENDBRANCH  50  51
ENDBRANCH   8  50
TORSDOF 19
ENDMDL
MODEL 5
REMARK VINA RESULT:    -6.572      2.467      5.294
REMARK INTER + INTRA:         -17.068
REMARK INTER:                 -12.948
REMARK INTRA:                  -4.121
REMARK UNBOUND:                -3.772
REMARK SMILES CC[C@@H](C)[C@@H](NC(=O)[C@@H](O)Cc1ccc(O)c(Cl)c1)C(=O)N1[C@H](C(=O)NCCCCN=C(N)N)C[C@H]2CC[C@H](OS(=O)(=O)O)C[C@@H]21
REMARK SMILES IDX 22 1 36 2 46 3 35 4 23 5 45 6 37 7 39 8 38 9 20 10 21 11
REMARK SMILES IDX 5 12 6 13 7 14 8 15 9 17 11 18 12 19 17 20 19 21 15 22 14 23
REMARK SMILES IDX 13 24 18 25 16 26 10 28 3 30 4 31 2 32 1 33 24 34 25 35
REMARK SMILES IDX 26 36 27 38 28 39 29 40 30 41 31 42 32 43 33 44 34 45 40 50
REMARK SMILES IDX 41 51 42 52 43 53 44 54
REMARK H PARENT 6 16 16 27 10 29 26 37 33 46 33 47 34 48 34 49 44 55
ROOT
ATOM      1  N   UNL     1       7.034  -3.374 -16.722  1.00  0.00    -0.326 N 
ATOM      2  C   UNL     1       9.183  -4.083 -17.372  1.00  0.00     0.014 C 
ATOM      3  C   UNL     1       8.089  -3.060 -17.690  1.00  0.00     0.091 C 
ATOM      4  C   UNL     1       8.384  -5.310 -16.960  1.00  0.00     0.041 C 
ATOM      5  C   UNL     1       7.336  -4.657 -16.040  1.00  0.00     0.175 C 
ATOM      6  C   UNL     1       8.709  -1.664 -17.658  1.00  0.00     0.059 C 
ATOM      7  C   UNL     1      10.173  -4.190 -18.515  1.00  0.00     0.008 C 
ATOM      8  C   UNL     1      10.188  -1.631 -18.098  1.00  0.00     0.143 C 
ATOM      9  C   UNL     1      10.534  -2.790 -19.055  1.00  0.00     0.034 C 
ENDROOT
BRANCH   1  10
ATOM     10  C   UNL     1       5.791  -2.792 -16.543  1.00  0.00     0.246 C 
ATOM     11  O   UNL     1       4.991  -2.782 -17.484  1.00  0.00    -0.272 OA
BRANCH  10  12
ATOM     12  C   UNL     1       5.413  -2.203 -15.153  1.00  0.00     0.174 C 
BRANCH  12  13
ATOM     13  N   UNL     1       4.031  -2.550 -14.823  1.00  0.00    -0.342 N 
ATOM     14  C   UNL     1       3.627  -3.744 -14.269  1.00  0.00     0.249 C 
ATOM     15  O   UNL     1       4.394  -4.648 -13.963  1.00  0.00    -0.272 OA
ATOM     16  H   UNL     1       3.270  -1.967 -15.163  1.00  0.00     0.164 HD
BRANCH  14  17
ATOM     17  C   UNL     1       2.100  -3.815 -14.056  1.00  0.00     0.207 C 
BRANCH  17  18
ATOM     18  C   UNL     1       1.632  -2.673 -13.148  1.00  0.00     0.077 C 
BRANCH  18  19
ATOM     19  C   UNL     1       2.263  -2.751 -11.776  1.00  0.00    -0.043 A 
ATOM     20  C   UNL     1       2.359  -3.728  -9.558  1.00  0.00     0.083 A 
ATOM     21  C   UNL     1       1.808  -3.692 -10.840  1.00  0.00     0.028 A 
ATOM     22  C   UNL     1       3.363  -2.827  -9.204  1.00  0.00     0.134 A 
ATOM     23  C   UNL     1       3.824  -1.890 -10.122  1.00  0.00     0.048 A 
ATOM     24  C   UNL     1       3.273  -1.850 -11.405  1.00  0.00     0.008 A 
ATOM     25  Cl  UNL     1       1.786  -4.892  -8.421  1.00  0.00    -0.080 Cl
BRANCH  22  26
ATOM     26  O   UNL     1       3.926  -2.817  -7.957  1.00  0.00    -0.506 OA
ATOM     27  H   UNL     1       3.421  -3.453  -7.417  1.00  0.00     0.293 HD
ENDBRANCH  22  26
ENDBRANCH  18  19
ENDBRANCH  17  18
BRANCH  17  28
ATOM     28  O   UNL     1       1.717  -5.072 -13.476  1.00  0.00    -0.383 OA
ATOM     29  H   UNL     1       1.983  -5.763 -14.123  1.00  0.00     0.211 HD
ENDBRANCH  17  28
ENDBRANCH  14  17
ENDBRANCH  12  13
BRANCH  12  30
ATOM     30  C   UNL     1       5.679  -0.676 -15.056  1.00  0.00     0.018 C 
ATOM     31  C   UNL     1       7.014  -0.399 -14.347  1.00  0.00     0.010 C 
BRANCH  30  32
ATOM     32  C   UNL     1       4.538   0.111 -14.367  1.00  0.00     0.002 C 
ATOM     33  C   UNL     1       3.754   1.050 -15.276  1.00  0.00     0.004 C 
ENDBRANCH  30  32
ENDBRANCH  12  30
ENDBRANCH  10  12
ENDBRANCH   1  10
BRANCH   5  34
ATOM     34  C   UNL     1       7.903  -4.405 -14.617  1.00  0.00     0.242 C 
ATOM     35  O   UNL     1       8.944  -3.777 -14.426  1.00  0.00    -0.273 OA
ATOM     36  N   UNL     1       7.186  -4.979 -13.591  1.00  0.00    -0.354 N 
ATOM     37  H   UNL     1       6.400  -5.588 -13.822  1.00  0.00     0.163 HD
BRANCH  36  38
ATOM     38  C   UNL     1       7.444  -4.669 -12.200  1.00  0.00     0.116 C 
BRANCH  38  39
ATOM     39  C   UNL     1       6.848  -3.307 -11.853  1.00  0.00     0.023 C 
BRANCH  39  40
ATOM     40  C   UNL     1       7.449  -2.714 -10.584  1.00  0.00     0.026 C 
BRANCH  40  41
ATOM     41  C   UNL     1       8.137  -1.382 -10.881  1.00  0.00     0.146 C 
BRANCH  41  42
ATOM     42  N   UNL     1       9.312  -1.608 -11.712  1.00  0.00    -0.254 NA
ATOM     43  C   UNL     1      10.468  -1.684 -11.168  1.00  0.00     0.185 C 
ATOM     44  N   UNL     1      10.823  -1.588  -9.874  1.00  0.00    -0.370 N 
ATOM     45  N   UNL     1      11.538  -1.889 -11.953  1.00  0.00    -0.370 N 
ATOM     46  H   UNL     1      11.781  -1.422  -9.616  1.00  0.00     0.159 HD
ATOM     47  H   UNL     1      10.134  -1.445  -9.141  1.00  0.00     0.159 HD
ATOM     48  H   UNL     1      11.357  -1.983 -12.943  1.00  0.00     0.159 HD
ATOM     49  H   UNL     1      12.426  -2.193 -11.593  1.00  0.00     0.159 HD
ENDBRANCH  41  42
ENDBRANCH  40  41
ENDBRANCH  39  40
ENDBRANCH  38  39
ENDBRANCH  36  38
ENDBRANCH   5  34
BRANCH   8  50
ATOM     50  O   UNL     1      11.041  -1.717 -16.956  1.00  0.00    -0.245 OA
BRANCH  50  51
ATOM     51  S   UNL     1      11.058  -0.503 -15.873  1.00  0.00     0.397 S 
ATOM     52  O   UNL     1      10.143   0.518 -16.333  1.00  0.00    -0.169 OA
ATOM     53  O   UNL     1      12.425  -0.191 -15.513  1.00  0.00    -0.169 OA
BRANCH  51  54
ATOM     54  O   UNL     1      10.352  -1.182 -14.598  1.00  0.00    -0.264 OA
ATOM     55  H   UNL     1       9.440  -1.427 -14.857  1.00  0.00     0.236 HD
ENDBRANCH  51  54
ENDBRANCH  50  51
ENDBRANCH   8  50
TORSDOF 19
ENDMDL
MODEL 6
REMARK VINA RESULT:    -6.498      3.038      5.596
REMARK INTER + INTRA:         -16.918
REMARK INTER:                 -11.626
REMARK INTRA:                  -5.292
REMARK UNBOUND:                -3.772
REMARK SMILES CC[C@@H](C)[C@@H](NC(=O)[C@@H](O)Cc1ccc(O)c(Cl)c1)C(=O)N1[C@H](C(=O)NCCCCN=C(N)N)C[C@H]2CC[C@H](OS(=O)(=O)O)C[C@@H]21
REMARK SMILES IDX 22 1 36 2 46 3 35 4 23 5 45 6 37 7 39 8 38 9 20 10 21 11
REMARK SMILES IDX 5 12 6 13 7 14 8 15 9 17 11 18 12 19 17 20 19 21 15 22 14 23
REMARK SMILES IDX 13 24 18 25 16 26 10 28 3 30 4 31 2 32 1 33 24 34 25 35
REMARK SMILES IDX 26 36 27 38 28 39 29 40 30 41 31 42 32 43 33 44 34 45 40 50
REMARK SMILES IDX 41 51 42 52 43 53 44 54
REMARK H PARENT 6 16 16 27 10 29 26 37 33 46 33 47 34 48 34 49 44 55
ROOT
ATOM      1  N   UNL     1       6.148  -2.189 -16.788  1.00  0.00    -0.326 N 
ATOM      2  C   UNL     1       7.560  -3.970 -16.172  1.00  0.00     0.014 C 
ATOM      3  C   UNL     1       7.384  -2.857 -17.209  1.00  0.00     0.091 C 
ATOM      4  C   UNL     1       6.125  -4.377 -15.871  1.00  0.00     0.041 C 
ATOM      5  C   UNL     1       5.470  -2.990 -15.739  1.00  0.00     0.175 C 
ATOM      6  C   UNL     1       8.670  -2.035 -17.257  1.00  0.00     0.059 C 
ATOM      7  C   UNL     1       8.542  -5.016 -16.661  1.00  0.00     0.008 C 
ATOM      8  C   UNL     1       9.944  -2.855 -16.961  1.00  0.00     0.143 C 
ATOM      9  C   UNL     1       9.769  -4.346 -17.316  1.00  0.00     0.034 C 
ENDROOT
BRANCH   1  10
ATOM     10  C   UNL     1       5.480  -1.119 -17.358  1.00  0.00     0.246 C 
ATOM     11  O   UNL     1       4.800  -1.305 -18.373  1.00  0.00    -0.272 OA
BRANCH  10  12
ATOM     12  C   UNL     1       5.563   0.282 -16.686  1.00  0.00     0.174 C 
BRANCH  12  13
ATOM     13  N   UNL     1       6.810   0.400 -15.931  1.00  0.00    -0.342 N 
ATOM     14  C   UNL     1       7.857   1.233 -16.260  1.00  0.00     0.249 C 
ATOM     15  O   UNL     1       7.846   1.996 -17.217  1.00  0.00    -0.272 OA
ATOM     16  H   UNL     1       7.027  -0.280 -15.207  1.00  0.00     0.164 HD
BRANCH  14  17
ATOM     17  C   UNL     1       9.041   1.117 -15.277  1.00  0.00     0.207 C 
BRANCH  17  18
ATOM     18  C   UNL     1       8.883   2.115 -14.126  1.00  0.00     0.077 C 
BRANCH  18  19
ATOM     19  C   UNL     1       8.473   1.431 -12.841  1.00  0.00    -0.043 A 
ATOM     20  C   UNL     1       8.705  -0.400 -11.268  1.00  0.00     0.083 A 
ATOM     21  C   UNL     1       9.119   0.256 -12.428  1.00  0.00     0.028 A 
ATOM     22  C   UNL     1       7.647   0.112 -10.516  1.00  0.00     0.134 A 
ATOM     23  C   UNL     1       6.999   1.275 -10.914  1.00  0.00     0.048 A 
ATOM     24  C   UNL     1       7.409   1.933 -12.075  1.00  0.00     0.008 A 
ATOM     25  Cl  UNL     1       9.510  -1.844 -10.776  1.00  0.00    -0.080 Cl
BRANCH  22  26
ATOM     26  O   UNL     1       7.199  -0.502  -9.377  1.00  0.00    -0.506 OA
ATOM     27  H   UNL     1       7.059   0.202  -8.717  1.00  0.00     0.293 HD
ENDBRANCH  22  26
ENDBRANCH  18  19
ENDBRANCH  17  18
BRANCH  17  28
ATOM     28  O   UNL     1      10.292   1.353 -15.944  1.00  0.00    -0.383 OA
ATOM     29  H   UNL     1      10.874   1.790 -15.282  1.00  0.00     0.211 HD
ENDBRANCH  17  28
ENDBRANCH  14  17
ENDBRANCH  12  13
BRANCH  12  30
ATOM     30  C   UNL     1       4.315   0.608 -15.821  1.00  0.00     0.018 C 
ATOM     31  C   UNL     1       3.300   1.442 -16.620  1.00  0.00     0.010 C 
BRANCH  30  32
ATOM     32  C   UNL     1       4.651   1.316 -14.486  1.00  0.00     0.002 C 
ATOM     33  C   UNL     1       3.511   2.113 -13.867  1.00  0.00     0.004 C 
ENDBRANCH  30  32
ENDBRANCH  12  30
ENDBRANCH  10  12
ENDBRANCH   1  10
BRANCH   5  34
ATOM     34  C   UNL     1       5.713  -2.374 -14.335  1.00  0.00     0.242 C 
ATOM     35  O   UNL     1       6.820  -1.978 -13.973  1.00  0.00    -0.273 OA
ATOM     36  N   UNL     1       4.613  -2.354 -13.507  1.00  0.00    -0.354 N 
ATOM     37  H   UNL     1       3.753  -2.806 -13.820  1.00  0.00     0.163 HD
BRANCH  36  38
ATOM     38  C   UNL     1       4.602  -1.627 -12.254  1.00  0.00     0.116 C 
BRANCH  38  39
ATOM     39  C   UNL     1       3.923  -2.466 -11.174  1.00  0.00     0.023 C 
BRANCH  39  40
ATOM     40  C   UNL     1       4.910  -2.989 -10.135  1.00  0.00     0.026 C 
BRANCH  40  41
ATOM     41  C   UNL     1       6.200  -3.464 -10.804  1.00  0.00     0.146 C 
BRANCH  41  42
ATOM     42  N   UNL     1       5.966  -4.734 -11.478  1.00  0.00    -0.254 NA
ATOM     43  C   UNL     1       6.838  -5.184 -12.301  1.00  0.00     0.185 C 
ATOM     44  N   UNL     1       8.018  -4.661 -12.684  1.00  0.00    -0.370 N 
ATOM     45  N   UNL     1       6.602  -6.355 -12.915  1.00  0.00    -0.370 N 
ATOM     46  H   UNL     1       8.482  -4.995 -13.511  1.00  0.00     0.159 HD
ATOM     47  H   UNL     1       8.359  -3.784 -12.305  1.00  0.00     0.159 HD
ATOM     48  H   UNL     1       5.737  -6.820 -12.676  1.00  0.00     0.159 HD
ATOM     49  H   UNL     1       7.322  -6.881 -13.378  1.00  0.00     0.159 HD
ENDBRANCH  41  42
ENDBRANCH  40  41
ENDBRANCH  39  40
ENDBRANCH  38  39
ENDBRANCH  36  38
ENDBRANCH   5  34
BRANCH   8  50
ATOM     50  O   UNL     1      10.280  -2.756 -15.576  1.00  0.00    -0.245 OA
BRANCH  50  51
ATOM     51  S   UNL     1      11.792  -2.339 -15.145  1.00  0.00     0.397 S 
ATOM     52  O   UNL     1      12.128  -1.110 -15.828  1.00  0.00    -0.169 OA
ATOM     53  O   UNL     1      12.653  -3.502 -15.205  1.00  0.00    -0.169 OA
BRANCH  51  54
ATOM     54  O   UNL     1      11.602  -1.943 -13.598  1.00  0.00    -0.264 OA
ATOM     55  H   UNL     1      10.646  -1.993 -13.392  1.00  0.00     0.236 HD
ENDBRANCH  51  54
ENDBRANCH  50  51
ENDBRANCH   8  50
TORSDOF 19
ENDMDL
MODEL 7
REMARK VINA RESULT:    -6.477      1.954      2.589
REMARK INTER + INTRA:         -16.876
REMARK INTER:                 -12.722
REMARK INTRA:                  -4.153
REMARK UNBOUND:                -3.772
REMARK SMILES CC[C@@H](C)[C@@H](NC(=O)[C@@H](O)Cc1ccc(O)c(Cl)c1)C(=O)N1[C@H](C(=O)NCCCCN=C(N)N)C[C@H]2CC[C@H](OS(=O)(=O)O)C[C@@H]21
REMARK SMILES IDX 22 1 36 2 46 3 35 4 23 5 45 6 37 7 39 8 38 9 20 10 21 11
REMARK SMILES IDX 5 12 6 13 7 14 8 15 9 17 11 18 12 19 17 20 19 21 15 22 14 23
REMARK SMILES IDX 13 24 18 25 16 26 10 28 3 30 4 31 2 32 1 33 24 34 25 35
REMARK SMILES IDX 26 36 27 38 28 39 29 40 30 41 31 42 32 43 33 44 34 45 40 50
REMARK SMILES IDX 41 51 42 52 43 53 44 54
REMARK H PARENT 6 16 16 27 10 29 26 37 33 46 33 47 34 48 34 49 44 55
ROOT
ATOM      1  N   UNL     1      10.321  -0.478 -15.512  1.00  0.00    -0.326 N 
ATOM      2  C   UNL     1      10.545  -1.574 -17.584  1.00  0.00     0.014 C 
ATOM      3  C   UNL     1      11.300  -1.238 -16.294  1.00  0.00     0.091 C 
ATOM      4  C   UNL     1       9.672  -0.345 -17.790  1.00  0.00     0.041 C 
ATOM      5  C   UNL     1       9.149  -0.139 -16.357  1.00  0.00     0.175 C 
ATOM      6  C   UNL     1      11.848  -2.536 -15.704  1.00  0.00     0.059 C 
ATOM      7  C   UNL     1      11.504  -1.998 -18.679  1.00  0.00     0.008 C 
ATOM      8  C   UNL     1      12.217  -3.595 -16.765  1.00  0.00     0.143 C 
ATOM      9  C   UNL     1      12.578  -2.954 -18.121  1.00  0.00     0.034 C 
ENDROOT
BRANCH   1  10
ATOM     10  C   UNL     1      10.443   0.106 -14.263  1.00  0.00     0.246 C 
ATOM     11  O   UNL     1      10.726   1.306 -14.185  1.00  0.00    -0.272 OA
BRANCH  10  12
ATOM     12  C   UNL     1      10.180  -0.748 -12.988  1.00  0.00     0.174 C 
BRANCH  12  13
ATOM     13  N   UNL     1       8.805  -0.551 -12.531  1.00  0.00    -0.342 N 
ATOM     14  C   UNL     1       8.014  -1.524 -11.962  1.00  0.00     0.249 C 
ATOM     15  O   UNL     1       8.391  -2.669 -11.747  1.00  0.00    -0.272 OA
ATOM     16  H   UNL     1       8.307   0.299 -12.784  1.00  0.00     0.164 HD
BRANCH  14  17
ATOM     17  C   UNL     1       6.604  -1.010 -11.601  1.00  0.00     0.207 C 
BRANCH  17  18
ATOM     18  C   UNL     1       5.549  -1.667 -12.496  1.00  0.00     0.077 C 
BRANCH  18  19
ATOM     19  C   UNL     1       4.437  -2.295 -11.686  1.00  0.00    -0.043 A 
ATOM     20  C   UNL     1       3.694  -3.509  -9.722  1.00  0.00     0.083 A 
ATOM     21  C   UNL     1       4.713  -2.887 -10.444  1.00  0.00     0.028 A 
ATOM     22  C   UNL     1       2.397  -3.546 -10.235  1.00  0.00     0.134 A 
ATOM     23  C   UNL     1       2.110  -2.964 -11.464  1.00  0.00     0.048 A 
ATOM     24  C   UNL     1       3.128  -2.342 -12.190  1.00  0.00     0.008 A 
ATOM     25  Cl  UNL     1       4.053  -4.231  -8.198  1.00  0.00    -0.080 Cl
BRANCH  22  26
ATOM     26  O   UNL     1       1.368  -4.154  -9.569  1.00  0.00    -0.506 OA
ATOM     27  H   UNL     1       0.900  -3.453  -9.077  1.00  0.00     0.293 HD
ENDBRANCH  22  26
ENDBRANCH  18  19
ENDBRANCH  17  18
BRANCH  17  28
ATOM     28  O   UNL     1       6.523   0.418 -11.739  1.00  0.00    -0.383 OA
ATOM     29  H   UNL     1       6.657   0.607 -12.695  1.00  0.00     0.211 HD
ENDBRANCH  17  28
ENDBRANCH  14  17
ENDBRANCH  12  13
BRANCH  12  30
ATOM     30  C   UNL     1      11.220  -0.487 -11.866  1.00  0.00     0.018 C 
ATOM     31  C   UNL     1      11.552  -1.787 -11.116  1.00  0.00     0.010 C 
BRANCH  30  32
ATOM     32  C   UNL     1      10.791   0.612 -10.864  1.00  0.00     0.002 C 
ATOM     33  C   UNL     1      10.625   0.149  -9.422  1.00  0.00     0.004 C 
ENDBRANCH  30  32
ENDBRANCH  12  30
ENDBRANCH  10  12
ENDBRANCH   1  10
BRANCH   5  34
ATOM     34  C   UNL     1       7.954  -1.078 -16.043  1.00  0.00     0.242 C 
ATOM     35  O   UNL     1       8.064  -2.060 -15.310  1.00  0.00    -0.273 OA
ATOM     36  N   UNL     1       6.778  -0.764 -16.687  1.00  0.00    -0.354 N 
ATOM     37  H   UNL     1       6.780  -0.010 -17.375  1.00  0.00     0.163 HD
BRANCH  36  38
ATOM     38  C   UNL     1       5.519  -1.396 -16.349  1.00  0.00     0.116 C 
BRANCH  38  39
ATOM     39  C   UNL     1       5.636  -2.909 -16.518  1.00  0.00     0.023 C 
BRANCH  39  40
ATOM     40  C   UNL     1       4.796  -3.675 -15.503  1.00  0.00     0.026 C 
BRANCH  40  41
ATOM     41  C   UNL     1       5.389  -5.060 -15.243  1.00  0.00     0.146 C 
BRANCH  41  42
ATOM     42  N   UNL     1       5.509  -5.282 -13.808  1.00  0.00    -0.254 NA
ATOM     43  C   UNL     1       6.643  -5.126 -13.235  1.00  0.00     0.185 C 
ATOM     44  N   UNL     1       7.832  -4.766 -13.753  1.00  0.00    -0.370 N 
ATOM     45  N   UNL     1       6.734  -5.340 -11.912  1.00  0.00    -0.370 N 
ATOM     46  H   UNL     1       8.683  -4.919 -13.240  1.00  0.00     0.159 HD
ATOM     47  H   UNL     1       7.941  -4.552 -14.740  1.00  0.00     0.159 HD
ATOM     48  H   UNL     1       5.879  -5.607 -11.442  1.00  0.00     0.159 HD
ATOM     49  H   UNL     1       7.508  -5.016 -11.360  1.00  0.00     0.159 HD
ENDBRANCH  41  42
ENDBRANCH  40  41
ENDBRANCH  39  40
ENDBRANCH  38  39
ENDBRANCH  36  38
ENDBRANCH   5  34
BRANCH   8  50
ATOM     50  O   UNL     1      11.123  -4.491 -16.965  1.00  0.00    -0.245 OA
BRANCH  50  51
ATOM     51  S   UNL     1      11.385  -6.096 -16.932  1.00  0.00     0.397 S 
ATOM     52  O   UNL     1      12.202  -6.392 -15.778  1.00  0.00    -0.169 OA
ATOM     53  O   UNL     1      11.746  -6.557 -18.257  1.00  0.00    -0.169 OA
BRANCH  51  54
ATOM     54  O   UNL     1       9.921  -6.668 -16.591  1.00  0.00    -0.264 OA
ATOM     55  H   UNL     1       9.944  -7.021 -15.678  1.00  0.00     0.236 HD
ENDBRANCH  51  54
ENDBRANCH  50  51
ENDBRANCH   8  50
TORSDOF 19
ENDMDL
MODEL 8
REMARK VINA RESULT:    -6.393      2.350      4.806
REMARK INTER + INTRA:         -16.706
REMARK INTER:                 -11.954
REMARK INTRA:                  -4.752
REMARK UNBOUND:                -3.772
REMARK SMILES CC[C@@H](C)[C@@H](NC(=O)[C@@H](O)Cc1ccc(O)c(Cl)c1)C(=O)N1[C@H](C(=O)NCCCCN=C(N)N)C[C@H]2CC[C@H](OS(=O)(=O)O)C[C@@H]21
REMARK SMILES IDX 22 1 36 2 46 3 35 4 23 5 45 6 37 7 39 8 38 9 20 10 21 11
REMARK SMILES IDX 5 12 6 13 7 14 8 15 9 17 11 18 12 19 17 20 19 21 15 22 14 23
REMARK SMILES IDX 13 24 18 25 16 26 10 28 3 30 4 31 2 32 1 33 24 34 25 35
REMARK SMILES IDX 26 36 27 38 28 39 29 40 30 41 31 42 32 43 33 44 34 45 40 50
REMARK SMILES IDX 41 51 42 52 43 53 44 54
REMARK H PARENT 6 16 16 27 10 29 26 37 33 46 33 47 34 48 34 49 44 55
ROOT
ATOM      1  N   UNL     1       6.640  -2.362 -15.867  1.00  0.00    -0.326 N 
ATOM      2  C   UNL     1       7.122  -4.567 -16.537  1.00  0.00     0.014 C 
ATOM      3  C   UNL     1       7.317  -3.101 -16.936  1.00  0.00     0.091 C 
ATOM      4  C   UNL     1       5.743  -4.558 -15.895  1.00  0.00     0.041 C 
ATOM      5  C   UNL     1       5.858  -3.296 -15.020  1.00  0.00     0.175 C 
ATOM      6  C   UNL     1       8.809  -2.855 -17.155  1.00  0.00     0.059 C 
ATOM      7  C   UNL     1       7.390  -5.489 -17.710  1.00  0.00     0.008 C 
ATOM      8  C   UNL     1       9.571  -4.088 -17.687  1.00  0.00     0.143 C 
ATOM      9  C   UNL     1       8.652  -5.040 -18.477  1.00  0.00     0.034 C 
ENDROOT
BRANCH   1  10
ATOM     10  C   UNL     1       6.471  -0.998 -15.700  1.00  0.00     0.246 C 
ATOM     11  O   UNL     1       5.623  -0.410 -16.380  1.00  0.00    -0.272 OA
BRANCH  10  12
ATOM     12  C   UNL     1       7.320  -0.245 -14.635  1.00  0.00     0.174 C 
BRANCH  12  13
ATOM     13  N   UNL     1       8.583  -0.948 -14.415  1.00  0.00    -0.342 N 
ATOM     14  C   UNL     1       9.815  -0.515 -14.850  1.00  0.00     0.249 C 
ATOM     15  O   UNL     1       9.994   0.535 -15.454  1.00  0.00    -0.272 OA
ATOM     16  H   UNL     1       8.573  -1.904 -14.068  1.00  0.00     0.164 HD
BRANCH  14  17
ATOM     17  C   UNL     1      10.954  -1.487 -14.476  1.00  0.00     0.207 C 
BRANCH  17  18
ATOM     18  C   UNL     1      11.984  -0.788 -13.584  1.00  0.00     0.077 C 
BRANCH  18  19
ATOM     19  C   UNL     1      11.438  -0.516 -12.201  1.00  0.00    -0.043 A 
ATOM     20  C   UNL     1      10.443  -1.317 -10.138  1.00  0.00     0.083 A 
ATOM     21  C   UNL     1      10.993  -1.575 -11.395  1.00  0.00     0.028 A 
ATOM     22  C   UNL     1      10.334  -0.003  -9.681  1.00  0.00     0.134 A 
ATOM     23  C   UNL     1      10.771   1.055 -10.469  1.00  0.00     0.048 A 
ATOM     24  C   UNL     1      11.320   0.800 -11.727  1.00  0.00     0.008 A 
ATOM     25  Cl  UNL     1       9.901  -2.632  -9.163  1.00  0.00    -0.080 Cl
BRANCH  22  26
ATOM     26  O   UNL     1       9.793   0.300  -8.461  1.00  0.00    -0.506 OA
ATOM     27  H   UNL     1      10.326  -0.170  -7.793  1.00  0.00     0.293 HD
ENDBRANCH  22  26
ENDBRANCH  18  19
ENDBRANCH  17  18
BRANCH  17  28
ATOM     28  O   UNL     1      11.607  -1.995 -15.651  1.00  0.00    -0.383 OA
ATOM     29  H   UNL     1      11.464  -2.969 -15.642  1.00  0.00     0.211 HD
ENDBRANCH  17  28
ENDBRANCH  14  17
ENDBRANCH  12  13
BRANCH  12  30
ATOM     30  C   UNL     1       6.542   0.004 -13.315  1.00  0.00     0.018 C 
ATOM     31  C   UNL     1       6.080   1.467 -13.219  1.00  0.00     0.010 C 
BRANCH  30  32
ATOM     32  C   UNL     1       7.333  -0.388 -12.044  1.00  0.00     0.002 C 
ATOM     33  C   UNL     1       6.848   0.253 -10.750  1.00  0.00     0.004 C 
ENDBRANCH  30  32
ENDBRANCH  12  30
ENDBRANCH  10  12
ENDBRANCH   1  10
BRANCH   5  34
ATOM     34  C   UNL     1       6.603  -3.588 -13.690  1.00  0.00     0.242 C 
ATOM     35  O   UNL     1       7.832  -3.602 -13.614  1.00  0.00    -0.273 OA
ATOM     36  N   UNL     1       5.793  -3.883 -12.617  1.00  0.00    -0.354 N 
ATOM     37  H   UNL     1       4.788  -3.974 -12.771  1.00  0.00     0.163 HD
BRANCH  36  38
ATOM     38  C   UNL     1       6.302  -3.968 -11.264  1.00  0.00     0.116 C 
BRANCH  38  39
ATOM     39  C   UNL     1       5.236  -3.494 -10.279  1.00  0.00     0.023 C 
BRANCH  39  40
ATOM     40  C   UNL     1       4.262  -2.502 -10.906  1.00  0.00     0.026 C 
BRANCH  40  41
ATOM     41  C   UNL     1       2.860  -3.103 -10.998  1.00  0.00     0.146 C 
BRANCH  41  42
ATOM     42  N   UNL     1       2.685  -3.749 -12.293  1.00  0.00    -0.254 NA
ATOM     43  C   UNL     1       1.529  -3.758 -12.844  1.00  0.00     0.185 C 
ATOM     44  N   UNL     1       0.362  -3.243 -12.416  1.00  0.00    -0.370 N 
ATOM     45  N   UNL     1       1.388  -4.362 -14.035  1.00  0.00    -0.370 N 
ATOM     46  H   UNL     1      -0.508  -3.534 -12.828  1.00  0.00     0.159 HD
ATOM     47  H   UNL     1       0.292  -2.739 -11.538  1.00  0.00     0.159 HD
ATOM     48  H   UNL     1       2.223  -4.770 -14.433  1.00  0.00     0.159 HD
ATOM     49  H   UNL     1       0.593  -4.211 -14.631  1.00  0.00     0.159 HD
ENDBRANCH  41  42
ENDBRANCH  40  41
ENDBRANCH  39  40
ENDBRANCH  38  39
ENDBRANCH  36  38
ENDBRANCH   5  34
BRANCH   8  50
ATOM     50  O   UNL     1      10.149  -4.813 -16.601  1.00  0.00    -0.245 OA
BRANCH  50  51
ATOM     51  S   UNL     1      11.638  -5.448 -16.761  1.00  0.00     0.397 S 
ATOM     52  O   UNL     1      12.226  -4.908 -17.966  1.00  0.00    -0.169 OA
ATOM     53  O   UNL     1      11.589  -6.873 -16.513  1.00  0.00    -0.169 OA
BRANCH  51  54
ATOM     54  O   UNL     1      12.429  -4.759 -15.542  1.00  0.00    -0.264 OA
ATOM     55  H   UNL     1      12.596  -3.826 -15.784  1.00  0.00     0.236 HD
ENDBRANCH  51  54
ENDBRANCH  50  51
ENDBRANCH   8  50
TORSDOF 19
ENDMDL
MODEL 9
REMARK VINA RESULT:    -6.372      3.115      6.134
REMARK INTER + INTRA:         -16.663
REMARK INTER:                 -12.581
REMARK INTRA:                  -4.082
REMARK UNBOUND:                -3.772
REMARK SMILES CC[C@@H](C)[C@@H](NC(=O)[C@@H](O)Cc1ccc(O)c(Cl)c1)C(=O)N1[C@H](C(=O)NCCCCN=C(N)N)C[C@H]2CC[C@H](OS(=O)(=O)O)C[C@@H]21
REMARK SMILES IDX 22 1 36 2 46 3 35 4 23 5 45 6 37 7 39 8 38 9 20 10 21 11
REMARK SMILES IDX 5 12 6 13 7 14 8 15 9 17 11 18 12 19 17 20 19 21 15 22 14 23
REMARK SMILES IDX 13 24 18 25 16 26 10 28 3 30 4 31 2 32 1 33 24 34 25 35
REMARK SMILES IDX 26 36 27 38 28 39 29 40 30 41 31 42 32 43 33 44 34 45 40 50
REMARK SMILES IDX 41 51 42 52 43 53 44 54
REMARK H PARENT 6 16 16 27 10 29 26 37 33 46 33 47 34 48 34 49 44 55
ROOT
ATOM      1  N   UNL     1       7.336  -2.603 -12.535  1.00  0.00    -0.326 N 
ATOM      2  C   UNL     1       5.007  -2.557 -12.875  1.00  0.00     0.014 C 
ATOM      3  C   UNL     1       6.246  -1.660 -12.797  1.00  0.00     0.091 C 
ATOM      4  C   UNL     1       5.314  -3.642 -11.854  1.00  0.00     0.041 C 
ATOM      5  C   UNL     1       6.782  -3.941 -12.209  1.00  0.00     0.175 C 
ATOM      6  C   UNL     1       6.310  -0.813 -14.067  1.00  0.00     0.059 C 
ATOM      7  C   UNL     1       3.737  -1.741 -12.734  1.00  0.00     0.008 C 
ATOM      8  C   UNL     1       4.924  -0.461 -14.650  1.00  0.00     0.143 C 
ATOM      9  C   UNL     1       3.827  -0.445 -13.566  1.00  0.00     0.034 C 
ENDROOT
BRANCH   1  10
ATOM     10  C   UNL     1       8.687  -2.369 -12.347  1.00  0.00     0.246 C 
ATOM     11  O   UNL     1       9.428  -2.299 -13.334  1.00  0.00    -0.272 OA
BRANCH  10  12
ATOM     12  C   UNL     1       9.236  -2.156 -10.907  1.00  0.00     0.174 C 
BRANCH  12  13
ATOM     13  N   UNL     1       8.354  -1.256 -10.164  1.00  0.00    -0.342 N 
ATOM     14  C   UNL     1       8.001  -1.408  -8.842  1.00  0.00     0.249 C 
ATOM     15  O   UNL     1       8.416  -2.310  -8.125  1.00  0.00    -0.272 OA
ATOM     16  H   UNL     1       7.812  -0.556 -10.665  1.00  0.00     0.164 HD
BRANCH  14  17
ATOM     17  C   UNL     1       7.040  -0.304  -8.351  1.00  0.00     0.207 C 
BRANCH  17  18
ATOM     18  C   UNL     1       6.081   0.109  -9.473  1.00  0.00     0.077 C 
BRANCH  18  19
ATOM     19  C   UNL     1       4.729  -0.552  -9.326  1.00  0.00    -0.043 A 
ATOM     20  C   UNL     1       3.388  -2.515  -8.843  1.00  0.00     0.083 A 
ATOM     21  C   UNL     1       4.635  -1.895  -8.929  1.00  0.00     0.028 A 
ATOM     22  C   UNL     1       2.230  -1.801  -9.154  1.00  0.00     0.134 A 
ATOM     23  C   UNL     1       2.308  -0.470  -9.548  1.00  0.00     0.048 A 
ATOM     24  C   UNL     1       3.555   0.153  -9.637  1.00  0.00     0.008 A 
ATOM     25  Cl  UNL     1       3.294  -4.166  -8.353  1.00  0.00    -0.080 Cl
BRANCH  22  26
ATOM     26  O   UNL     1       0.987  -2.369  -9.094  1.00  0.00    -0.506 OA
ATOM     27  H   UNL     1       0.345  -1.636  -9.064  1.00  0.00     0.293 HD
ENDBRANCH  22  26
ENDBRANCH  18  19
ENDBRANCH  17  18
BRANCH  17  28
ATOM     28  O   UNL     1       7.766   0.849  -7.897  1.00  0.00    -0.383 OA
ATOM     29  H   UNL     1       8.600   0.870  -8.420  1.00  0.00     0.211 HD
ENDBRANCH  17  28
ENDBRANCH  14  17
ENDBRANCH  12  13
BRANCH  12  30
ATOM     30  C   UNL     1      10.714  -1.680 -10.892  1.00  0.00     0.018 C 
ATOM     31  C   UNL     1      11.484  -2.326  -9.729  1.00  0.00     0.010 C 
BRANCH  30  32
ATOM     32  C   UNL     1      10.872  -0.141 -10.845  1.00  0.00     0.002 C 
ATOM     33  C   UNL     1      11.315   0.508 -12.149  1.00  0.00     0.004 C 
ENDBRANCH  30  32
ENDBRANCH  12  30
ENDBRANCH  10  12
ENDBRANCH   1  10
BRANCH   5  34
ATOM     34  C   UNL     1       6.894  -4.894 -13.428  1.00  0.00     0.242 C 
ATOM     35  O   UNL     1       6.387  -6.016 -13.435  1.00  0.00    -0.273 OA
ATOM     36  N   UNL     1       7.644  -4.416 -14.479  1.00  0.00    -0.354 N 
ATOM     37  H   UNL     1       8.138  -3.530 -14.367  1.00  0.00     0.163 HD
BRANCH  36  38
ATOM     38  C   UNL     1       7.675  -5.073 -15.769  1.00  0.00     0.116 C 
BRANCH  38  39
ATOM     39  C   UNL     1       8.366  -4.175 -16.792  1.00  0.00     0.023 C 
BRANCH  39  40
ATOM     40  C   UNL     1       9.882  -4.167 -16.632  1.00  0.00     0.026 C 
BRANCH  40  41
ATOM     41  C   UNL     1      10.509  -3.042 -17.455  1.00  0.00     0.146 C 
BRANCH  41  42
ATOM     42  N   UNL     1       9.852  -1.779 -17.144  1.00  0.00    -0.254 NA
ATOM     43  C   UNL     1       9.861  -0.832 -18.005  1.00  0.00     0.185 C 
ATOM     44  N   UNL     1      10.405  -0.786 -19.235  1.00  0.00    -0.370 N 
ATOM     45  N   UNL     1       9.254   0.326 -17.697  1.00  0.00    -0.370 N 
ATOM     46  H   UNL     1      10.549   0.095 -19.699  1.00  0.00     0.159 HD
ATOM     47  H   UNL     1      10.892  -1.583 -19.632  1.00  0.00     0.159 HD
ATOM     48  H   UNL     1       8.810   0.372 -16.790  1.00  0.00     0.159 HD
ATOM     49  H   UNL     1       9.014   1.014 -18.388  1.00  0.00     0.159 HD
ENDBRANCH  41  42
ENDBRANCH  40  41
ENDBRANCH  39  40
ENDBRANCH  38  39
ENDBRANCH  36  38
ENDBRANCH   5  34
BRANCH   8  50
ATOM     50  O   UNL     1       4.558  -1.410 -15.652  1.00  0.00    -0.245 OA
BRANCH  50  51
ATOM     51  S   UNL     1       5.258  -1.339 -17.119  1.00  0.00     0.397 S 
ATOM     52  O   UNL     1       5.229  -2.666 -17.691  1.00  0.00    -0.169 OA
ATOM     53  O   UNL     1       6.484  -0.574 -17.036  1.00  0.00    -0.169 OA
BRANCH  51  54
ATOM     54  O   UNL     1       4.191  -0.477 -17.958  1.00  0.00    -0.264 OA
ATOM     55  H   UNL     1       4.393   0.470 -17.813  1.00  0.00     0.236 HD
ENDBRANCH  51  54
ENDBRANCH  50  51
ENDBRANCH   8  50
TORSDOF 19
ENDMDL
MODEL 10
REMARK VINA RESULT:    -6.274      1.838      3.041
REMARK INTER + INTRA:         -16.463
REMARK INTER:                 -14.056
REMARK INTRA:                  -2.408
REMARK UNBOUND:                -3.772
REMARK SMILES CC[C@@H](C)[C@@H](NC(=O)[C@@H](O)Cc1ccc(O)c(Cl)c1)C(=O)N1[C@H](C(=O)NCCCCN=C(N)N)C[C@H]2CC[C@H](OS(=O)(=O)O)C[C@@H]21
REMARK SMILES IDX 22 1 36 2 46 3 35 4 23 5 45 6 37 7 39 8 38 9 20 10 21 11
REMARK SMILES IDX 5 12 6 13 7 14 8 15 9 17 11 18 12 19 17 20 19 21 15 22 14 23
REMARK SMILES IDX 13 24 18 25 16 26 10 28 3 30 4 31 2 32 1 33 24 34 25 35
REMARK SMILES IDX 26 36 27 38 28 39 29 40 30 41 31 42 32 43 33 44 34 45 40 50
REMARK SMILES IDX 41 51 42 52 43 53 44 54
REMARK H PARENT 6 16 16 27 10 29 26 37 33 46 33 47 34 48 34 49 44 55
ROOT
ATOM      1  N   UNL     1       8.769  -1.938 -16.420  1.00  0.00    -0.326 N 
ATOM      2  C   UNL     1       9.485  -2.788 -18.495  1.00  0.00     0.014 C 
ATOM      3  C   UNL     1       9.995  -2.172 -17.189  1.00  0.00     0.091 C 
ATOM      4  C   UNL     1       8.160  -2.071 -18.709  1.00  0.00     0.041 C 
ATOM      5  C   UNL     1       7.580  -2.141 -17.284  1.00  0.00     0.175 C 
ATOM      6  C   UNL     1      11.054  -3.101 -16.599  1.00  0.00     0.059 C 
ATOM      7  C   UNL     1      10.547  -2.725 -19.575  1.00  0.00     0.008 C 
ATOM      8  C   UNL     1      11.869  -3.869 -17.662  1.00  0.00     0.143 C 
ATOM      9  C   UNL     1      11.927  -3.113 -19.005  1.00  0.00     0.034 C 
ENDROOT
BRANCH   1  10
ATOM     10  C   UNL     1       8.603  -1.380 -15.163  1.00  0.00     0.246 C 
ATOM     11  O   UNL     1       7.661  -1.756 -14.459  1.00  0.00    -0.272 OA
BRANCH  10  12
ATOM     12  C   UNL     1       9.627  -0.327 -14.650  1.00  0.00     0.174 C 
BRANCH  12  13
ATOM     13  N   UNL     1       9.707  -0.378 -13.191  1.00  0.00    -0.342 N 
ATOM     14  C   UNL     1      10.612  -1.128 -12.475  1.00  0.00     0.249 C 
ATOM     15  O   UNL     1      11.481  -1.822 -12.988  1.00  0.00    -0.272 OA
ATOM     16  H   UNL     1       8.957   0.020 -12.631  1.00  0.00     0.164 HD
BRANCH  14  17
ATOM     17  C   UNL     1      10.430  -0.984 -10.949  1.00  0.00     0.207 C 
BRANCH  17  18
ATOM     18  C   UNL     1      10.068  -2.334 -10.323  1.00  0.00     0.077 C 
BRANCH  18  19
ATOM     19  C   UNL     1       8.587  -2.622 -10.427  1.00  0.00    -0.043 A 
ATOM     20  C   UNL     1       6.346  -2.474  -9.511  1.00  0.00     0.083 A 
ATOM     21  C   UNL     1       7.704  -2.164  -9.437  1.00  0.00     0.028 A 
ATOM     22  C   UNL     1       5.862  -3.243 -10.569  1.00  0.00     0.134 A 
ATOM     23  C   UNL     1       6.725  -3.703 -11.557  1.00  0.00     0.048 A 
ATOM     24  C   UNL     1       8.085  -3.396 -11.485  1.00  0.00     0.008 A 
ATOM     25  Cl  UNL     1       5.277  -1.901  -8.284  1.00  0.00    -0.080 Cl
BRANCH  22  26
ATOM     26  O   UNL     1       4.540  -3.581 -10.679  1.00  0.00    -0.506 OA
ATOM     27  H   UNL     1       4.383  -4.306 -10.046  1.00  0.00     0.293 HD
ENDBRANCH  22  26
ENDBRANCH  18  19
ENDBRANCH  17  18
BRANCH  17  28
ATOM     28  O   UNL     1       9.407  -0.024 -10.638  1.00  0.00    -0.383 OA
ATOM     29  H   UNL     1       8.754  -0.496 -10.072  1.00  0.00     0.211 HD
ENDBRANCH  17  28
ENDBRANCH  14  17
ENDBRANCH  12  13
BRANCH  12  30
ATOM     30  C   UNL     1       9.332   1.104 -15.178  1.00  0.00     0.018 C 
ATOM     31  C   UNL     1       8.643   1.953 -14.098  1.00  0.00     0.010 C 
BRANCH  30  32
ATOM     32  C   UNL     1       8.501   1.125 -16.483  1.00  0.00     0.002 C 
ATOM     33  C   UNL     1       7.440   2.215 -16.561  1.00  0.00     0.004 C 
ENDBRANCH  30  32
ENDBRANCH  12  30
ENDBRANCH  10  12
ENDBRANCH   1  10
BRANCH   5  34
ATOM     34  C   UNL     1       6.923  -3.518 -17.000  1.00  0.00     0.242 C 
ATOM     35  O   UNL     1       7.110  -4.497 -17.722  1.00  0.00    -0.273 OA
ATOM     36  N   UNL     1       6.075  -3.549 -15.916  1.00  0.00    -0.354 N 
ATOM     37  H   UNL     1       5.867  -2.677 -15.429  1.00  0.00     0.163 HD
BRANCH  36  38
ATOM     38  C   UNL     1       5.549  -4.789 -15.382  1.00  0.00     0.116 C 
BRANCH  38  39
ATOM     39  C   UNL     1       4.072  -4.619 -15.036  1.00  0.00     0.023 C 
BRANCH  39  40
ATOM     40  C   UNL     1       3.824  -3.445 -14.095  1.00  0.00     0.026 C 
BRANCH  40  41
ATOM     41  C   UNL     1       2.331  -3.283 -13.811  1.00  0.00     0.146 C 
BRANCH  41  42
ATOM     42  N   UNL     1       2.140  -2.738 -12.473  1.00  0.00    -0.254 NA
ATOM     43  C   UNL     1       1.559  -3.445 -11.579  1.00  0.00     0.185 C 
ATOM     44  N   UNL     1       1.056  -4.691 -11.652  1.00  0.00    -0.370 N 
ATOM     45  N   UNL     1       1.389  -2.923 -10.353  1.00  0.00    -0.370 N 
ATOM     46  H   UNL     1       0.415  -5.028 -10.954  1.00  0.00     0.159 HD
ATOM     47  H   UNL     1       1.112  -5.239 -12.505  1.00  0.00     0.159 HD
ATOM     48  H   UNL     1       1.748  -1.989 -10.210  1.00  0.00     0.159 HD
ATOM     49  H   UNL     1       1.166  -3.483  -9.549  1.00  0.00     0.159 HD
ENDBRANCH  41  42
ENDBRANCH  40  41
ENDBRANCH  39  40
ENDBRANCH  38  39
ENDBRANCH  36  38
ENDBRANCH   5  34
BRANCH   8  50
ATOM     50  O   UNL     1      11.291  -5.154 -17.889  1.00  0.00    -0.245 OA
BRANCH  50  51
ATOM     51  S   UNL     1      11.143  -6.199 -16.650  1.00  0.00     0.397 S 
ATOM     52  O   UNL     1      11.863  -5.656 -15.521  1.00  0.00    -0.169 OA
ATOM     53  O   UNL     1      11.376  -7.548 -17.122  1.00  0.00    -0.169 OA
BRANCH  51  54
ATOM     54  O   UNL     1       9.584  -6.064 -16.282  1.00  0.00    -0.264 OA
ATOM     55  H   UNL     1       9.107  -5.798 -17.094  1.00  0.00     0.236 HD
ENDBRANCH  51  54
ENDBRANCH  50  51
ENDBRANCH   8  50
TORSDOF 19
ENDMDL
