MODEL 1
REMARK VINA RESULT:    -8.803      0.000      0.000
REMARK INTER + INTRA:         -27.232
REMARK INTER:                 -21.925
REMARK INTRA:                  -5.306
REMARK UNBOUND:                -5.306
REMARK SMILES CCCCCCC[C@H](N)[C@H](O)C(=O)N[C@H](C)C(=O)N(C)[C@H](CC(C)C)C(=O)N[C@@H](Cc1ccc(O)cc1)C(=O)N[C@@H](Cc1ccc(O)cc1)C(=O)O
REMARK SMILES IDX 18 1 17 2 15 3 16 4 14 5 12 6 13 7 10 9 11 10 8 12 9 13 7 16
REMARK SMILES IDX 6 17 5 18 4 19 3 20 2 21 1 22 19 23 20 24 21 25 22 26 23 27
REMARK SMILES IDX 24 28 25 29 26 30 27 31 28 32 29 34 30 35 31 36 32 37 37 38
REMARK SMILES IDX 33 39 36 40 34 41 35 42 38 44 39 45 40 46 41 48 42 49 43 50
REMARK SMILES IDX 44 51 49 52 45 53 48 54 46 55 47 56 50 58 51 59 52 60
REMARK H PARENT 14 8 11 11 9 14 9 15 28 33 35 43 40 47 47 57 52 61
ROOT
ATOM      1  O   UNL     1      -4.522  -6.762   0.784  1.00  0.00    -0.272 OA
ATOM      2  C   UNL     1      -5.163  -7.102  -0.222  1.00  0.00     0.245 C 
ENDROOT
BRANCH   2   3
ATOM      3  C   UNL     1      -4.432  -7.140  -1.587  1.00  0.00     0.168 C 
ATOM      4  C   UNL     1      -4.798  -8.401  -2.362  1.00  0.00     0.041 C 
BRANCH   3   5
ATOM      5  N   UNL     1      -4.586  -5.942  -2.397  1.00  0.00    -0.342 N 
ATOM      6  C   UNL     1      -3.822  -4.815  -2.182  1.00  0.00     0.251 C 
ATOM      7  O   UNL     1      -2.995  -4.720  -1.281  1.00  0.00    -0.272 OA
ATOM      8  H   UNL     1      -5.266  -5.889  -3.152  1.00  0.00     0.164 HD
BRANCH   6   9
ATOM      9  C   UNL     1      -4.055  -3.727  -3.243  1.00  0.00     0.219 C 
BRANCH   9  10
ATOM     10  O   UNL     1      -3.356  -2.511  -2.951  1.00  0.00    -0.382 OA
ATOM     11  H   UNL     1      -2.584  -2.538  -3.559  1.00  0.00     0.211 HD
ENDBRANCH   9  10
BRANCH   9  12
ATOM     12  C   UNL     1      -3.747  -4.207  -4.686  1.00  0.00     0.089 C 
BRANCH  12  13
ATOM     13  N   UNL     1      -4.846  -3.761  -5.572  1.00  0.00    -0.325 NA
ATOM     14  H   UNL     1      -5.408  -3.061  -5.083  1.00  0.00     0.119 HD
ATOM     15  H   UNL     1      -5.481  -4.547  -5.734  1.00  0.00     0.119 HD
ENDBRANCH  12  13
BRANCH  12  16
ATOM     16  C   UNL     1      -2.383  -3.769  -5.269  1.00  0.00     0.022 C 
BRANCH  16  17
ATOM     17  C   UNL     1      -1.239  -4.790  -5.343  1.00  0.00     0.002 C 
BRANCH  17  18
ATOM     18  C   UNL     1      -1.447  -6.052  -4.508  1.00  0.00     0.000 C 
BRANCH  18  19
ATOM     19  C   UNL     1      -1.533  -7.341  -5.336  1.00  0.00    -0.000 C 
BRANCH  19  20
ATOM     20  C   UNL     1      -2.928  -7.677  -5.871  1.00  0.00    -0.000 C 
BRANCH  20  21
ATOM     21  C   UNL     1      -3.319  -9.140  -5.647  1.00  0.00    -0.003 C 
ATOM     22  C   UNL     1      -2.100 -10.003  -5.361  1.00  0.00     0.004 C 
ENDBRANCH  20  21
ENDBRANCH  19  20
ENDBRANCH  18  19
ENDBRANCH  17  18
ENDBRANCH  16  17
ENDBRANCH  12  16
ENDBRANCH   9  12
ENDBRANCH   6   9
ENDBRANCH   3   5
ENDBRANCH   2   3
BRANCH   2  23
ATOM     23  N   UNL     1      -6.471  -7.555  -0.093  1.00  0.00    -0.332 N 
ATOM     24  C   UNL     1      -6.859  -8.956  -0.039  1.00  0.00     0.147 C 
BRANCH  23  25
ATOM     25  C   UNL     1      -7.581  -6.588   0.132  1.00  0.00     0.174 C 
BRANCH  25  26
ATOM     26  C   UNL     1      -8.978  -7.208  -0.112  1.00  0.00     0.038 C 
BRANCH  26  27
ATOM     27  C   UNL     1     -10.200  -6.290   0.112  1.00  0.00    -0.015 C 
ATOM     28  C   UNL     1     -11.508  -6.936  -0.343  1.00  0.00     0.007 C 
ATOM     29  C   UNL     1     -10.323  -5.781   1.547  1.00  0.00     0.007 C 
ENDBRANCH  26  27
ENDBRANCH  25  26
BRANCH  25  30
ATOM     30  C   UNL     1      -7.329  -5.291  -0.671  1.00  0.00     0.243 C 
ATOM     31  O   UNL     1      -7.565  -5.216  -1.876  1.00  0.00    -0.273 OA
ATOM     32  N   UNL     1      -6.821  -4.239   0.047  1.00  0.00    -0.342 N 
ATOM     33  H   UNL     1      -6.785  -4.334   1.065  1.00  0.00     0.164 HD
BRANCH  32  34
ATOM     34  C   UNL     1      -6.494  -2.943  -0.553  1.00  0.00     0.175 C 
BRANCH  34  35
ATOM     35  C   UNL     1      -7.672  -1.963  -0.441  1.00  0.00     0.070 C 
BRANCH  35  36
ATOM     36  C   UNL     1      -7.973  -1.571   0.988  1.00  0.00    -0.045 A 
ATOM     37  C   UNL     1      -7.409  -0.407   1.530  1.00  0.00     0.007 A 
ATOM     38  C   UNL     1      -8.795  -2.370   1.794  1.00  0.00     0.007 A 
ATOM     39  C   UNL     1      -7.670  -0.044   2.852  1.00  0.00     0.046 A 
ATOM     40  C   UNL     1      -9.056  -2.009   3.118  1.00  0.00     0.046 A 
ATOM     41  C   UNL     1      -8.492  -0.847   3.635  1.00  0.00     0.115 A 
BRANCH  41  42
ATOM     42  O   UNL     1      -8.719  -0.459   4.922  1.00  0.00    -0.508 OA
ATOM     43  H   UNL     1      -9.670  -0.288   5.025  1.00  0.00     0.293 HD
ENDBRANCH  41  42
ENDBRANCH  35  36
ENDBRANCH  34  35
BRANCH  34  44
ATOM     44  C   UNL     1      -5.224  -2.401   0.141  1.00  0.00     0.243 C 
ATOM     45  O   UNL     1      -4.461  -1.576  -0.355  1.00  0.00    -0.273 OA
ATOM     46  N   UNL     1      -4.941  -3.028   1.336  1.00  0.00    -0.341 N 
ATOM     47  H   UNL     1      -5.540  -3.788   1.649  1.00  0.00     0.164 HD
BRANCH  46  48
ATOM     48  C   UNL     1      -3.754  -2.732   2.140  1.00  0.00     0.196 C 
BRANCH  48  49
ATOM     49  C   UNL     1      -4.137  -2.156   3.514  1.00  0.00     0.072 C 
BRANCH  49  50
ATOM     50  C   UNL     1      -3.862  -0.673   3.620  1.00  0.00    -0.045 A 
ATOM     51  C   UNL     1      -3.011  -0.052   2.695  1.00  0.00     0.007 A 
ATOM     52  C   UNL     1      -4.429   0.093   4.647  1.00  0.00     0.007 A 
ATOM     53  C   UNL     1      -2.740   1.313   2.791  1.00  0.00     0.046 A 
ATOM     54  C   UNL     1      -4.156   1.459   4.744  1.00  0.00     0.046 A 
ATOM     55  C   UNL     1      -3.314   2.058   3.814  1.00  0.00     0.115 A 
BRANCH  55  56
ATOM     56  O   UNL     1      -3.021   3.389   3.874  1.00  0.00    -0.508 OA
ATOM     57  H   UNL     1      -2.192   3.498   4.366  1.00  0.00     0.293 HD
ENDBRANCH  55  56
ENDBRANCH  49  50
ENDBRANCH  48  49
BRANCH  48  58
ATOM     58  C   UNL     1      -2.945  -4.022   2.330  1.00  0.00     0.326 C 
ATOM     59  O   UNL     1      -1.801  -4.239   1.962  1.00  0.00    -0.250 OA
BRANCH  58  60
ATOM     60  O   UNL     1      -3.620  -4.991   2.999  1.00  0.00    -0.480 OA
ATOM     61  H   UNL     1      -4.051  -5.503   2.281  1.00  0.00     0.296 HD
ENDBRANCH  58  60
ENDBRANCH  48  58
ENDBRANCH  46  48
ENDBRANCH  34  44
ENDBRANCH  32  34
ENDBRANCH  25  30
ENDBRANCH  23  25
ENDBRANCH   2  23
TORSDOF 28
ENDMDL
MODEL 2
REMARK VINA RESULT:    -8.762      3.237      5.129
REMARK INTER + INTRA:         -27.131
REMARK INTER:                 -21.423
REMARK INTRA:                  -5.708
REMARK UNBOUND:                -5.306
REMARK SMILES CCCCCCC[C@H](N)[C@H](O)C(=O)N[C@H](C)C(=O)N(C)[C@H](CC(C)C)C(=O)N[C@@H](Cc1ccc(O)cc1)C(=O)N[C@@H](Cc1ccc(O)cc1)C(=O)O
REMARK SMILES IDX 18 1 17 2 15 3 16 4 14 5 12 6 13 7 10 9 11 10 8 12 9 13 7 16
REMARK SMILES IDX 6 17 5 18 4 19 3 20 2 21 1 22 19 23 20 24 21 25 22 26 23 27
REMARK SMILES IDX 24 28 25 29 26 30 27 31 28 32 29 34 30 35 31 36 32 37 37 38
REMARK SMILES IDX 33 39 36 40 34 41 35 42 38 44 39 45 40 46 41 48 42 49 43 50
REMARK SMILES IDX 44 51 49 52 45 53 48 54 46 55 47 56 50 58 51 59 52 60
REMARK H PARENT 14 8 11 11 9 14 9 15 28 33 35 43 40 47 47 57 52 61
ROOT
ATOM      1  O   UNL     1     -10.232  -7.691   1.995  1.00  0.00    -0.272 OA
ATOM      2  C   UNL     1      -9.496  -6.970   2.685  1.00  0.00     0.245 C 
ENDROOT
BRANCH   2   3
ATOM      3  C   UNL     1      -8.021  -7.398   2.891  1.00  0.00     0.168 C 
ATOM      4  C   UNL     1      -7.931  -8.592   3.834  1.00  0.00     0.041 C 
BRANCH   3   5
ATOM      5  N   UNL     1      -7.272  -7.618   1.663  1.00  0.00    -0.342 N 
ATOM      6  C   UNL     1      -6.040  -7.038   1.449  1.00  0.00     0.251 C 
ATOM      7  O   UNL     1      -5.506  -6.271   2.243  1.00  0.00    -0.272 OA
ATOM      8  H   UNL     1      -7.629  -8.208   0.916  1.00  0.00     0.164 HD
BRANCH   6   9
ATOM      9  C   UNL     1      -5.372  -7.524   0.152  1.00  0.00     0.219 C 
BRANCH   9  10
ATOM     10  O   UNL     1      -4.502  -6.541  -0.423  1.00  0.00    -0.382 OA
ATOM     11  H   UNL     1      -3.603  -6.895  -0.243  1.00  0.00     0.211 HD
ENDBRANCH   9  10
BRANCH   9  12
ATOM     12  C   UNL     1      -4.639  -8.880   0.315  1.00  0.00     0.089 C 
BRANCH  12  13
ATOM     13  N   UNL     1      -4.442  -9.134   1.761  1.00  0.00    -0.325 NA
ATOM     14  H   UNL     1      -3.838  -9.950   1.880  1.00  0.00     0.119 HD
ATOM     15  H   UNL     1      -5.338  -9.404   2.174  1.00  0.00     0.119 HD
ENDBRANCH  12  13
BRANCH  12  16
ATOM     16  C   UNL     1      -5.316 -10.102  -0.352  1.00  0.00     0.022 C 
BRANCH  16  17
ATOM     17  C   UNL     1      -6.394 -10.873   0.422  1.00  0.00     0.002 C 
BRANCH  17  18
ATOM     18  C   UNL     1      -6.233 -12.391   0.413  1.00  0.00     0.000 C 
BRANCH  18  19
ATOM     19  C   UNL     1      -7.301 -13.128  -0.406  1.00  0.00    -0.000 C 
BRANCH  19  20
ATOM     20  C   UNL     1      -7.791 -14.446   0.201  1.00  0.00    -0.000 C 
BRANCH  20  21
ATOM     21  C   UNL     1      -7.085 -15.673  -0.382  1.00  0.00    -0.003 C 
ATOM     22  C   UNL     1      -7.030 -16.812   0.624  1.00  0.00     0.004 C 
ENDBRANCH  20  21
ENDBRANCH  19  20
ENDBRANCH  18  19
ENDBRANCH  17  18
ENDBRANCH  16  17
ENDBRANCH  12  16
ENDBRANCH   9  12
ENDBRANCH   6   9
ENDBRANCH   3   5
ENDBRANCH   2   3
BRANCH   2  23
ATOM     23  N   UNL     1      -9.962  -5.746   3.154  1.00  0.00    -0.332 N 
ATOM     24  C   UNL     1     -11.234  -5.552   3.833  1.00  0.00     0.147 C 
BRANCH  23  25
ATOM     25  C   UNL     1      -9.092  -4.539   3.096  1.00  0.00     0.174 C 
BRANCH  25  26
ATOM     26  C   UNL     1      -9.748  -3.293   3.737  1.00  0.00     0.038 C 
BRANCH  26  27
ATOM     27  C   UNL     1      -8.829  -2.082   4.011  1.00  0.00    -0.015 C 
ATOM     28  C   UNL     1      -9.570  -0.927   4.684  1.00  0.00     0.007 C 
ATOM     29  C   UNL     1      -7.569  -2.440   4.794  1.00  0.00     0.007 C 
ENDBRANCH  26  27
ENDBRANCH  25  26
BRANCH  25  30
ATOM     30  C   UNL     1      -8.600  -4.307   1.649  1.00  0.00     0.243 C 
ATOM     31  O   UNL     1      -9.299  -4.577   0.673  1.00  0.00    -0.273 OA
ATOM     32  N   UNL     1      -7.336  -3.788   1.528  1.00  0.00    -0.342 N 
ATOM     33  H   UNL     1      -6.876  -3.459   2.381  1.00  0.00     0.164 HD
BRANCH  32  34
ATOM     34  C   UNL     1      -6.696  -3.528   0.236  1.00  0.00     0.175 C 
BRANCH  34  35
ATOM     35  C   UNL     1      -7.435  -2.429  -0.543  1.00  0.00     0.070 C 
BRANCH  35  36
ATOM     36  C   UNL     1      -7.724  -1.208   0.301  1.00  0.00    -0.045 A 
ATOM     37  C   UNL     1      -9.036  -0.724   0.409  1.00  0.00     0.007 A 
ATOM     38  C   UNL     1      -6.692  -0.533   0.965  1.00  0.00     0.007 A 
ATOM     39  C   UNL     1      -9.310   0.410   1.174  1.00  0.00     0.046 A 
ATOM     40  C   UNL     1      -6.965   0.604   1.730  1.00  0.00     0.046 A 
ATOM     41  C   UNL     1      -8.274   1.064   1.829  1.00  0.00     0.115 A 
BRANCH  41  42
ATOM     42  O   UNL     1      -8.583   2.170   2.563  1.00  0.00    -0.508 OA
ATOM     43  H   UNL     1      -8.463   1.955   3.503  1.00  0.00     0.293 HD
ENDBRANCH  41  42
ENDBRANCH  35  36
ENDBRANCH  34  35
BRANCH  34  44
ATOM     44  C   UNL     1      -5.220  -3.156   0.499  1.00  0.00     0.243 C 
ATOM     45  O   UNL     1      -4.379  -2.988  -0.380  1.00  0.00    -0.273 OA
ATOM     46  N   UNL     1      -4.884  -3.155   1.836  1.00  0.00    -0.341 N 
ATOM     47  H   UNL     1      -5.588  -3.415   2.523  1.00  0.00     0.164 HD
BRANCH  46  48
ATOM     48  C   UNL     1      -3.528  -2.898   2.327  1.00  0.00     0.196 C 
BRANCH  48  49
ATOM     49  C   UNL     1      -3.546  -2.359   3.767  1.00  0.00     0.072 C 
BRANCH  49  50
ATOM     50  C   UNL     1      -3.692  -0.856   3.824  1.00  0.00    -0.045 A 
ATOM     51  C   UNL     1      -2.985  -0.050   2.919  1.00  0.00     0.007 A 
ATOM     52  C   UNL     1      -4.510  -0.246   4.784  1.00  0.00     0.007 A 
ATOM     53  C   UNL     1      -3.102   1.339   2.970  1.00  0.00     0.046 A 
ATOM     54  C   UNL     1      -4.626   1.145   4.836  1.00  0.00     0.046 A 
ATOM     55  C   UNL     1      -3.921   1.926   3.927  1.00  0.00     0.115 A 
BRANCH  55  56
ATOM     56  O   UNL     1      -4.006   3.287   3.945  1.00  0.00    -0.508 OA
ATOM     57  H   UNL     1      -3.206   3.637   4.368  1.00  0.00     0.293 HD
ENDBRANCH  55  56
ENDBRANCH  49  50
ENDBRANCH  48  49
BRANCH  48  58
ATOM     58  C   UNL     1      -2.724  -4.204   2.276  1.00  0.00     0.326 C 
ATOM     59  O   UNL     1      -1.765  -4.454   1.564  1.00  0.00    -0.250 OA
BRANCH  58  60
ATOM     60  O   UNL     1      -3.163  -5.145   3.149  1.00  0.00    -0.480 OA
ATOM     61  H   UNL     1      -3.505  -5.855   2.564  1.00  0.00     0.296 HD
ENDBRANCH  58  60
ENDBRANCH  48  58
ENDBRANCH  46  48
ENDBRANCH  34  44
ENDBRANCH  32  34
ENDBRANCH  25  30
ENDBRANCH  23  25
ENDBRANCH   2  23
TORSDOF 28
ENDMDL
MODEL 3
REMARK VINA RESULT:    -8.715      3.461      7.632
REMARK INTER + INTRA:         -27.013
REMARK INTER:                 -21.063
REMARK INTRA:                  -5.950
REMARK UNBOUND:                -5.306
REMARK SMILES CCCCCCC[C@H](N)[C@H](O)C(=O)N[C@H](C)C(=O)N(C)[C@H](CC(C)C)C(=O)N[C@@H](Cc1ccc(O)cc1)C(=O)N[C@@H](Cc1ccc(O)cc1)C(=O)O
REMARK SMILES IDX 18 1 17 2 15 3 16 4 14 5 12 6 13 7 10 9 11 10 8 12 9 13 7 16
REMARK SMILES IDX 6 17 5 18 4 19 3 20 2 21 1 22 19 23 20 24 21 25 22 26 23 27
REMARK SMILES IDX 24 28 25 29 26 30 27 31 28 32 29 34 30 35 31 36 32 37 37 38
REMARK SMILES IDX 33 39 36 40 34 41 35 42 38 44 39 45 40 46 41 48 42 49 43 50
REMARK SMILES IDX 44 51 49 52 45 53 48 54 46 55 47 56 50 58 51 59 52 60
REMARK H PARENT 14 8 11 11 9 14 9 15 28 33 35 43 40 47 47 57 52 61
ROOT
ATOM      1  O   UNL     1     -10.462  -4.183   8.379  1.00  0.00    -0.272 OA
ATOM      2  C   UNL     1      -9.933  -4.832   7.464  1.00  0.00     0.245 C 
ENDROOT
BRANCH   2   3
ATOM      3  C   UNL     1     -10.564  -6.186   7.055  1.00  0.00     0.168 C 
ATOM      4  C   UNL     1     -12.006  -5.996   6.599  1.00  0.00     0.041 C 
BRANCH   3   5
ATOM      5  N   UNL     1      -9.789  -6.956   6.094  1.00  0.00    -0.342 N 
ATOM      6  C   UNL     1      -9.452  -8.274   6.319  1.00  0.00     0.251 C 
ATOM      7  O   UNL     1      -9.737  -8.879   7.348  1.00  0.00    -0.272 OA
ATOM      8  H   UNL     1      -9.466  -6.551   5.219  1.00  0.00     0.164 HD
BRANCH   6   9
ATOM      9  C   UNL     1      -8.759  -8.925   5.112  1.00  0.00     0.219 C 
BRANCH   9  10
ATOM     10  O   UNL     1      -9.648  -9.739   4.337  1.00  0.00    -0.382 OA
ATOM     11  H   UNL     1      -9.626 -10.607   4.796  1.00  0.00     0.211 HD
ENDBRANCH   9  10
BRANCH   9  12
ATOM     12  C   UNL     1      -8.021  -7.903   4.209  1.00  0.00     0.089 C 
BRANCH  12  13
ATOM     13  N   UNL     1      -6.953  -7.259   5.008  1.00  0.00    -0.325 NA
ATOM     14  H   UNL     1      -6.300  -7.975   5.334  1.00  0.00     0.119 HD
ATOM     15  H   UNL     1      -7.365  -6.868   5.858  1.00  0.00     0.119 HD
ENDBRANCH  12  13
BRANCH  12  16
ATOM     16  C   UNL     1      -7.434  -8.462   2.890  1.00  0.00     0.022 C 
BRANCH  16  17
ATOM     17  C   UNL     1      -7.924  -7.889   1.553  1.00  0.00     0.002 C 
BRANCH  17  18
ATOM     18  C   UNL     1      -6.821  -7.385   0.625  1.00  0.00     0.000 C 
BRANCH  18  19
ATOM     19  C   UNL     1      -7.326  -6.498  -0.520  1.00  0.00    -0.000 C 
BRANCH  19  20
ATOM     20  C   UNL     1      -6.248  -6.022  -1.498  1.00  0.00    -0.000 C 
BRANCH  20  21
ATOM     21  C   UNL     1      -4.826  -6.288  -0.998  1.00  0.00    -0.003 C 
ATOM     22  C   UNL     1      -3.898  -5.127  -1.322  1.00  0.00     0.004 C 
ENDBRANCH  20  21
ENDBRANCH  19  20
ENDBRANCH  18  19
ENDBRANCH  17  18
ENDBRANCH  16  17
ENDBRANCH  12  16
ENDBRANCH   9  12
ENDBRANCH   6   9
ENDBRANCH   3   5
ENDBRANCH   2   3
BRANCH   2  23
ATOM     23  N   UNL     1      -8.872  -4.287   6.748  1.00  0.00    -0.332 N 
ATOM     24  C   UNL     1      -7.468  -4.574   7.006  1.00  0.00     0.147 C 
BRANCH  23  25
ATOM     25  C   UNL     1      -9.130  -3.443   5.549  1.00  0.00     0.174 C 
BRANCH  25  26
ATOM     26  C   UNL     1      -8.679  -4.116   4.231  1.00  0.00     0.038 C 
BRANCH  26  27
ATOM     27  C   UNL     1      -9.792  -4.660   3.307  1.00  0.00    -0.015 C 
ATOM     28  C   UNL     1     -11.153  -4.031   3.599  1.00  0.00     0.007 C 
ATOM     29  C   UNL     1      -9.456  -4.548   1.822  1.00  0.00     0.007 C 
ENDBRANCH  26  27
ENDBRANCH  25  26
BRANCH  25  30
ATOM     30  C   UNL     1      -8.542  -2.029   5.758  1.00  0.00     0.243 C 
ATOM     31  O   UNL     1      -8.980  -1.262   6.614  1.00  0.00    -0.273 OA
ATOM     32  N   UNL     1      -7.508  -1.687   4.923  1.00  0.00    -0.342 N 
ATOM     33  H   UNL     1      -7.109  -2.425   4.337  1.00  0.00     0.164 HD
BRANCH  32  34
ATOM     34  C   UNL     1      -6.848  -0.380   4.959  1.00  0.00     0.175 C 
BRANCH  34  35
ATOM     35  C   UNL     1      -5.428  -0.486   5.536  1.00  0.00     0.070 C 
BRANCH  35  36
ATOM     36  C   UNL     1      -4.452   0.452   4.863  1.00  0.00    -0.045 A 
ATOM     37  C   UNL     1      -4.312   1.769   5.326  1.00  0.00     0.007 A 
ATOM     38  C   UNL     1      -3.693   0.032   3.762  1.00  0.00     0.007 A 
ATOM     39  C   UNL     1      -3.424   2.647   4.703  1.00  0.00     0.046 A 
ATOM     40  C   UNL     1      -2.805   0.910   3.137  1.00  0.00     0.046 A 
ATOM     41  C   UNL     1      -2.677   2.210   3.615  1.00  0.00     0.115 A 
BRANCH  41  42
ATOM     42  O   UNL     1      -1.823   3.100   3.033  1.00  0.00    -0.508 OA
ATOM     43  H   UNL     1      -0.925   2.729   3.071  1.00  0.00     0.293 HD
ENDBRANCH  41  42
ENDBRANCH  35  36
ENDBRANCH  34  35
BRANCH  34  44
ATOM     44  C   UNL     1      -6.847   0.195   3.525  1.00  0.00     0.243 C 
ATOM     45  O   UNL     1      -6.960   1.388   3.255  1.00  0.00    -0.273 OA
ATOM     46  N   UNL     1      -6.836  -0.775   2.545  1.00  0.00    -0.341 N 
ATOM     47  H   UNL     1      -6.860  -1.754   2.819  1.00  0.00     0.164 HD
BRANCH  46  48
ATOM     48  C   UNL     1      -6.900  -0.474   1.113  1.00  0.00     0.196 C 
BRANCH  48  49
ATOM     49  C   UNL     1      -6.485  -1.689   0.266  1.00  0.00     0.072 C 
BRANCH  49  50
ATOM     50  C   UNL     1      -5.522  -2.602   0.992  1.00  0.00    -0.045 A 
ATOM     51  C   UNL     1      -5.986  -3.796   1.562  1.00  0.00     0.007 A 
ATOM     52  C   UNL     1      -4.169  -2.264   1.123  1.00  0.00     0.007 A 
ATOM     53  C   UNL     1      -5.109  -4.639   2.245  1.00  0.00     0.046 A 
ATOM     54  C   UNL     1      -3.292  -3.108   1.808  1.00  0.00     0.046 A 
ATOM     55  C   UNL     1      -3.770  -4.290   2.362  1.00  0.00     0.115 A 
BRANCH  55  56
ATOM     56  O   UNL     1      -2.946  -5.140   3.039  1.00  0.00    -0.508 OA
ATOM     57  H   UNL     1      -3.118  -6.044   2.730  1.00  0.00     0.293 HD
ENDBRANCH  55  56
ENDBRANCH  49  50
ENDBRANCH  48  49
BRANCH  48  58
ATOM     58  C   UNL     1      -8.334  -0.061   0.752  1.00  0.00     0.326 C 
ATOM     59  O   UNL     1      -9.287  -0.797   0.555  1.00  0.00    -0.250 OA
BRANCH  58  60
ATOM     60  O   UNL     1      -8.505   1.282   0.670  1.00  0.00    -0.480 OA
ATOM     61  H   UNL     1      -8.958   1.400  -0.194  1.00  0.00     0.296 HD
ENDBRANCH  58  60
ENDBRANCH  48  58
ENDBRANCH  46  48
ENDBRANCH  34  44
ENDBRANCH  32  34
ENDBRANCH  25  30
ENDBRANCH  23  25
ENDBRANCH   2  23
TORSDOF 28
ENDMDL
MODEL 4
REMARK VINA RESULT:    -8.219      2.884      6.449
REMARK INTER + INTRA:         -25.778
REMARK INTER:                 -20.850
REMARK INTRA:                  -4.928
REMARK UNBOUND:                -5.306
REMARK SMILES CCCCCCC[C@H](N)[C@H](O)C(=O)N[C@H](C)C(=O)N(C)[C@H](CC(C)C)C(=O)N[C@@H](Cc1ccc(O)cc1)C(=O)N[C@@H](Cc1ccc(O)cc1)C(=O)O
REMARK SMILES IDX 18 1 17 2 15 3 16 4 14 5 12 6 13 7 10 9 11 10 8 12 9 13 7 16
REMARK SMILES IDX 6 17 5 18 4 19 3 20 2 21 1 22 19 23 20 24 21 25 22 26 23 27
REMARK SMILES IDX 24 28 25 29 26 30 27 31 28 32 29 34 30 35 31 36 32 37 37 38
REMARK SMILES IDX 33 39 36 40 34 41 35 42 38 44 39 45 40 46 41 48 42 49 43 50
REMARK SMILES IDX 44 51 49 52 45 53 48 54 46 55 47 56 50 58 51 59 52 60
REMARK H PARENT 14 8 11 11 9 14 9 15 28 33 35 43 40 47 47 57 52 61
ROOT
ATOM      1  O   UNL     1      -6.867  -6.087   4.931  1.00  0.00    -0.272 OA
ATOM      2  C   UNL     1      -7.985  -5.821   4.467  1.00  0.00     0.245 C 
ENDROOT
BRANCH   2   3
ATOM      3  C   UNL     1      -8.899  -6.990   4.021  1.00  0.00     0.168 C 
ATOM      4  C   UNL     1     -10.227  -6.955   4.770  1.00  0.00     0.041 C 
BRANCH   3   5
ATOM      5  N   UNL     1      -9.090  -7.103   2.584  1.00  0.00    -0.342 N 
ATOM      6  C   UNL     1      -8.054  -7.431   1.735  1.00  0.00     0.251 C 
ATOM      7  O   UNL     1      -6.901  -7.609   2.113  1.00  0.00    -0.272 OA
ATOM      8  H   UNL     1      -9.996  -6.944   2.149  1.00  0.00     0.164 HD
BRANCH   6   9
ATOM      9  C   UNL     1      -8.516  -7.634   0.283  1.00  0.00     0.219 C 
BRANCH   9  10
ATOM     10  O   UNL     1      -9.746  -8.362   0.191  1.00  0.00    -0.382 OA
ATOM     11  H   UNL     1     -10.124  -8.069  -0.667  1.00  0.00     0.211 HD
ENDBRANCH   9  10
BRANCH   9  12
ATOM     12  C   UNL     1      -8.599  -6.309  -0.520  1.00  0.00     0.089 C 
BRANCH  12  13
ATOM     13  N   UNL     1      -9.063  -5.238   0.392  1.00  0.00    -0.325 NA
ATOM     14  H   UNL     1      -9.053  -4.346  -0.106  1.00  0.00     0.119 HD
ATOM     15  H   UNL     1      -8.383  -5.130   1.148  1.00  0.00     0.119 HD
ENDBRANCH  12  13
BRANCH  12  16
ATOM     16  C   UNL     1      -7.300  -5.870  -1.239  1.00  0.00     0.022 C 
BRANCH  16  17
ATOM     17  C   UNL     1      -6.038  -6.731  -1.094  1.00  0.00     0.002 C 
BRANCH  17  18
ATOM     18  C   UNL     1      -4.855  -6.290  -1.952  1.00  0.00     0.000 C 
BRANCH  18  19
ATOM     19  C   UNL     1      -4.011  -5.172  -1.325  1.00  0.00    -0.000 C 
BRANCH  19  20
ATOM     20  C   UNL     1      -4.082  -3.822  -2.044  1.00  0.00    -0.000 C 
BRANCH  20  21
ATOM     21  C   UNL     1      -4.504  -3.946  -3.511  1.00  0.00    -0.003 C 
ATOM     22  C   UNL     1      -3.677  -3.035  -4.405  1.00  0.00     0.004 C 
ENDBRANCH  20  21
ENDBRANCH  19  20
ENDBRANCH  18  19
ENDBRANCH  17  18
ENDBRANCH  16  17
ENDBRANCH  12  16
ENDBRANCH   9  12
ENDBRANCH   6   9
ENDBRANCH   3   5
ENDBRANCH   2   3
BRANCH   2  23
ATOM     23  N   UNL     1      -8.445  -4.508   4.466  1.00  0.00    -0.332 N 
ATOM     24  C   UNL     1      -9.346  -3.950   3.469  1.00  0.00     0.147 C 
BRANCH  23  25
ATOM     25  C   UNL     1      -8.125  -3.600   5.601  1.00  0.00     0.174 C 
BRANCH  25  26
ATOM     26  C   UNL     1      -9.387  -2.997   6.263  1.00  0.00     0.038 C 
BRANCH  26  27
ATOM     27  C   UNL     1     -10.104  -3.865   7.321  1.00  0.00    -0.015 C 
ATOM     28  C   UNL     1     -11.513  -4.270   6.887  1.00  0.00     0.007 C 
ATOM     29  C   UNL     1      -9.301  -5.090   7.748  1.00  0.00     0.007 C 
ENDBRANCH  26  27
ENDBRANCH  25  26
BRANCH  25  30
ATOM     30  C   UNL     1      -7.089  -2.542   5.160  1.00  0.00     0.243 C 
ATOM     31  O   UNL     1      -5.957  -2.854   4.793  1.00  0.00    -0.273 OA
ATOM     32  N   UNL     1      -7.512  -1.238   5.213  1.00  0.00    -0.342 N 
ATOM     33  H   UNL     1      -8.505  -1.070   5.392  1.00  0.00     0.164 HD
BRANCH  32  34
ATOM     34  C   UNL     1      -6.657  -0.102   4.859  1.00  0.00     0.175 C 
BRANCH  34  35
ATOM     35  C   UNL     1      -5.173  -0.425   5.094  1.00  0.00     0.070 C 
BRANCH  35  36
ATOM     36  C   UNL     1      -4.247   0.613   4.501  1.00  0.00    -0.045 A 
ATOM     37  C   UNL     1      -3.407   0.273   3.430  1.00  0.00     0.007 A 
ATOM     38  C   UNL     1      -4.198   1.913   5.021  1.00  0.00     0.007 A 
ATOM     39  C   UNL     1      -2.539   1.221   2.885  1.00  0.00     0.046 A 
ATOM     40  C   UNL     1      -3.329   2.861   4.477  1.00  0.00     0.046 A 
ATOM     41  C   UNL     1      -2.508   2.506   3.412  1.00  0.00     0.115 A 
BRANCH  41  42
ATOM     42  O   UNL     1      -1.644   3.401   2.853  1.00  0.00    -0.508 OA
ATOM     43  H   UNL     1      -2.077   3.801   2.080  1.00  0.00     0.293 HD
ENDBRANCH  41  42
ENDBRANCH  35  36
ENDBRANCH  34  35
BRANCH  34  44
ATOM     44  C   UNL     1      -6.940   0.270   3.386  1.00  0.00     0.243 C 
ATOM     45  O   UNL     1      -7.237   1.397   3.000  1.00  0.00    -0.273 OA
ATOM     46  N   UNL     1      -6.960  -0.818   2.539  1.00  0.00    -0.341 N 
ATOM     47  H   UNL     1      -6.824  -1.749   2.927  1.00  0.00     0.164 HD
BRANCH  46  48
ATOM     48  C   UNL     1      -7.274  -0.723   1.112  1.00  0.00     0.196 C 
BRANCH  48  49
ATOM     49  C   UNL     1      -6.909  -2.020   0.370  1.00  0.00     0.072 C 
BRANCH  49  50
ATOM     50  C   UNL     1      -5.795  -2.784   1.049  1.00  0.00    -0.045 A 
ATOM     51  C   UNL     1      -6.048  -4.054   1.590  1.00  0.00     0.007 A 
ATOM     52  C   UNL     1      -4.512  -2.236   1.167  1.00  0.00     0.007 A 
ATOM     53  C   UNL     1      -5.031  -4.763   2.230  1.00  0.00     0.046 A 
ATOM     54  C   UNL     1      -3.495  -2.946   1.809  1.00  0.00     0.046 A 
ATOM     55  C   UNL     1      -3.763  -4.205   2.335  1.00  0.00     0.115 A 
BRANCH  55  56
ATOM     56  O   UNL     1      -2.799  -4.930   2.969  1.00  0.00    -0.508 OA
ATOM     57  H   UNL     1      -3.185  -5.318   3.770  1.00  0.00     0.293 HD
ENDBRANCH  55  56
ENDBRANCH  49  50
ENDBRANCH  48  49
BRANCH  48  58
ATOM     58  C   UNL     1      -8.774  -0.440   0.948  1.00  0.00     0.326 C 
ATOM     59  O   UNL     1      -9.693  -1.232   1.079  1.00  0.00    -0.250 OA
BRANCH  58  60
ATOM     60  O   UNL     1      -9.051   0.851   0.637  1.00  0.00    -0.480 OA
ATOM     61  H   UNL     1      -8.580   1.358   1.334  1.00  0.00     0.296 HD
ENDBRANCH  58  60
ENDBRANCH  48  58
ENDBRANCH  46  48
ENDBRANCH  34  44
ENDBRANCH  32  34
ENDBRANCH  25  30
ENDBRANCH  23  25
ENDBRANCH   2  23
TORSDOF 28
ENDMDL
MODEL 5
REMARK VINA RESULT:    -8.164      3.598      6.088
REMARK INTER + INTRA:         -25.640
REMARK INTER:                 -19.811
REMARK INTRA:                  -5.829
REMARK UNBOUND:                -5.306
REMARK SMILES CCCCCCC[C@H](N)[C@H](O)C(=O)N[C@H](C)C(=O)N(C)[C@H](CC(C)C)C(=O)N[C@@H](Cc1ccc(O)cc1)C(=O)N[C@@H](Cc1ccc(O)cc1)C(=O)O
REMARK SMILES IDX 18 1 17 2 15 3 16 4 14 5 12 6 13 7 10 9 11 10 8 12 9 13 7 16
REMARK SMILES IDX 6 17 5 18 4 19 3 20 2 21 1 22 19 23 20 24 21 25 22 26 23 27
REMARK SMILES IDX 24 28 25 29 26 30 27 31 28 32 29 34 30 35 31 36 32 37 37 38
REMARK SMILES IDX 33 39 36 40 34 41 35 42 38 44 39 45 40 46 41 48 42 49 43 50
REMARK SMILES IDX 44 51 49 52 45 53 48 54 46 55 47 56 50 58 51 59 52 60
REMARK H PARENT 14 8 11 11 9 14 9 15 28 33 35 43 40 47 47 57 52 61
ROOT
ATOM      1  O   UNL     1      -8.659  -2.613   3.934  1.00  0.00    -0.272 OA
ATOM      2  C   UNL     1      -9.259  -3.634   4.300  1.00  0.00     0.245 C 
ENDROOT
BRANCH   2   3
ATOM      3  C   UNL     1     -10.771  -3.758   3.986  1.00  0.00     0.168 C 
ATOM      4  C   UNL     1     -11.410  -2.381   3.849  1.00  0.00     0.041 C 
BRANCH   3   5
ATOM      5  N   UNL     1     -11.092  -4.620   2.859  1.00  0.00    -0.342 N 
ATOM      6  C   UNL     1     -11.573  -5.900   3.035  1.00  0.00     0.251 C 
ATOM      7  O   UNL     1     -11.725  -6.420   4.135  1.00  0.00    -0.272 OA
ATOM      8  H   UNL     1     -10.974  -4.311   1.897  1.00  0.00     0.164 HD
BRANCH   6   9
ATOM      9  C   UNL     1     -11.977  -6.570   1.712  1.00  0.00     0.219 C 
BRANCH   9  10
ATOM     10  O   UNL     1     -12.061  -5.641   0.625  1.00  0.00    -0.382 OA
ATOM     11  H   UNL     1     -11.131  -5.556   0.321  1.00  0.00     0.211 HD
ENDBRANCH   9  10
BRANCH   9  12
ATOM     12  C   UNL     1     -11.074  -7.774   1.339  1.00  0.00     0.089 C 
BRANCH  12  13
ATOM     13  N   UNL     1     -11.944  -8.918   0.980  1.00  0.00    -0.325 NA
ATOM     14  H   UNL     1     -12.255  -8.813   0.013  1.00  0.00     0.119 HD
ATOM     15  H   UNL     1     -12.798  -8.873   1.541  1.00  0.00     0.119 HD
ENDBRANCH  12  13
BRANCH  12  16
ATOM     16  C   UNL     1     -10.038  -7.523   0.217  1.00  0.00     0.022 C 
BRANCH  16  17
ATOM     17  C   UNL     1      -8.793  -6.680   0.526  1.00  0.00     0.002 C 
BRANCH  17  18
ATOM     18  C   UNL     1      -8.321  -5.784  -0.617  1.00  0.00     0.000 C 
BRANCH  18  19
ATOM     19  C   UNL     1      -6.859  -6.011  -1.026  1.00  0.00    -0.000 C 
BRANCH  19  20
ATOM     20  C   UNL     1      -6.253  -7.338  -0.563  1.00  0.00    -0.000 C 
BRANCH  20  21
ATOM     21  C   UNL     1      -4.849  -7.182   0.028  1.00  0.00    -0.003 C 
ATOM     22  C   UNL     1      -4.497  -8.349   0.937  1.00  0.00     0.004 C 
ENDBRANCH  20  21
ENDBRANCH  19  20
ENDBRANCH  18  19
ENDBRANCH  17  18
ENDBRANCH  16  17
ENDBRANCH  12  16
ENDBRANCH   9  12
ENDBRANCH   6   9
ENDBRANCH   3   5
ENDBRANCH   2   3
BRANCH   2  23
ATOM     23  N   UNL     1      -8.553  -4.690   4.867  1.00  0.00    -0.332 N 
ATOM     24  C   UNL     1      -8.336  -4.865   6.295  1.00  0.00     0.147 C 
BRANCH  23  25
ATOM     25  C   UNL     1      -8.069  -5.812   4.017  1.00  0.00     0.174 C 
BRANCH  25  26
ATOM     26  C   UNL     1      -8.121  -7.180   4.738  1.00  0.00     0.038 C 
BRANCH  26  27
ATOM     27  C   UNL     1      -8.577  -8.396   3.901  1.00  0.00    -0.015 C 
ATOM     28  C   UNL     1      -7.416  -9.072   3.173  1.00  0.00     0.007 C 
ATOM     29  C   UNL     1      -9.378  -9.419   4.703  1.00  0.00     0.007 C 
ENDBRANCH  26  27
ENDBRANCH  25  26
BRANCH  25  30
ATOM     30  C   UNL     1      -6.680  -5.473   3.429  1.00  0.00     0.243 C 
ATOM     31  O   UNL     1      -5.700  -6.190   3.621  1.00  0.00    -0.273 OA
ATOM     32  N   UNL     1      -6.615  -4.322   2.687  1.00  0.00    -0.342 N 
ATOM     33  H   UNL     1      -7.497  -3.858   2.455  1.00  0.00     0.164 HD
BRANCH  32  34
ATOM     34  C   UNL     1      -5.377  -3.830   2.076  1.00  0.00     0.175 C 
BRANCH  34  35
ATOM     35  C   UNL     1      -5.647  -3.184   0.708  1.00  0.00     0.070 C 
BRANCH  35  36
ATOM     36  C   UNL     1      -6.656  -2.060   0.781  1.00  0.00    -0.045 A 
ATOM     37  C   UNL     1      -6.227  -0.749   1.039  1.00  0.00     0.007 A 
ATOM     38  C   UNL     1      -8.024  -2.310   0.616  1.00  0.00     0.007 A 
ATOM     39  C   UNL     1      -7.151   0.293   1.122  1.00  0.00     0.046 A 
ATOM     40  C   UNL     1      -8.950  -1.267   0.700  1.00  0.00     0.046 A 
ATOM     41  C   UNL     1      -8.504   0.026   0.951  1.00  0.00     0.115 A 
BRANCH  41  42
ATOM     42  O   UNL     1      -9.375   1.072   1.042  1.00  0.00    -0.508 OA
ATOM     43  H   UNL     1      -9.168   1.703   0.333  1.00  0.00     0.293 HD
ENDBRANCH  41  42
ENDBRANCH  35  36
ENDBRANCH  34  35
BRANCH  34  44
ATOM     44  C   UNL     1      -4.718  -2.839   3.062  1.00  0.00     0.243 C 
ATOM     45  O   UNL     1      -3.506  -2.698   3.196  1.00  0.00    -0.273 OA
ATOM     46  N   UNL     1      -5.621  -2.205   3.889  1.00  0.00    -0.341 N 
ATOM     47  H   UNL     1      -6.607  -2.443   3.819  1.00  0.00     0.164 HD
BRANCH  46  48
ATOM     48  C   UNL     1      -5.226  -1.274   4.948  1.00  0.00     0.196 C 
BRANCH  48  49
ATOM     49  C   UNL     1      -5.705   0.156   4.644  1.00  0.00     0.072 C 
BRANCH  49  50
ATOM     50  C   UNL     1      -4.589   1.052   4.157  1.00  0.00    -0.045 A 
ATOM     51  C   UNL     1      -3.832   0.679   3.036  1.00  0.00     0.007 A 
ATOM     52  C   UNL     1      -4.281   2.246   4.821  1.00  0.00     0.007 A 
ATOM     53  C   UNL     1      -2.791   1.491   2.585  1.00  0.00     0.046 A 
ATOM     54  C   UNL     1      -3.238   3.058   4.371  1.00  0.00     0.046 A 
ATOM     55  C   UNL     1      -2.502   2.674   3.255  1.00  0.00     0.115 A 
BRANCH  55  56
ATOM     56  O   UNL     1      -1.476   3.438   2.783  1.00  0.00    -0.508 OA
ATOM     57  H   UNL     1      -0.641   3.053   3.093  1.00  0.00     0.293 HD
ENDBRANCH  55  56
ENDBRANCH  49  50
ENDBRANCH  48  49
BRANCH  48  58
ATOM     58  C   UNL     1      -5.829  -1.746   6.278  1.00  0.00     0.326 C 
ATOM     59  O   UNL     1      -6.990  -1.645   6.641  1.00  0.00    -0.250 OA
BRANCH  58  60
ATOM     60  O   UNL     1      -4.930  -2.348   7.097  1.00  0.00    -0.480 OA
ATOM     61  H   UNL     1      -5.261  -2.130   7.995  1.00  0.00     0.296 HD
ENDBRANCH  58  60
ENDBRANCH  48  58
ENDBRANCH  46  48
ENDBRANCH  34  44
ENDBRANCH  32  34
ENDBRANCH  25  30
ENDBRANCH  23  25
ENDBRANCH   2  23
TORSDOF 28
ENDMDL
MODEL 6
REMARK VINA RESULT:    -8.141      2.375      8.923
REMARK INTER + INTRA:         -25.583
REMARK INTER:                 -22.944
REMARK INTRA:                  -2.639
REMARK UNBOUND:                -5.306
REMARK SMILES CCCCCCC[C@H](N)[C@H](O)C(=O)N[C@H](C)C(=O)N(C)[C@H](CC(C)C)C(=O)N[C@@H](Cc1ccc(O)cc1)C(=O)N[C@@H](Cc1ccc(O)cc1)C(=O)O
REMARK SMILES IDX 18 1 17 2 15 3 16 4 14 5 12 6 13 7 10 9 11 10 8 12 9 13 7 16
REMARK SMILES IDX 6 17 5 18 4 19 3 20 2 21 1 22 19 23 20 24 21 25 22 26 23 27
REMARK SMILES IDX 24 28 25 29 26 30 27 31 28 32 29 34 30 35 31 36 32 37 37 38
REMARK SMILES IDX 33 39 36 40 34 41 35 42 38 44 39 45 40 46 41 48 42 49 43 50
REMARK SMILES IDX 44 51 49 52 45 53 48 54 46 55 47 56 50 58 51 59 52 60
REMARK H PARENT 14 8 11 11 9 14 9 15 28 33 35 43 40 47 47 57 52 61
ROOT
ATOM      1  O   UNL     1      -5.120  -2.341  -0.801  1.00  0.00    -0.272 OA
ATOM      2  C   UNL     1      -5.739  -2.285   0.272  1.00  0.00     0.245 C 
ENDROOT
BRANCH   2   3
ATOM      3  C   UNL     1      -4.986  -1.803   1.537  1.00  0.00     0.168 C 
ATOM      4  C   UNL     1      -4.523  -2.988   2.377  1.00  0.00     0.041 C 
BRANCH   3   5
ATOM      5  N   UNL     1      -3.905  -0.863   1.284  1.00  0.00    -0.342 N 
ATOM      6  C   UNL     1      -4.112   0.500   1.279  1.00  0.00     0.251 C 
ATOM      7  O   UNL     1      -5.212   1.018   1.441  1.00  0.00    -0.272 OA
ATOM      8  H   UNL     1      -2.954  -1.176   1.101  1.00  0.00     0.164 HD
BRANCH   6   9
ATOM      9  C   UNL     1      -2.807   1.299   1.133  1.00  0.00     0.219 C 
BRANCH   9  10
ATOM     10  O   UNL     1      -2.927   2.391   0.213  1.00  0.00    -0.382 OA
ATOM     11  H   UNL     1      -3.840   2.298  -0.137  1.00  0.00     0.211 HD
ENDBRANCH   9  10
BRANCH   9  12
ATOM     12  C   UNL     1      -2.234   1.784   2.491  1.00  0.00     0.089 C 
BRANCH  12  13
ATOM     13  N   UNL     1      -2.140   3.261   2.458  1.00  0.00    -0.325 NA
ATOM     14  H   UNL     1      -3.018   3.646   2.106  1.00  0.00     0.119 HD
ATOM     15  H   UNL     1      -1.435   3.532   1.768  1.00  0.00     0.119 HD
ENDBRANCH  12  13
BRANCH  12  16
ATOM     16  C   UNL     1      -3.006   1.328   3.753  1.00  0.00     0.022 C 
BRANCH  16  17
ATOM     17  C   UNL     1      -3.445   2.381   4.780  1.00  0.00     0.002 C 
BRANCH  17  18
ATOM     18  C   UNL     1      -4.648   1.986   5.633  1.00  0.00     0.000 C 
BRANCH  18  19
ATOM     19  C   UNL     1      -5.781   1.317   4.844  1.00  0.00    -0.000 C 
BRANCH  19  20
ATOM     20  C   UNL     1      -6.153  -0.093   5.309  1.00  0.00    -0.000 C 
BRANCH  20  21
ATOM     21  C   UNL     1      -5.647  -0.412   6.718  1.00  0.00    -0.003 C 
ATOM     22  C   UNL     1      -5.279  -1.882   6.856  1.00  0.00     0.004 C 
ENDBRANCH  20  21
ENDBRANCH  19  20
ENDBRANCH  18  19
ENDBRANCH  17  18
ENDBRANCH  16  17
ENDBRANCH  12  16
ENDBRANCH   9  12
ENDBRANCH   6   9
ENDBRANCH   3   5
ENDBRANCH   2   3
BRANCH   2  23
ATOM     23  N   UNL     1      -7.107  -2.533   0.299  1.00  0.00    -0.332 N 
ATOM     24  C   UNL     1      -8.134  -1.503   0.267  1.00  0.00     0.147 C 
BRANCH  23  25
ATOM     25  C   UNL     1      -7.618  -3.930   0.234  1.00  0.00     0.174 C 
BRANCH  25  26
ATOM     26  C   UNL     1      -7.805  -4.569   1.631  1.00  0.00     0.038 C 
BRANCH  26  27
ATOM     27  C   UNL     1      -9.253  -4.693   2.155  1.00  0.00    -0.015 C 
ATOM     28  C   UNL     1     -10.067  -5.731   1.383  1.00  0.00     0.007 C 
ATOM     29  C   UNL     1      -9.335  -4.955   3.657  1.00  0.00     0.007 C 
ENDBRANCH  26  27
ENDBRANCH  25  26
BRANCH  25  30
ATOM     30  C   UNL     1      -6.743  -4.773  -0.722  1.00  0.00     0.243 C 
ATOM     31  O   UNL     1      -6.956  -4.813  -1.933  1.00  0.00    -0.273 OA
ATOM     32  N   UNL     1      -5.723  -5.473  -0.131  1.00  0.00    -0.342 N 
ATOM     33  H   UNL     1      -5.523  -5.278   0.853  1.00  0.00     0.164 HD
BRANCH  32  34
ATOM     34  C   UNL     1      -4.811  -6.344  -0.877  1.00  0.00     0.175 C 
BRANCH  34  35
ATOM     35  C   UNL     1      -5.583  -7.316  -1.783  1.00  0.00     0.070 C 
BRANCH  35  36
ATOM     36  C   UNL     1      -5.660  -8.713  -1.211  1.00  0.00    -0.045 A 
ATOM     37  C   UNL     1      -6.239  -8.925   0.049  1.00  0.00     0.007 A 
ATOM     38  C   UNL     1      -5.138  -9.807  -1.914  1.00  0.00     0.007 A 
ATOM     39  C   UNL     1      -6.302 -10.209   0.591  1.00  0.00     0.046 A 
ATOM     40  C   UNL     1      -5.200 -11.093  -1.371  1.00  0.00     0.046 A 
ATOM     41  C   UNL     1      -5.783 -11.282  -0.123  1.00  0.00     0.115 A 
BRANCH  41  42
ATOM     42  O   UNL     1      -5.862 -12.520   0.444  1.00  0.00    -0.508 OA
ATOM     43  H   UNL     1      -5.387 -13.147  -0.126  1.00  0.00     0.293 HD
ENDBRANCH  41  42
ENDBRANCH  35  36
ENDBRANCH  34  35
BRANCH  34  44
ATOM     44  C   UNL     1      -3.844  -5.448  -1.683  1.00  0.00     0.243 C 
ATOM     45  O   UNL     1      -2.958  -4.759  -1.184  1.00  0.00    -0.273 OA
ATOM     46  N   UNL     1      -4.147  -5.383  -3.027  1.00  0.00    -0.341 N 
ATOM     47  H   UNL     1      -4.963  -5.880  -3.374  1.00  0.00     0.164 HD
BRANCH  46  48
ATOM     48  C   UNL     1      -3.413  -4.545  -3.978  1.00  0.00     0.196 C 
BRANCH  48  49
ATOM     49  C   UNL     1      -3.612  -5.034  -5.423  1.00  0.00     0.072 C 
BRANCH  49  50
ATOM     50  C   UNL     1      -2.994  -4.103  -6.442  1.00  0.00    -0.045 A 
ATOM     51  C   UNL     1      -1.611  -3.871  -6.429  1.00  0.00     0.007 A 
ATOM     52  C   UNL     1      -3.787  -3.447  -7.392  1.00  0.00     0.007 A 
ATOM     53  C   UNL     1      -1.032  -3.003  -7.355  1.00  0.00     0.046 A 
ATOM     54  C   UNL     1      -3.207  -2.577  -8.319  1.00  0.00     0.046 A 
ATOM     55  C   UNL     1      -1.833  -2.364  -8.293  1.00  0.00     0.115 A 
BRANCH  55  56
ATOM     56  O   UNL     1      -1.229  -1.523  -9.180  1.00  0.00    -0.508 OA
ATOM     57  H   UNL     1      -1.545  -1.739 -10.072  1.00  0.00     0.293 HD
ENDBRANCH  55  56
ENDBRANCH  49  50
ENDBRANCH  48  49
BRANCH  48  58
ATOM     58  C   UNL     1      -3.907  -3.097  -3.852  1.00  0.00     0.326 C 
ATOM     59  O   UNL     1      -4.827  -2.574  -4.460  1.00  0.00    -0.250 OA
BRANCH  58  60
ATOM     60  O   UNL     1      -3.217  -2.368  -2.939  1.00  0.00    -0.480 OA
ATOM     61  H   UNL     1      -3.180  -1.475  -3.345  1.00  0.00     0.296 HD
ENDBRANCH  58  60
ENDBRANCH  48  58
ENDBRANCH  46  48
ENDBRANCH  34  44
ENDBRANCH  32  34
ENDBRANCH  25  30
ENDBRANCH  23  25
ENDBRANCH   2  23
TORSDOF 28
ENDMDL
MODEL 7
REMARK VINA RESULT:    -8.105      2.280      9.075
REMARK INTER + INTRA:         -25.494
REMARK INTER:                 -21.667
REMARK INTRA:                  -3.827
REMARK UNBOUND:                -5.306
REMARK SMILES CCCCCCC[C@H](N)[C@H](O)C(=O)N[C@H](C)C(=O)N(C)[C@H](CC(C)C)C(=O)N[C@@H](Cc1ccc(O)cc1)C(=O)N[C@@H](Cc1ccc(O)cc1)C(=O)O
REMARK SMILES IDX 18 1 17 2 15 3 16 4 14 5 12 6 13 7 10 9 11 10 8 12 9 13 7 16
REMARK SMILES IDX 6 17 5 18 4 19 3 20 2 21 1 22 19 23 20 24 21 25 22 26 23 27
REMARK SMILES IDX 24 28 25 29 26 30 27 31 28 32 29 34 30 35 31 36 32 37 37 38
REMARK SMILES IDX 33 39 36 40 34 41 35 42 38 44 39 45 40 46 41 48 42 49 43 50
REMARK SMILES IDX 44 51 49 52 45 53 48 54 46 55 47 56 50 58 51 59 52 60
REMARK H PARENT 14 8 11 11 9 14 9 15 28 33 35 43 40 47 47 57 52 61
ROOT
ATOM      1  O   UNL     1      -5.012  -2.224  -0.788  1.00  0.00    -0.272 OA
ATOM      2  C   UNL     1      -5.599  -2.211   0.304  1.00  0.00     0.245 C 
ENDROOT
BRANCH   2   3
ATOM      3  C   UNL     1      -4.811  -1.773   1.564  1.00  0.00     0.168 C 
ATOM      4  C   UNL     1      -4.252  -2.986   2.301  1.00  0.00     0.041 C 
BRANCH   3   5
ATOM      5  N   UNL     1      -3.791  -0.764   1.327  1.00  0.00    -0.342 N 
ATOM      6  C   UNL     1      -4.083   0.583   1.339  1.00  0.00     0.251 C 
ATOM      7  O   UNL     1      -5.213   1.029   1.506  1.00  0.00    -0.272 OA
ATOM      8  H   UNL     1      -2.822  -1.015   1.142  1.00  0.00     0.164 HD
BRANCH   6   9
ATOM      9  C   UNL     1      -2.830   1.464   1.208  1.00  0.00     0.219 C 
BRANCH   9  10
ATOM     10  O   UNL     1      -3.029   2.581   0.333  1.00  0.00    -0.382 OA
ATOM     11  H   UNL     1      -2.252   3.155   0.511  1.00  0.00     0.211 HD
ENDBRANCH   9  10
BRANCH   9  12
ATOM     12  C   UNL     1      -2.266   1.929   2.576  1.00  0.00     0.089 C 
BRANCH  12  13
ATOM     13  N   UNL     1      -2.290   3.409   2.612  1.00  0.00    -0.325 NA
ATOM     14  H   UNL     1      -1.759   3.773   1.819  1.00  0.00     0.119 HD
ATOM     15  H   UNL     1      -1.783   3.728   3.441  1.00  0.00     0.119 HD
ENDBRANCH  12  13
BRANCH  12  16
ATOM     16  C   UNL     1      -2.969   1.355   3.829  1.00  0.00     0.022 C 
BRANCH  16  17
ATOM     17  C   UNL     1      -3.889   2.266   4.652  1.00  0.00     0.002 C 
BRANCH  17  18
ATOM     18  C   UNL     1      -4.808   1.539   5.632  1.00  0.00     0.000 C 
BRANCH  18  19
ATOM     19  C   UNL     1      -5.537   0.331   5.026  1.00  0.00    -0.000 C 
BRANCH  19  20
ATOM     20  C   UNL     1      -5.588  -0.912   5.919  1.00  0.00    -0.000 C 
BRANCH  20  21
ATOM     21  C   UNL     1      -6.375  -2.066   5.294  1.00  0.00    -0.003 C 
ATOM     22  C   UNL     1      -7.352  -1.566   4.241  1.00  0.00     0.004 C 
ENDBRANCH  20  21
ENDBRANCH  19  20
ENDBRANCH  18  19
ENDBRANCH  17  18
ENDBRANCH  16  17
ENDBRANCH  12  16
ENDBRANCH   9  12
ENDBRANCH   6   9
ENDBRANCH   3   5
ENDBRANCH   2   3
BRANCH   2  23
ATOM     23  N   UNL     1      -6.966  -2.465   0.362  1.00  0.00    -0.332 N 
ATOM     24  C   UNL     1      -8.000  -1.444   0.294  1.00  0.00     0.147 C 
BRANCH  23  25
ATOM     25  C   UNL     1      -7.469  -3.867   0.372  1.00  0.00     0.174 C 
BRANCH  25  26
ATOM     26  C   UNL     1      -7.538  -4.472   1.794  1.00  0.00     0.038 C 
BRANCH  26  27
ATOM     27  C   UNL     1      -8.842  -5.205   2.179  1.00  0.00    -0.015 C 
ATOM     28  C   UNL     1      -9.553  -4.550   3.363  1.00  0.00     0.007 C 
ATOM     29  C   UNL     1      -9.805  -5.388   1.009  1.00  0.00     0.007 C 
ENDBRANCH  26  27
ENDBRANCH  25  26
BRANCH  25  30
ATOM     30  C   UNL     1      -6.666  -4.727  -0.631  1.00  0.00     0.243 C 
ATOM     31  O   UNL     1      -6.952  -4.767  -1.827  1.00  0.00    -0.273 OA
ATOM     32  N   UNL     1      -5.625  -5.442  -0.099  1.00  0.00    -0.342 N 
ATOM     33  H   UNL     1      -5.363  -5.247   0.871  1.00  0.00     0.164 HD
BRANCH  32  34
ATOM     34  C   UNL     1      -4.773  -6.331  -0.894  1.00  0.00     0.175 C 
BRANCH  34  35
ATOM     35  C   UNL     1      -5.613  -7.261  -1.783  1.00  0.00     0.070 C 
BRANCH  35  36
ATOM     36  C   UNL     1      -5.662  -8.680  -1.264  1.00  0.00    -0.045 A 
ATOM     37  C   UNL     1      -5.110  -9.724  -2.022  1.00  0.00     0.007 A 
ATOM     38  C   UNL     1      -6.274  -8.977  -0.039  1.00  0.00     0.007 A 
ATOM     39  C   UNL     1      -5.162 -11.039  -1.558  1.00  0.00     0.046 A 
ATOM     40  C   UNL     1      -6.328 -10.293   0.426  1.00  0.00     0.046 A 
ATOM     41  C   UNL     1      -5.769 -11.313  -0.338  1.00  0.00     0.115 A 
BRANCH  41  42
ATOM     42  O   UNL     1      -5.802 -12.611   0.078  1.00  0.00    -0.508 OA
ATOM     43  H   UNL     1      -5.524 -13.175  -0.663  1.00  0.00     0.293 HD
ENDBRANCH  41  42
ENDBRANCH  35  36
ENDBRANCH  34  35
BRANCH  34  44
ATOM     44  C   UNL     1      -3.809  -5.454  -1.724  1.00  0.00     0.243 C 
ATOM     45  O   UNL     1      -2.972  -4.696  -1.242  1.00  0.00    -0.273 OA
ATOM     46  N   UNL     1      -4.057  -5.498  -3.079  1.00  0.00    -0.341 N 
ATOM     47  H   UNL     1      -4.838  -6.052  -3.421  1.00  0.00     0.164 HD
BRANCH  46  48
ATOM     48  C   UNL     1      -3.317  -4.699  -4.060  1.00  0.00     0.196 C 
BRANCH  48  49
ATOM     49  C   UNL     1      -2.962  -5.529  -5.305  1.00  0.00     0.072 C 
BRANCH  49  50
ATOM     50  C   UNL     1      -2.752  -6.993  -4.988  1.00  0.00    -0.045 A 
ATOM     51  C   UNL     1      -3.504  -7.968  -5.659  1.00  0.00     0.007 A 
ATOM     52  C   UNL     1      -1.830  -7.394  -4.014  1.00  0.00     0.007 A 
ATOM     53  C   UNL     1      -3.329  -9.321  -5.366  1.00  0.00     0.046 A 
ATOM     54  C   UNL     1      -1.655  -8.748  -3.719  1.00  0.00     0.046 A 
ATOM     55  C   UNL     1      -2.406  -9.701  -4.399  1.00  0.00     0.115 A 
BRANCH  55  56
ATOM     56  O   UNL     1      -2.266 -11.032  -4.141  1.00  0.00    -0.508 OA
ATOM     57  H   UNL     1      -1.481 -11.355  -4.612  1.00  0.00     0.293 HD
ENDBRANCH  55  56
ENDBRANCH  49  50
ENDBRANCH  48  49
BRANCH  48  58
ATOM     58  C   UNL     1      -4.175  -3.495  -4.472  1.00  0.00     0.326 C 
ATOM     59  O   UNL     1      -4.028  -2.332  -4.130  1.00  0.00    -0.250 OA
BRANCH  58  60
ATOM     60  O   UNL     1      -5.184  -3.814  -5.320  1.00  0.00    -0.480 OA
ATOM     61  H   UNL     1      -4.716  -4.042  -6.152  1.00  0.00     0.296 HD
ENDBRANCH  58  60
ENDBRANCH  48  58
ENDBRANCH  46  48
ENDBRANCH  34  44
ENDBRANCH  32  34
ENDBRANCH  25  30
ENDBRANCH  23  25
ENDBRANCH   2  23
TORSDOF 28
ENDMDL
MODEL 8
REMARK VINA RESULT:    -7.928      2.025      3.110
REMARK INTER + INTRA:         -25.053
REMARK INTER:                 -22.271
REMARK INTRA:                  -2.782
REMARK UNBOUND:                -5.306
REMARK SMILES CCCCCCC[C@H](N)[C@H](O)C(=O)N[C@H](C)C(=O)N(C)[C@H](CC(C)C)C(=O)N[C@@H](Cc1ccc(O)cc1)C(=O)N[C@@H](Cc1ccc(O)cc1)C(=O)O
REMARK SMILES IDX 18 1 17 2 15 3 16 4 14 5 12 6 13 7 10 9 11 10 8 12 9 13 7 16
REMARK SMILES IDX 6 17 5 18 4 19 3 20 2 21 1 22 19 23 20 24 21 25 22 26 23 27
REMARK SMILES IDX 24 28 25 29 26 30 27 31 28 32 29 34 30 35 31 36 32 37 37 38
REMARK SMILES IDX 33 39 36 40 34 41 35 42 38 44 39 45 40 46 41 48 42 49 43 50
REMARK SMILES IDX 44 51 49 52 45 53 48 54 46 55 47 56 50 58 51 59 52 60
REMARK H PARENT 14 8 11 11 9 14 9 15 28 33 35 43 40 47 47 57 52 61
ROOT
ATOM      1  O   UNL     1      -4.447  -5.833   0.166  1.00  0.00    -0.272 OA
ATOM      2  C   UNL     1      -5.244  -6.416  -0.584  1.00  0.00     0.245 C 
ENDROOT
BRANCH   2   3
ATOM      3  C   UNL     1      -5.153  -6.156  -2.108  1.00  0.00     0.168 C 
ATOM      4  C   UNL     1      -4.820  -4.695  -2.390  1.00  0.00     0.041 C 
BRANCH   3   5
ATOM      5  N   UNL     1      -4.273  -7.061  -2.831  1.00  0.00    -0.342 N 
ATOM      6  C   UNL     1      -2.937  -6.778  -3.024  1.00  0.00     0.251 C 
ATOM      7  O   UNL     1      -2.404  -5.741  -2.646  1.00  0.00    -0.272 OA
ATOM      8  H   UNL     1      -4.610  -7.938  -3.222  1.00  0.00     0.164 HD
BRANCH   6   9
ATOM      9  C   UNL     1      -2.174  -7.937  -3.686  1.00  0.00     0.219 C 
BRANCH   9  10
ATOM     10  O   UNL     1      -1.489  -8.762  -2.735  1.00  0.00    -0.382 OA
ATOM     11  H   UNL     1      -0.540  -8.614  -2.942  1.00  0.00     0.211 HD
ENDBRANCH   9  10
BRANCH   9  12
ATOM     12  C   UNL     1      -3.063  -8.797  -4.621  1.00  0.00     0.089 C 
BRANCH  12  13
ATOM     13  N   UNL     1      -3.708  -7.900  -5.608  1.00  0.00    -0.325 NA
ATOM     14  H   UNL     1      -4.718  -8.053  -5.591  1.00  0.00     0.119 HD
ATOM     15  H   UNL     1      -3.412  -8.175  -6.547  1.00  0.00     0.119 HD
ENDBRANCH  12  13
BRANCH  12  16
ATOM     16  C   UNL     1      -2.353  -9.964  -5.348  1.00  0.00     0.022 C 
BRANCH  16  17
ATOM     17  C   UNL     1      -2.960 -11.372  -5.272  1.00  0.00     0.002 C 
BRANCH  17  18
ATOM     18  C   UNL     1      -1.960 -12.491  -4.990  1.00  0.00     0.000 C 
BRANCH  18  19
ATOM     19  C   UNL     1      -1.079 -12.858  -6.191  1.00  0.00    -0.000 C 
BRANCH  19  20
ATOM     20  C   UNL     1      -1.814 -13.527  -7.356  1.00  0.00    -0.000 C 
BRANCH  20  21
ATOM     21  C   UNL     1      -1.073 -14.746  -7.912  1.00  0.00    -0.003 C 
ATOM     22  C   UNL     1       0.434 -14.549  -7.863  1.00  0.00     0.004 C 
ENDBRANCH  20  21
ENDBRANCH  19  20
ENDBRANCH  18  19
ENDBRANCH  17  18
ENDBRANCH  16  17
ENDBRANCH  12  16
ENDBRANCH   9  12
ENDBRANCH   6   9
ENDBRANCH   3   5
ENDBRANCH   2   3
BRANCH   2  23
ATOM     23  N   UNL     1      -6.112  -7.373  -0.068  1.00  0.00    -0.332 N 
ATOM     24  C   UNL     1      -5.725  -8.726   0.302  1.00  0.00     0.147 C 
BRANCH  23  25
ATOM     25  C   UNL     1      -7.517  -7.010   0.267  1.00  0.00     0.174 C 
BRANCH  25  26
ATOM     26  C   UNL     1      -8.553  -7.970  -0.362  1.00  0.00     0.038 C 
BRANCH  26  27
ATOM     27  C   UNL     1      -9.972  -7.966   0.249  1.00  0.00    -0.015 C 
ATOM     28  C   UNL     1      -9.994  -7.415   1.674  1.00  0.00     0.007 C 
ATOM     29  C   UNL     1     -11.005  -7.251  -0.619  1.00  0.00     0.007 C 
ENDBRANCH  26  27
ENDBRANCH  25  26
BRANCH  25  30
ATOM     30  C   UNL     1      -7.773  -5.520  -0.057  1.00  0.00     0.243 C 
ATOM     31  O   UNL     1      -8.267  -5.163  -1.126  1.00  0.00    -0.273 OA
ATOM     32  N   UNL     1      -7.407  -4.629   0.919  1.00  0.00    -0.342 N 
ATOM     33  H   UNL     1      -7.137  -5.009   1.829  1.00  0.00     0.164 HD
BRANCH  32  34
ATOM     34  C   UNL     1      -7.551  -3.178   0.774  1.00  0.00     0.175 C 
BRANCH  34  35
ATOM     35  C   UNL     1      -8.568  -2.614   1.779  1.00  0.00     0.070 C 
BRANCH  35  36
ATOM     36  C   UNL     1      -8.599  -1.102   1.793  1.00  0.00    -0.045 A 
ATOM     37  C   UNL     1      -9.304  -0.405   0.800  1.00  0.00     0.007 A 
ATOM     38  C   UNL     1      -7.912  -0.379   2.776  1.00  0.00     0.007 A 
ATOM     39  C   UNL     1      -9.327   0.990   0.797  1.00  0.00     0.046 A 
ATOM     40  C   UNL     1      -7.933   1.018   2.774  1.00  0.00     0.046 A 
ATOM     41  C   UNL     1      -8.643   1.690   1.784  1.00  0.00     0.115 A 
BRANCH  41  42
ATOM     42  O   UNL     1      -8.688   3.052   1.743  1.00  0.00    -0.508 OA
ATOM     43  H   UNL     1      -9.069   3.369   2.579  1.00  0.00     0.293 HD
ENDBRANCH  41  42
ENDBRANCH  35  36
ENDBRANCH  34  35
BRANCH  34  44
ATOM     44  C   UNL     1      -6.155  -2.539   0.946  1.00  0.00     0.243 C 
ATOM     45  O   UNL     1      -5.594  -1.857   0.092  1.00  0.00    -0.273 OA
ATOM     46  N   UNL     1      -5.520  -2.912   2.111  1.00  0.00    -0.341 N 
ATOM     47  H   UNL     1      -5.978  -3.573   2.734  1.00  0.00     0.164 HD
BRANCH  46  48
ATOM     48  C   UNL     1      -4.162  -2.488   2.461  1.00  0.00     0.196 C 
BRANCH  48  49
ATOM     49  C   UNL     1      -4.131  -1.778   3.825  1.00  0.00     0.072 C 
BRANCH  49  50
ATOM     50  C   UNL     1      -3.733  -0.324   3.715  1.00  0.00    -0.045 A 
ATOM     51  C   UNL     1      -2.922   0.101   2.652  1.00  0.00     0.007 A 
ATOM     52  C   UNL     1      -4.145   0.611   4.674  1.00  0.00     0.007 A 
ATOM     53  C   UNL     1      -2.538   1.437   2.548  1.00  0.00     0.046 A 
ATOM     54  C   UNL     1      -3.759   1.949   4.570  1.00  0.00     0.046 A 
ATOM     55  C   UNL     1      -2.959   2.351   3.506  1.00  0.00     0.115 A 
BRANCH  55  56
ATOM     56  O   UNL     1      -2.559   3.648   3.369  1.00  0.00    -0.508 OA
ATOM     57  H   UNL     1      -2.004   3.879   4.130  1.00  0.00     0.293 HD
ENDBRANCH  55  56
ENDBRANCH  49  50
ENDBRANCH  48  49
BRANCH  48  58
ATOM     58  C   UNL     1      -3.249  -3.721   2.501  1.00  0.00     0.326 C 
ATOM     59  O   UNL     1      -2.058  -3.767   2.240  1.00  0.00    -0.250 OA
BRANCH  58  60
ATOM     60  O   UNL     1      -3.886  -4.854   2.890  1.00  0.00    -0.480 OA
ATOM     61  H   UNL     1      -4.697  -4.518   3.330  1.00  0.00     0.296 HD
ENDBRANCH  58  60
ENDBRANCH  48  58
ENDBRANCH  46  48
ENDBRANCH  34  44
ENDBRANCH  32  34
ENDBRANCH  25  30
ENDBRANCH  23  25
ENDBRANCH   2  23
TORSDOF 28
ENDMDL
MODEL 9
REMARK VINA RESULT:    -7.825      2.731      9.675
REMARK INTER + INTRA:         -24.797
REMARK INTER:                 -21.625
REMARK INTRA:                  -3.172
REMARK UNBOUND:                -5.306
REMARK SMILES CCCCCCC[C@H](N)[C@H](O)C(=O)N[C@H](C)C(=O)N(C)[C@H](CC(C)C)C(=O)N[C@@H](Cc1ccc(O)cc1)C(=O)N[C@@H](Cc1ccc(O)cc1)C(=O)O
REMARK SMILES IDX 18 1 17 2 15 3 16 4 14 5 12 6 13 7 10 9 11 10 8 12 9 13 7 16
REMARK SMILES IDX 6 17 5 18 4 19 3 20 2 21 1 22 19 23 20 24 21 25 22 26 23 27
REMARK SMILES IDX 24 28 25 29 26 30 27 31 28 32 29 34 30 35 31 36 32 37 37 38
REMARK SMILES IDX 33 39 36 40 34 41 35 42 38 44 39 45 40 46 41 48 42 49 43 50
REMARK SMILES IDX 44 51 49 52 45 53 48 54 46 55 47 56 50 58 51 59 52 60
REMARK H PARENT 14 8 11 11 9 14 9 15 28 33 35 43 40 47 47 57 52 61
ROOT
ATOM      1  O   UNL     1      -4.463  -1.997  -0.558  1.00  0.00    -0.272 OA
ATOM      2  C   UNL     1      -4.979  -2.365   0.508  1.00  0.00     0.245 C 
ENDROOT
BRANCH   2   3
ATOM      3  C   UNL     1      -4.496  -1.714   1.828  1.00  0.00     0.168 C 
ATOM      4  C   UNL     1      -4.035  -2.776   2.819  1.00  0.00     0.041 C 
BRANCH   3   5
ATOM      5  N   UNL     1      -3.506  -0.660   1.663  1.00  0.00    -0.342 N 
ATOM      6  C   UNL     1      -3.868   0.641   1.383  1.00  0.00     0.251 C 
ATOM      7  O   UNL     1      -5.028   0.999   1.212  1.00  0.00    -0.272 OA
ATOM      8  H   UNL     1      -2.509  -0.843   1.747  1.00  0.00     0.164 HD
BRANCH   6   9
ATOM      9  C   UNL     1      -2.671   1.606   1.394  1.00  0.00     0.219 C 
BRANCH   9  10
ATOM     10  O   UNL     1      -2.814   2.674   0.451  1.00  0.00    -0.382 OA
ATOM     11  H   UNL     1      -3.786   2.737   0.319  1.00  0.00     0.211 HD
ENDBRANCH   9  10
BRANCH   9  12
ATOM     12  C   UNL     1      -2.348   2.158   2.807  1.00  0.00     0.089 C 
BRANCH  12  13
ATOM     13  N   UNL     1      -1.761   3.509   2.657  1.00  0.00    -0.325 NA
ATOM     14  H   UNL     1      -1.503   3.657   1.679  1.00  0.00     0.119 HD
ATOM     15  H   UNL     1      -0.879   3.547   3.174  1.00  0.00     0.119 HD
ENDBRANCH  12  13
BRANCH  12  16
ATOM     16  C   UNL     1      -3.529   2.199   3.806  1.00  0.00     0.022 C 
BRANCH  16  17
ATOM     17  C   UNL     1      -3.732   1.024   4.772  1.00  0.00     0.002 C 
BRANCH  17  18
ATOM     18  C   UNL     1      -4.952   1.141   5.682  1.00  0.00     0.000 C 
BRANCH  18  19
ATOM     19  C   UNL     1      -6.033   0.085   5.416  1.00  0.00    -0.000 C 
BRANCH  19  20
ATOM     20  C   UNL     1      -5.903  -1.200   6.239  1.00  0.00    -0.000 C 
BRANCH  20  21
ATOM     21  C   UNL     1      -6.651  -2.385   5.623  1.00  0.00    -0.003 C 
ATOM     22  C   UNL     1      -7.510  -1.947   4.446  1.00  0.00     0.004 C 
ENDBRANCH  20  21
ENDBRANCH  19  20
ENDBRANCH  18  19
ENDBRANCH  17  18
ENDBRANCH  16  17
ENDBRANCH  12  16
ENDBRANCH   9  12
ENDBRANCH   6   9
ENDBRANCH   3   5
ENDBRANCH   2   3
BRANCH   2  23
ATOM     23  N   UNL     1      -6.049  -3.253   0.493  1.00  0.00    -0.332 N 
ATOM     24  C   UNL     1      -7.437  -2.876   0.717  1.00  0.00     0.147 C 
BRANCH  23  25
ATOM     25  C   UNL     1      -5.841  -4.675   0.107  1.00  0.00     0.174 C 
BRANCH  25  26
ATOM     26  C   UNL     1      -4.717  -5.361   0.919  1.00  0.00     0.038 C 
BRANCH  26  27
ATOM     27  C   UNL     1      -5.155  -6.347   2.025  1.00  0.00    -0.015 C 
ATOM     28  C   UNL     1      -6.244  -5.768   2.927  1.00  0.00     0.007 C 
ATOM     29  C   UNL     1      -5.572  -7.714   1.489  1.00  0.00     0.007 C 
ENDBRANCH  26  27
ENDBRANCH  25  26
BRANCH  25  30
ATOM     30  C   UNL     1      -5.659  -4.789  -1.424  1.00  0.00     0.243 C 
ATOM     31  O   UNL     1      -6.573  -5.158  -2.161  1.00  0.00    -0.273 OA
ATOM     32  N   UNL     1      -4.417  -4.460  -1.901  1.00  0.00    -0.342 N 
ATOM     33  H   UNL     1      -3.758  -4.029  -1.247  1.00  0.00     0.164 HD
BRANCH  32  34
ATOM     34  C   UNL     1      -4.056  -4.535  -3.319  1.00  0.00     0.175 C 
BRANCH  34  35
ATOM     35  C   UNL     1      -3.333  -3.260  -3.780  1.00  0.00     0.070 C 
BRANCH  35  36
ATOM     36  C   UNL     1      -3.095  -3.230  -5.273  1.00  0.00    -0.045 A 
ATOM     37  C   UNL     1      -4.181  -3.311  -6.159  1.00  0.00     0.007 A 
ATOM     38  C   UNL     1      -1.797  -3.144  -5.793  1.00  0.00     0.007 A 
ATOM     39  C   UNL     1      -3.970  -3.298  -7.538  1.00  0.00     0.046 A 
ATOM     40  C   UNL     1      -1.585  -3.133  -7.173  1.00  0.00     0.046 A 
ATOM     41  C   UNL     1      -2.675  -3.209  -8.034  1.00  0.00     0.115 A 
BRANCH  41  42
ATOM     42  O   UNL     1      -2.512  -3.202  -9.388  1.00  0.00    -0.508 OA
ATOM     43  H   UNL     1      -2.002  -2.411  -9.629  1.00  0.00     0.293 HD
ENDBRANCH  41  42
ENDBRANCH  35  36
ENDBRANCH  34  35
BRANCH  34  44
ATOM     44  C   UNL     1      -3.189  -5.797  -3.527  1.00  0.00     0.243 C 
ATOM     45  O   UNL     1      -2.063  -5.949  -3.062  1.00  0.00    -0.273 OA
ATOM     46  N   UNL     1      -3.744  -6.706  -4.402  1.00  0.00    -0.341 N 
ATOM     47  H   UNL     1      -4.628  -6.482  -4.853  1.00  0.00     0.164 HD
BRANCH  46  48
ATOM     48  C   UNL     1      -3.077  -7.946  -4.807  1.00  0.00     0.196 C 
BRANCH  48  49
ATOM     49  C   UNL     1      -4.093  -9.075  -5.050  1.00  0.00     0.072 C 
BRANCH  49  50
ATOM     50  C   UNL     1      -4.473  -9.800  -3.778  1.00  0.00    -0.045 A 
ATOM     51  C   UNL     1      -4.861 -11.146  -3.831  1.00  0.00     0.007 A 
ATOM     52  C   UNL     1      -4.464  -9.140  -2.543  1.00  0.00     0.007 A 
ATOM     53  C   UNL     1      -5.226 -11.822  -2.666  1.00  0.00     0.046 A 
ATOM     54  C   UNL     1      -4.831  -9.816  -1.377  1.00  0.00     0.046 A 
ATOM     55  C   UNL     1      -5.208 -11.153  -1.449  1.00  0.00     0.115 A 
BRANCH  55  56
ATOM     56  O   UNL     1      -5.573 -11.848  -0.334  1.00  0.00    -0.508 OA
ATOM     57  H   UNL     1      -5.921 -12.711  -0.612  1.00  0.00     0.293 HD
ENDBRANCH  55  56
ENDBRANCH  49  50
ENDBRANCH  48  49
BRANCH  48  58
ATOM     58  C   UNL     1      -2.279  -7.687  -6.092  1.00  0.00     0.326 C 
ATOM     59  O   UNL     1      -1.684  -6.666  -6.399  1.00  0.00    -0.250 OA
BRANCH  58  60
ATOM     60  O   UNL     1      -2.254  -8.748  -6.937  1.00  0.00    -0.480 OA
ATOM     61  H   UNL     1      -1.639  -8.458  -7.645  1.00  0.00     0.296 HD
ENDBRANCH  58  60
ENDBRANCH  48  58
ENDBRANCH  46  48
ENDBRANCH  34  44
ENDBRANCH  32  34
ENDBRANCH  25  30
ENDBRANCH  23  25
ENDBRANCH   2  23
TORSDOF 28
ENDMDL
MODEL 10
REMARK VINA RESULT:    -7.824      3.976      6.259
REMARK INTER + INTRA:         -24.795
REMARK INTER:                 -21.716
REMARK INTRA:                  -3.078
REMARK UNBOUND:                -5.306
REMARK SMILES CCCCCCC[C@H](N)[C@H](O)C(=O)N[C@H](C)C(=O)N(C)[C@H](CC(C)C)C(=O)N[C@@H](Cc1ccc(O)cc1)C(=O)N[C@@H](Cc1ccc(O)cc1)C(=O)O
REMARK SMILES IDX 18 1 17 2 15 3 16 4 14 5 12 6 13 7 10 9 11 10 8 12 9 13 7 16
REMARK SMILES IDX 6 17 5 18 4 19 3 20 2 21 1 22 19 23 20 24 21 25 22 26 23 27
REMARK SMILES IDX 24 28 25 29 26 30 27 31 28 32 29 34 30 35 31 36 32 37 37 38
REMARK SMILES IDX 33 39 36 40 34 41 35 42 38 44 39 45 40 46 41 48 42 49 43 50
REMARK SMILES IDX 44 51 49 52 45 53 48 54 46 55 47 56 50 58 51 59 52 60
REMARK H PARENT 14 8 11 11 9 14 9 15 28 33 35 43 40 47 47 57 52 61
ROOT
ATOM      1  O   UNL     1      -6.426  -5.489   3.590  1.00  0.00    -0.272 OA
ATOM      2  C   UNL     1      -6.949  -6.400   2.931  1.00  0.00     0.245 C 
ENDROOT
BRANCH   2   3
ATOM      3  C   UNL     1      -6.122  -7.068   1.804  1.00  0.00     0.168 C 
ATOM      4  C   UNL     1      -4.726  -6.460   1.724  1.00  0.00     0.041 C 
BRANCH   3   5
ATOM      5  N   UNL     1      -6.078  -8.521   1.857  1.00  0.00    -0.342 N 
ATOM      6  C   UNL     1      -6.248  -9.296   0.729  1.00  0.00     0.251 C 
ATOM      7  O   UNL     1      -6.488  -8.832  -0.380  1.00  0.00    -0.272 OA
ATOM      8  H   UNL     1      -5.920  -9.021   2.729  1.00  0.00     0.164 HD
BRANCH   6   9
ATOM      9  C   UNL     1      -6.021 -10.793   0.997  1.00  0.00     0.219 C 
BRANCH   9  10
ATOM     10  O   UNL     1      -6.700 -11.254   2.171  1.00  0.00    -0.382 OA
ATOM     11  H   UNL     1      -7.582 -11.528   1.835  1.00  0.00     0.211 HD
ENDBRANCH   9  10
BRANCH   9  12
ATOM     12  C   UNL     1      -6.360 -11.688  -0.224  1.00  0.00     0.089 C 
BRANCH  12  13
ATOM     13  N   UNL     1      -5.459 -11.319  -1.339  1.00  0.00    -0.325 NA
ATOM     14  H   UNL     1      -5.506 -10.309  -1.490  1.00  0.00     0.119 HD
ATOM     15  H   UNL     1      -5.814 -11.735  -2.203  1.00  0.00     0.119 HD
ENDBRANCH  12  13
BRANCH  12  16
ATOM     16  C   UNL     1      -6.307 -13.215   0.020  1.00  0.00     0.022 C 
BRANCH  16  17
ATOM     17  C   UNL     1      -6.470 -14.168  -1.172  1.00  0.00     0.002 C 
BRANCH  17  18
ATOM     18  C   UNL     1      -6.786 -15.615  -0.802  1.00  0.00     0.000 C 
BRANCH  18  19
ATOM     19  C   UNL     1      -8.198 -15.822  -0.238  1.00  0.00    -0.000 C 
BRANCH  19  20
ATOM     20  C   UNL     1      -8.472 -17.216   0.333  1.00  0.00    -0.000 C 
BRANCH  20  21
ATOM     21  C   UNL     1      -9.878 -17.729   0.013  1.00  0.00    -0.003 C 
ATOM     22  C   UNL     1     -10.572 -16.843  -1.010  1.00  0.00     0.004 C 
ENDBRANCH  20  21
ENDBRANCH  19  20
ENDBRANCH  18  19
ENDBRANCH  17  18
ENDBRANCH  16  17
ENDBRANCH  12  16
ENDBRANCH   9  12
ENDBRANCH   6   9
ENDBRANCH   3   5
ENDBRANCH   2   3
BRANCH   2  23
ATOM     23  N   UNL     1      -8.202  -6.886   3.288  1.00  0.00    -0.332 N 
ATOM     24  C   UNL     1      -8.488  -7.612   4.516  1.00  0.00     0.147 C 
BRANCH  23  25
ATOM     25  C   UNL     1      -9.395  -6.566   2.456  1.00  0.00     0.174 C 
BRANCH  25  26
ATOM     26  C   UNL     1      -9.328  -7.189   1.042  1.00  0.00     0.038 C 
BRANCH  26  27
ATOM     27  C   UNL     1     -10.617  -7.851   0.506  1.00  0.00    -0.015 C 
ATOM     28  C   UNL     1     -11.635  -8.126   1.612  1.00  0.00     0.007 C 
ATOM     29  C   UNL     1     -11.264  -7.080  -0.641  1.00  0.00     0.007 C 
ENDBRANCH  26  27
ENDBRANCH  25  26
BRANCH  25  30
ATOM     30  C   UNL     1      -9.649  -5.041   2.453  1.00  0.00     0.243 C 
ATOM     31  O   UNL     1     -10.407  -4.510   1.643  1.00  0.00    -0.273 OA
ATOM     32  N   UNL     1      -8.970  -4.325   3.405  1.00  0.00    -0.342 N 
ATOM     33  H   UNL     1      -8.472  -4.851   4.128  1.00  0.00     0.164 HD
BRANCH  32  34
ATOM     34  C   UNL     1      -9.067  -2.868   3.533  1.00  0.00     0.175 C 
BRANCH  34  35
ATOM     35  C   UNL     1      -9.197  -2.444   5.004  1.00  0.00     0.070 C 
BRANCH  35  36
ATOM     36  C   UNL     1      -9.386  -3.619   5.937  1.00  0.00    -0.045 A 
ATOM     37  C   UNL     1     -10.679  -4.030   6.294  1.00  0.00     0.007 A 
ATOM     38  C   UNL     1      -8.283  -4.295   6.473  1.00  0.00     0.007 A 
ATOM     39  C   UNL     1     -10.863  -5.104   7.165  1.00  0.00     0.046 A 
ATOM     40  C   UNL     1      -8.467  -5.370   7.347  1.00  0.00     0.046 A 
ATOM     41  C   UNL     1      -9.757  -5.765   7.684  1.00  0.00     0.115 A 
BRANCH  41  42
ATOM     42  O   UNL     1      -9.980  -6.808   8.534  1.00  0.00    -0.508 OA
ATOM     43  H   UNL     1     -10.926  -6.822   8.756  1.00  0.00     0.293 HD
ENDBRANCH  41  42
ENDBRANCH  35  36
ENDBRANCH  34  35
BRANCH  34  44
ATOM     44  C   UNL     1      -7.823  -2.245   2.860  1.00  0.00     0.243 C 
ATOM     45  O   UNL     1      -7.740  -1.982   1.663  1.00  0.00    -0.273 OA
ATOM     46  N   UNL     1      -6.743  -2.125   3.708  1.00  0.00    -0.341 N 
ATOM     47  H   UNL     1      -6.824  -2.465   4.663  1.00  0.00     0.164 HD
BRANCH  46  48
ATOM     48  C   UNL     1      -5.434  -1.624   3.280  1.00  0.00     0.196 C 
BRANCH  48  49
ATOM     49  C   UNL     1      -4.676  -0.969   4.448  1.00  0.00     0.072 C 
BRANCH  49  50
ATOM     50  C   UNL     1      -3.880   0.242   4.017  1.00  0.00    -0.045 A 
ATOM     51  C   UNL     1      -4.009   1.449   4.720  1.00  0.00     0.007 A 
ATOM     52  C   UNL     1      -3.025   0.186   2.909  1.00  0.00     0.007 A 
ATOM     53  C   UNL     1      -3.289   2.576   4.324  1.00  0.00     0.046 A 
ATOM     54  C   UNL     1      -2.305   1.315   2.512  1.00  0.00     0.046 A 
ATOM     55  C   UNL     1      -2.443   2.501   3.224  1.00  0.00     0.115 A 
BRANCH  55  56
ATOM     56  O   UNL     1      -1.759   3.626   2.869  1.00  0.00    -0.508 OA
ATOM     57  H   UNL     1      -1.970   4.327   3.506  1.00  0.00     0.293 HD
ENDBRANCH  55  56
ENDBRANCH  49  50
ENDBRANCH  48  49
BRANCH  48  58
ATOM     58  C   UNL     1      -4.610  -2.793   2.723  1.00  0.00     0.326 C 
ATOM     59  O   UNL     1      -3.792  -3.472   3.322  1.00  0.00    -0.250 OA
BRANCH  58  60
ATOM     60  O   UNL     1      -4.871  -3.067   1.420  1.00  0.00    -0.480 OA
ATOM     61  H   UNL     1      -5.686  -2.550   1.239  1.00  0.00     0.296 HD
ENDBRANCH  58  60
ENDBRANCH  48  58
ENDBRANCH  46  48
ENDBRANCH  34  44
ENDBRANCH  32  34
ENDBRANCH  25  30
ENDBRANCH  23  25
ENDBRANCH   2  23
TORSDOF 28
ENDMDL
MODEL 11
REMARK VINA RESULT:    -7.790      2.991     10.389
REMARK INTER + INTRA:         -24.710
REMARK INTER:                 -21.666
REMARK INTRA:                  -3.044
REMARK UNBOUND:                -5.306
REMARK SMILES CCCCCCC[C@H](N)[C@H](O)C(=O)N[C@H](C)C(=O)N(C)[C@H](CC(C)C)C(=O)N[C@@H](Cc1ccc(O)cc1)C(=O)N[C@@H](Cc1ccc(O)cc1)C(=O)O
REMARK SMILES IDX 18 1 17 2 15 3 16 4 14 5 12 6 13 7 10 9 11 10 8 12 9 13 7 16
REMARK SMILES IDX 6 17 5 18 4 19 3 20 2 21 1 22 19 23 20 24 21 25 22 26 23 27
REMARK SMILES IDX 24 28 25 29 26 30 27 31 28 32 29 34 30 35 31 36 32 37 37 38
REMARK SMILES IDX 33 39 36 40 34 41 35 42 38 44 39 45 40 46 41 48 42 49 43 50
REMARK SMILES IDX 44 51 49 52 45 53 48 54 46 55 47 56 50 58 51 59 52 60
REMARK H PARENT 14 8 11 11 9 14 9 15 28 33 35 43 40 47 47 57 52 61
ROOT
ATOM      1  O   UNL     1      -4.730  -2.369  -0.821  1.00  0.00    -0.272 OA
ATOM      2  C   UNL     1      -5.252  -2.618   0.276  1.00  0.00     0.245 C 
ENDROOT
BRANCH   2   3
ATOM      3  C   UNL     1      -4.830  -1.775   1.505  1.00  0.00     0.168 C 
ATOM      4  C   UNL     1      -4.488  -2.675   2.687  1.00  0.00     0.041 C 
BRANCH   3   5
ATOM      5  N   UNL     1      -3.783  -0.799   1.247  1.00  0.00    -0.342 N 
ATOM      6  C   UNL     1      -4.030   0.558   1.271  1.00  0.00     0.251 C 
ATOM      7  O   UNL     1      -5.141   1.039   1.467  1.00  0.00    -0.272 OA
ATOM      8  H   UNL     1      -2.828  -1.079   1.037  1.00  0.00     0.164 HD
BRANCH   6   9
ATOM      9  C   UNL     1      -2.753   1.398   1.112  1.00  0.00     0.219 C 
BRANCH   9  10
ATOM     10  O   UNL     1      -2.925   2.500   0.213  1.00  0.00    -0.382 OA
ATOM     11  H   UNL     1      -2.054   2.955   0.236  1.00  0.00     0.211 HD
ENDBRANCH   9  10
BRANCH   9  12
ATOM     12  C   UNL     1      -2.167   1.877   2.466  1.00  0.00     0.089 C 
BRANCH  12  13
ATOM     13  N   UNL     1      -2.121   3.357   2.457  1.00  0.00    -0.325 NA
ATOM     14  H   UNL     1      -2.887   3.714   1.884  1.00  0.00     0.119 HD
ATOM     15  H   UNL     1      -1.268   3.659   1.981  1.00  0.00     0.119 HD
ENDBRANCH  12  13
BRANCH  12  16
ATOM     16  C   UNL     1      -2.895   1.375   3.735  1.00  0.00     0.022 C 
BRANCH  16  17
ATOM     17  C   UNL     1      -3.652   2.383   4.610  1.00  0.00     0.002 C 
BRANCH  17  18
ATOM     18  C   UNL     1      -4.688   1.771   5.550  1.00  0.00     0.000 C 
BRANCH  18  19
ATOM     19  C   UNL     1      -4.821   0.248   5.427  1.00  0.00    -0.000 C 
BRANCH  19  20
ATOM     20  C   UNL     1      -5.688  -0.418   6.499  1.00  0.00    -0.000 C 
BRANCH  20  21
ATOM     21  C   UNL     1      -6.412  -1.668   5.993  1.00  0.00    -0.003 C 
ATOM     22  C   UNL     1      -7.921  -1.474   5.994  1.00  0.00     0.004 C 
ENDBRANCH  20  21
ENDBRANCH  19  20
ENDBRANCH  18  19
ENDBRANCH  17  18
ENDBRANCH  16  17
ENDBRANCH  12  16
ENDBRANCH   9  12
ENDBRANCH   6   9
ENDBRANCH   3   5
ENDBRANCH   2   3
BRANCH   2  23
ATOM     23  N   UNL     1      -6.280  -3.550   0.361  1.00  0.00    -0.332 N 
ATOM     24  C   UNL     1      -7.663  -3.228   0.680  1.00  0.00     0.147 C 
BRANCH  23  25
ATOM     25  C   UNL     1      -6.038  -4.972  -0.007  1.00  0.00     0.174 C 
BRANCH  25  26
ATOM     26  C   UNL     1      -5.027  -5.673   0.931  1.00  0.00     0.038 C 
BRANCH  26  27
ATOM     27  C   UNL     1      -5.451  -7.036   1.523  1.00  0.00    -0.015 C 
ATOM     28  C   UNL     1      -4.521  -8.172   1.098  1.00  0.00     0.007 C 
ATOM     29  C   UNL     1      -5.614  -7.015   3.040  1.00  0.00     0.007 C 
ENDBRANCH  26  27
ENDBRANCH  25  26
BRANCH  25  30
ATOM     30  C   UNL     1      -5.671  -5.078  -1.506  1.00  0.00     0.243 C 
ATOM     31  O   UNL     1      -6.497  -4.868  -2.393  1.00  0.00    -0.273 OA
ATOM     32  N   UNL     1      -4.373  -5.427  -1.776  1.00  0.00    -0.342 N 
ATOM     33  H   UNL     1      -3.715  -5.446  -0.993  1.00  0.00     0.164 HD
BRANCH  32  34
ATOM     34  C   UNL     1      -3.856  -5.601  -3.136  1.00  0.00     0.175 C 
BRANCH  34  35
ATOM     35  C   UNL     1      -2.830  -4.512  -3.487  1.00  0.00     0.070 C 
BRANCH  35  36
ATOM     36  C   UNL     1      -3.028  -3.948  -4.876  1.00  0.00    -0.045 A 
ATOM     37  C   UNL     1      -4.300  -3.972  -5.468  1.00  0.00     0.007 A 
ATOM     38  C   UNL     1      -1.951  -3.418  -5.597  1.00  0.00     0.007 A 
ATOM     39  C   UNL     1      -4.490  -3.467  -6.755  1.00  0.00     0.046 A 
ATOM     40  C   UNL     1      -2.140  -2.913  -6.886  1.00  0.00     0.046 A 
ATOM     41  C   UNL     1      -3.410  -2.941  -7.453  1.00  0.00     0.115 A 
BRANCH  41  42
ATOM     42  O   UNL     1      -3.637  -2.460  -8.708  1.00  0.00    -0.508 OA
ATOM     43  H   UNL     1      -3.126  -1.641  -8.818  1.00  0.00     0.293 HD
ENDBRANCH  41  42
ENDBRANCH  35  36
ENDBRANCH  34  35
BRANCH  34  44
ATOM     44  C   UNL     1      -3.252  -7.019  -3.241  1.00  0.00     0.243 C 
ATOM     45  O   UNL     1      -3.151  -7.802  -2.300  1.00  0.00    -0.273 OA
ATOM     46  N   UNL     1      -2.704  -7.292  -4.476  1.00  0.00    -0.341 N 
ATOM     47  H   UNL     1      -2.708  -6.567  -5.190  1.00  0.00     0.164 HD
BRANCH  46  48
ATOM     48  C   UNL     1      -2.015  -8.545  -4.793  1.00  0.00     0.196 C 
BRANCH  48  49
ATOM     49  C   UNL     1      -2.218  -8.939  -6.266  1.00  0.00     0.072 C 
BRANCH  49  50
ATOM     50  C   UNL     1      -2.246 -10.437  -6.469  1.00  0.00    -0.045 A 
ATOM     51  C   UNL     1      -2.659 -11.276  -5.424  1.00  0.00     0.007 A 
ATOM     52  C   UNL     1      -1.846 -11.007  -7.684  1.00  0.00     0.007 A 
ATOM     53  C   UNL     1      -2.677 -12.660  -5.596  1.00  0.00     0.046 A 
ATOM     54  C   UNL     1      -1.862 -12.393  -7.856  1.00  0.00     0.046 A 
ATOM     55  C   UNL     1      -2.279 -13.208  -6.809  1.00  0.00     0.115 A 
BRANCH  55  56
ATOM     56  O   UNL     1      -2.309 -14.566  -6.936  1.00  0.00    -0.508 OA
ATOM     57  H   UNL     1      -1.408 -14.876  -7.116  1.00  0.00     0.293 HD
ENDBRANCH  55  56
ENDBRANCH  49  50
ENDBRANCH  48  49
BRANCH  48  58
ATOM     58  C   UNL     1      -0.517  -8.377  -4.506  1.00  0.00     0.326 C 
ATOM     59  O   UNL     1       0.388  -8.307  -5.322  1.00  0.00    -0.250 OA
BRANCH  58  60
ATOM     60  O   UNL     1      -0.225  -8.289  -3.184  1.00  0.00    -0.480 OA
ATOM     61  H   UNL     1      -0.490  -9.168  -2.835  1.00  0.00     0.296 HD
ENDBRANCH  58  60
ENDBRANCH  48  58
ENDBRANCH  46  48
ENDBRANCH  34  44
ENDBRANCH  32  34
ENDBRANCH  25  30
ENDBRANCH  23  25
ENDBRANCH   2  23
TORSDOF 28
ENDMDL
MODEL 12
REMARK VINA RESULT:    -7.777      2.447      8.389
REMARK INTER + INTRA:         -24.678
REMARK INTER:                 -20.226
REMARK INTRA:                  -4.452
REMARK UNBOUND:                -5.306
REMARK SMILES CCCCCCC[C@H](N)[C@H](O)C(=O)N[C@H](C)C(=O)N(C)[C@H](CC(C)C)C(=O)N[C@@H](Cc1ccc(O)cc1)C(=O)N[C@@H](Cc1ccc(O)cc1)C(=O)O
REMARK SMILES IDX 18 1 17 2 15 3 16 4 14 5 12 6 13 7 10 9 11 10 8 12 9 13 7 16
REMARK SMILES IDX 6 17 5 18 4 19 3 20 2 21 1 22 19 23 20 24 21 25 22 26 23 27
REMARK SMILES IDX 24 28 25 29 26 30 27 31 28 32 29 34 30 35 31 36 32 37 37 38
REMARK SMILES IDX 33 39 36 40 34 41 35 42 38 44 39 45 40 46 41 48 42 49 43 50
REMARK SMILES IDX 44 51 49 52 45 53 48 54 46 55 47 56 50 58 51 59 52 60
REMARK H PARENT 14 8 11 11 9 14 9 15 28 33 35 43 40 47 47 57 52 61
ROOT
ATOM      1  O   UNL     1     -11.210  -2.697   2.988  1.00  0.00    -0.272 OA
ATOM      2  C   UNL     1     -10.071  -2.665   3.479  1.00  0.00     0.245 C 
ENDROOT
BRANCH   2   3
ATOM      3  C   UNL     1      -9.590  -1.355   4.151  1.00  0.00     0.168 C 
ATOM      4  C   UNL     1      -9.277  -1.586   5.625  1.00  0.00     0.041 C 
BRANCH   3   5
ATOM      5  N   UNL     1      -8.500  -0.681   3.464  1.00  0.00    -0.342 N 
ATOM      6  C   UNL     1      -8.699   0.016   2.291  1.00  0.00     0.251 C 
ATOM      7  O   UNL     1      -9.783   0.085   1.721  1.00  0.00    -0.272 OA
ATOM      8  H   UNL     1      -7.548  -0.697   3.823  1.00  0.00     0.164 HD
BRANCH   6   9
ATOM      9  C   UNL     1      -7.440   0.764   1.823  1.00  0.00     0.219 C 
BRANCH   9  10
ATOM     10  O   UNL     1      -7.048   1.804   2.727  1.00  0.00    -0.382 OA
ATOM     11  H   UNL     1      -7.693   2.522   2.547  1.00  0.00     0.211 HD
ENDBRANCH   9  10
BRANCH   9  12
ATOM     12  C   UNL     1      -6.248  -0.181   1.520  1.00  0.00     0.089 C 
BRANCH  12  13
ATOM     13  N   UNL     1      -6.554  -0.937   0.284  1.00  0.00    -0.325 NA
ATOM     14  H   UNL     1      -6.918  -1.858   0.536  1.00  0.00     0.119 HD
ATOM     15  H   UNL     1      -5.681  -1.123  -0.215  1.00  0.00     0.119 HD
ENDBRANCH  12  13
BRANCH  12  16
ATOM     16  C   UNL     1      -4.861   0.495   1.399  1.00  0.00     0.022 C 
BRANCH  16  17
ATOM     17  C   UNL     1      -3.674  -0.092   2.175  1.00  0.00     0.002 C 
BRANCH  17  18
ATOM     18  C   UNL     1      -3.858  -0.148   3.690  1.00  0.00     0.000 C 
BRANCH  18  19
ATOM     19  C   UNL     1      -3.949   1.230   4.359  1.00  0.00    -0.000 C 
BRANCH  19  20
ATOM     20  C   UNL     1      -4.733   1.264   5.674  1.00  0.00    -0.000 C 
BRANCH  20  21
ATOM     21  C   UNL     1      -5.763   0.136   5.787  1.00  0.00    -0.003 C 
ATOM     22  C   UNL     1      -5.548  -0.686   7.049  1.00  0.00     0.004 C 
ENDBRANCH  20  21
ENDBRANCH  19  20
ENDBRANCH  18  19
ENDBRANCH  17  18
ENDBRANCH  16  17
ENDBRANCH  12  16
ENDBRANCH   9  12
ENDBRANCH   6   9
ENDBRANCH   3   5
ENDBRANCH   2   3
BRANCH   2  23
ATOM     23  N   UNL     1      -9.302  -3.823   3.527  1.00  0.00    -0.332 N 
ATOM     24  C   UNL     1      -9.065  -4.607   4.731  1.00  0.00     0.147 C 
BRANCH  23  25
ATOM     25  C   UNL     1      -8.761  -4.418   2.275  1.00  0.00     0.174 C 
BRANCH  25  26
ATOM     26  C   UNL     1      -8.940  -5.953   2.211  1.00  0.00     0.038 C 
BRANCH  26  27
ATOM     27  C   UNL     1      -9.881  -6.503   1.116  1.00  0.00    -0.015 C 
ATOM     28  C   UNL     1     -11.302  -5.955   1.237  1.00  0.00     0.007 C 
ATOM     29  C   UNL     1      -9.347  -6.303  -0.300  1.00  0.00     0.007 C 
ENDBRANCH  26  27
ENDBRANCH  25  26
BRANCH  25  30
ATOM     30  C   UNL     1      -7.304  -3.953   2.051  1.00  0.00     0.243 C 
ATOM     31  O   UNL     1      -6.775  -3.105   2.768  1.00  0.00    -0.273 OA
ATOM     32  N   UNL     1      -6.647  -4.543   1.002  1.00  0.00    -0.342 N 
ATOM     33  H   UNL     1      -7.102  -5.337   0.544  1.00  0.00     0.164 HD
BRANCH  32  34
ATOM     34  C   UNL     1      -5.271  -4.206   0.626  1.00  0.00     0.175 C 
BRANCH  34  35
ATOM     35  C   UNL     1      -4.282  -5.278   1.107  1.00  0.00     0.070 C 
BRANCH  35  36
ATOM     36  C   UNL     1      -4.952  -6.598   1.414  1.00  0.00    -0.045 A 
ATOM     37  C   UNL     1      -5.233  -7.500   0.376  1.00  0.00     0.007 A 
ATOM     38  C   UNL     1      -5.323  -6.929   2.724  1.00  0.00     0.007 A 
ATOM     39  C   UNL     1      -5.864  -8.714   0.647  1.00  0.00     0.046 A 
ATOM     40  C   UNL     1      -5.956  -8.144   2.996  1.00  0.00     0.046 A 
ATOM     41  C   UNL     1      -6.220  -9.027   1.954  1.00  0.00     0.115 A 
BRANCH  41  42
ATOM     42  O   UNL     1      -6.837 -10.222   2.176  1.00  0.00    -0.508 OA
ATOM     43  H   UNL     1      -6.915 -10.351   3.136  1.00  0.00     0.293 HD
ENDBRANCH  41  42
ENDBRANCH  35  36
ENDBRANCH  34  35
BRANCH  34  44
ATOM     44  C   UNL     1      -5.226  -4.024  -0.908  1.00  0.00     0.243 C 
ATOM     45  O   UNL     1      -6.119  -3.507  -1.573  1.00  0.00    -0.273 OA
ATOM     46  N   UNL     1      -4.132  -4.621  -1.499  1.00  0.00    -0.341 N 
ATOM     47  H   UNL     1      -3.478  -5.140  -0.917  1.00  0.00     0.164 HD
BRANCH  46  48
ATOM     48  C   UNL     1      -3.908  -4.640  -2.946  1.00  0.00     0.196 C 
BRANCH  48  49
ATOM     49  C   UNL     1      -3.136  -3.394  -3.410  1.00  0.00     0.072 C 
BRANCH  49  50
ATOM     50  C   UNL     1      -3.173  -3.212  -4.911  1.00  0.00    -0.045 A 
ATOM     51  C   UNL     1      -2.030  -2.764  -5.589  1.00  0.00     0.007 A 
ATOM     52  C   UNL     1      -4.342  -3.464  -5.639  1.00  0.00     0.007 A 
ATOM     53  C   UNL     1      -2.056  -2.580  -6.971  1.00  0.00     0.046 A 
ATOM     54  C   UNL     1      -4.369  -3.278  -7.023  1.00  0.00     0.046 A 
ATOM     55  C   UNL     1      -3.224  -2.839  -7.678  1.00  0.00     0.115 A 
BRANCH  55  56
ATOM     56  O   UNL     1      -3.208  -2.644  -9.027  1.00  0.00    -0.508 OA
ATOM     57  H   UNL     1      -3.642  -1.798  -9.219  1.00  0.00     0.293 HD
ENDBRANCH  55  56
ENDBRANCH  49  50
ENDBRANCH  48  49
BRANCH  48  58
ATOM     58  C   UNL     1      -3.115  -5.903  -3.312  1.00  0.00     0.326 C 
ATOM     59  O   UNL     1      -1.909  -6.068  -3.228  1.00  0.00    -0.250 OA
BRANCH  58  60
ATOM     60  O   UNL     1      -3.894  -6.920  -3.759  1.00  0.00    -0.480 OA
ATOM     61  H   UNL     1      -4.801  -6.546  -3.718  1.00  0.00     0.296 HD
ENDBRANCH  58  60
ENDBRANCH  48  58
ENDBRANCH  46  48
ENDBRANCH  34  44
ENDBRANCH  32  34
ENDBRANCH  25  30
ENDBRANCH  23  25
ENDBRANCH   2  23
TORSDOF 28
ENDMDL
MODEL 13
REMARK VINA RESULT:    -7.672      2.544      3.822
REMARK INTER + INTRA:         -24.415
REMARK INTER:                 -20.749
REMARK INTRA:                  -3.666
REMARK UNBOUND:                -5.306
REMARK SMILES CCCCCCC[C@H](N)[C@H](O)C(=O)N[C@H](C)C(=O)N(C)[C@H](CC(C)C)C(=O)N[C@@H](Cc1ccc(O)cc1)C(=O)N[C@@H](Cc1ccc(O)cc1)C(=O)O
REMARK SMILES IDX 18 1 17 2 15 3 16 4 14 5 12 6 13 7 10 9 11 10 8 12 9 13 7 16
REMARK SMILES IDX 6 17 5 18 4 19 3 20 2 21 1 22 19 23 20 24 21 25 22 26 23 27
REMARK SMILES IDX 24 28 25 29 26 30 27 31 28 32 29 34 30 35 31 36 32 37 37 38
REMARK SMILES IDX 33 39 36 40 34 41 35 42 38 44 39 45 40 46 41 48 42 49 43 50
REMARK SMILES IDX 44 51 49 52 45 53 48 54 46 55 47 56 50 58 51 59 52 60
REMARK H PARENT 14 8 11 11 9 14 9 15 28 33 35 43 40 47 47 57 52 61
ROOT
ATOM      1  O   UNL     1      -7.030  -3.791  -0.125  1.00  0.00    -0.272 OA
ATOM      2  C   UNL     1      -6.753  -4.997  -0.207  1.00  0.00     0.245 C 
ENDROOT
BRANCH   2   3
ATOM      3  C   UNL     1      -5.786  -5.461  -1.324  1.00  0.00     0.168 C 
ATOM      4  C   UNL     1      -6.221  -6.809  -1.890  1.00  0.00     0.041 C 
BRANCH   3   5
ATOM      5  N   UNL     1      -5.551  -4.483  -2.375  1.00  0.00    -0.342 N 
ATOM      6  C   UNL     1      -4.290  -4.243  -2.877  1.00  0.00     0.251 C 
ATOM      7  O   UNL     1      -3.278  -4.795  -2.458  1.00  0.00    -0.272 OA
ATOM      8  H   UNL     1      -6.309  -3.937  -2.778  1.00  0.00     0.164 HD
BRANCH   6   9
ATOM      9  C   UNL     1      -4.300  -3.278  -4.074  1.00  0.00     0.219 C 
BRANCH   9  10
ATOM     10  O   UNL     1      -3.586  -2.064  -3.810  1.00  0.00    -0.382 OA
ATOM     11  H   UNL     1      -3.467  -2.073  -2.835  1.00  0.00     0.211 HD
ENDBRANCH   9  10
BRANCH   9  12
ATOM     12  C   UNL     1      -3.806  -3.933  -5.389  1.00  0.00     0.089 C 
BRANCH  12  13
ATOM     13  N   UNL     1      -4.781  -3.625  -6.460  1.00  0.00    -0.325 NA
ATOM     14  H   UNL     1      -4.522  -2.742  -6.906  1.00  0.00     0.119 HD
ATOM     15  H   UNL     1      -5.695  -3.452  -6.036  1.00  0.00     0.119 HD
ENDBRANCH  12  13
BRANCH  12  16
ATOM     16  C   UNL     1      -2.377  -3.548  -5.844  1.00  0.00     0.022 C 
BRANCH  16  17
ATOM     17  C   UNL     1      -1.175  -4.263  -5.213  1.00  0.00     0.002 C 
BRANCH  17  18
ATOM     18  C   UNL     1      -0.041  -4.594  -6.181  1.00  0.00     0.000 C 
BRANCH  18  19
ATOM     19  C   UNL     1       1.192  -3.692  -6.030  1.00  0.00    -0.000 C 
BRANCH  19  20
ATOM     20  C   UNL     1       1.550  -3.316  -4.589  1.00  0.00    -0.000 C 
BRANCH  20  21
ATOM     21  C   UNL     1       2.518  -2.134  -4.501  1.00  0.00    -0.003 C 
ATOM     22  C   UNL     1       3.950  -2.568  -4.770  1.00  0.00     0.004 C 
ENDBRANCH  20  21
ENDBRANCH  19  20
ENDBRANCH  18  19
ENDBRANCH  17  18
ENDBRANCH  16  17
ENDBRANCH  12  16
ENDBRANCH   9  12
ENDBRANCH   6   9
ENDBRANCH   3   5
ENDBRANCH   2   3
BRANCH   2  23
ATOM     23  N   UNL     1      -7.209  -5.882   0.764  1.00  0.00    -0.332 N 
ATOM     24  C   UNL     1      -6.353  -6.762   1.547  1.00  0.00     0.147 C 
BRANCH  23  25
ATOM     25  C   UNL     1      -8.644  -5.888   1.161  1.00  0.00     0.174 C 
BRANCH  25  26
ATOM     26  C   UNL     1      -9.600  -6.066  -0.041  1.00  0.00     0.038 C 
BRANCH  26  27
ATOM     27  C   UNL     1     -10.737  -7.101   0.116  1.00  0.00    -0.015 C 
ATOM     28  C   UNL     1     -11.993  -6.499   0.745  1.00  0.00     0.007 C 
ATOM     29  C   UNL     1     -11.082  -7.826  -1.183  1.00  0.00     0.007 C 
ENDBRANCH  26  27
ENDBRANCH  25  26
BRANCH  25  30
ATOM     30  C   UNL     1      -8.961  -4.649   2.029  1.00  0.00     0.243 C 
ATOM     31  O   UNL     1     -10.097  -4.184   2.108  1.00  0.00    -0.273 OA
ATOM     32  N   UNL     1      -7.895  -4.103   2.696  1.00  0.00    -0.342 N 
ATOM     33  H   UNL     1      -7.016  -4.627   2.694  1.00  0.00     0.164 HD
BRANCH  32  34
ATOM     34  C   UNL     1      -8.003  -2.911   3.542  1.00  0.00     0.175 C 
BRANCH  34  35
ATOM     35  C   UNL     1      -7.852  -3.267   5.030  1.00  0.00     0.070 C 
BRANCH  35  36
ATOM     36  C   UNL     1      -9.059  -3.989   5.584  1.00  0.00    -0.045 A 
ATOM     37  C   UNL     1      -8.946  -5.322   6.007  1.00  0.00     0.007 A 
ATOM     38  C   UNL     1     -10.305  -3.353   5.662  1.00  0.00     0.007 A 
ATOM     39  C   UNL     1     -10.057  -6.001   6.507  1.00  0.00     0.046 A 
ATOM     40  C   UNL     1     -11.418  -4.032   6.161  1.00  0.00     0.046 A 
ATOM     41  C   UNL     1     -11.284  -5.352   6.581  1.00  0.00     0.115 A 
BRANCH  41  42
ATOM     42  O   UNL     1     -12.345  -6.052   7.072  1.00  0.00    -0.508 OA
ATOM     43  H   UNL     1     -12.004  -6.805   7.582  1.00  0.00     0.293 HD
ENDBRANCH  41  42
ENDBRANCH  35  36
ENDBRANCH  34  35
BRANCH  34  44
ATOM     44  C   UNL     1      -6.933  -1.897   3.080  1.00  0.00     0.243 C 
ATOM     45  O   UNL     1      -7.078  -0.678   3.102  1.00  0.00    -0.273 OA
ATOM     46  N   UNL     1      -5.828  -2.488   2.506  1.00  0.00    -0.341 N 
ATOM     47  H   UNL     1      -5.806  -3.500   2.404  1.00  0.00     0.164 HD
BRANCH  46  48
ATOM     48  C   UNL     1      -4.714  -1.729   1.933  1.00  0.00     0.196 C 
BRANCH  48  49
ATOM     49  C   UNL     1      -3.591  -1.519   2.962  1.00  0.00     0.072 C 
BRANCH  49  50
ATOM     50  C   UNL     1      -3.419  -0.067   3.347  1.00  0.00    -0.045 A 
ATOM     51  C   UNL     1      -4.110   0.451   4.452  1.00  0.00     0.007 A 
ATOM     52  C   UNL     1      -2.591   0.783   2.602  1.00  0.00     0.007 A 
ATOM     53  C   UNL     1      -3.969   1.792   4.808  1.00  0.00     0.046 A 
ATOM     54  C   UNL     1      -2.451   2.126   2.958  1.00  0.00     0.046 A 
ATOM     55  C   UNL     1      -3.141   2.619   4.060  1.00  0.00     0.115 A 
BRANCH  55  56
ATOM     56  O   UNL     1      -3.032   3.924   4.440  1.00  0.00    -0.508 OA
ATOM     57  H   UNL     1      -2.117   4.211   4.291  1.00  0.00     0.293 HD
ENDBRANCH  55  56
ENDBRANCH  49  50
ENDBRANCH  48  49
BRANCH  48  58
ATOM     58  C   UNL     1      -4.164  -2.490   0.718  1.00  0.00     0.326 C 
ATOM     59  O   UNL     1      -3.401  -3.442   0.727  1.00  0.00    -0.250 OA
BRANCH  58  60
ATOM     60  O   UNL     1      -4.620  -2.017  -0.469  1.00  0.00    -0.480 OA
ATOM     61  H   UNL     1      -5.571  -2.261  -0.459  1.00  0.00     0.296 HD
ENDBRANCH  58  60
ENDBRANCH  48  58
ENDBRANCH  46  48
ENDBRANCH  34  44
ENDBRANCH  32  34
ENDBRANCH  25  30
ENDBRANCH  23  25
ENDBRANCH   2  23
TORSDOF 28
ENDMDL
MODEL 14
REMARK VINA RESULT:    -7.606      3.593      8.636
REMARK INTER + INTRA:         -24.251
REMARK INTER:                 -19.700
REMARK INTRA:                  -4.551
REMARK UNBOUND:                -5.306
REMARK SMILES CCCCCCC[C@H](N)[C@H](O)C(=O)N[C@H](C)C(=O)N(C)[C@H](CC(C)C)C(=O)N[C@@H](Cc1ccc(O)cc1)C(=O)N[C@@H](Cc1ccc(O)cc1)C(=O)O
REMARK SMILES IDX 18 1 17 2 15 3 16 4 14 5 12 6 13 7 10 9 11 10 8 12 9 13 7 16
REMARK SMILES IDX 6 17 5 18 4 19 3 20 2 21 1 22 19 23 20 24 21 25 22 26 23 27
REMARK SMILES IDX 24 28 25 29 26 30 27 31 28 32 29 34 30 35 31 36 32 37 37 38
REMARK SMILES IDX 33 39 36 40 34 41 35 42 38 44 39 45 40 46 41 48 42 49 43 50
REMARK SMILES IDX 44 51 49 52 45 53 48 54 46 55 47 56 50 58 51 59 52 60
REMARK H PARENT 14 8 11 11 9 14 9 15 28 33 35 43 40 47 47 57 52 61
ROOT
ATOM      1  O   UNL     1      -6.915   0.064   3.115  1.00  0.00    -0.272 OA
ATOM      2  C   UNL     1      -7.674  -0.900   3.297  1.00  0.00     0.245 C 
ENDROOT
BRANCH   2   3
ATOM      3  C   UNL     1      -8.434  -1.485   2.080  1.00  0.00     0.168 C 
ATOM      4  C   UNL     1      -9.378  -0.448   1.482  1.00  0.00     0.041 C 
BRANCH   3   5
ATOM      5  N   UNL     1      -7.587  -2.095   1.067  1.00  0.00    -0.342 N 
ATOM      6  C   UNL     1      -7.594  -3.454   0.834  1.00  0.00     0.251 C 
ATOM      7  O   UNL     1      -8.271  -4.247   1.480  1.00  0.00    -0.272 OA
ATOM      8  H   UNL     1      -6.957  -1.542   0.491  1.00  0.00     0.164 HD
BRANCH   6   9
ATOM      9  C   UNL     1      -6.731  -3.855  -0.373  1.00  0.00     0.219 C 
BRANCH   9  10
ATOM     10  O   UNL     1      -7.165  -3.239  -1.591  1.00  0.00    -0.382 OA
ATOM     11  H   UNL     1      -8.143  -3.324  -1.557  1.00  0.00     0.211 HD
ENDBRANCH   9  10
BRANCH   9  12
ATOM     12  C   UNL     1      -5.216  -3.617  -0.144  1.00  0.00     0.089 C 
BRANCH  12  13
ATOM     13  N   UNL     1      -4.926  -2.186  -0.390  1.00  0.00    -0.325 NA
ATOM     14  H   UNL     1      -5.794  -1.651  -0.325  1.00  0.00     0.119 HD
ATOM     15  H   UNL     1      -4.614  -2.073  -1.358  1.00  0.00     0.119 HD
ENDBRANCH  12  13
BRANCH  12  16
ATOM     16  C   UNL     1      -4.664  -4.042   1.237  1.00  0.00     0.022 C 
BRANCH  16  17
ATOM     17  C   UNL     1      -3.148  -4.005   1.480  1.00  0.00     0.002 C 
BRANCH  17  18
ATOM     18  C   UNL     1      -2.700  -3.094   2.620  1.00  0.00     0.000 C 
BRANCH  18  19
ATOM     19  C   UNL     1      -3.765  -2.085   3.070  1.00  0.00    -0.000 C 
BRANCH  19  20
ATOM     20  C   UNL     1      -3.387  -0.613   2.884  1.00  0.00    -0.000 C 
BRANCH  20  21
ATOM     21  C   UNL     1      -3.748   0.256   4.092  1.00  0.00    -0.003 C 
ATOM     22  C   UNL     1      -3.350   1.707   3.869  1.00  0.00     0.004 C 
ENDBRANCH  20  21
ENDBRANCH  19  20
ENDBRANCH  18  19
ENDBRANCH  17  18
ENDBRANCH  16  17
ENDBRANCH  12  16
ENDBRANCH   9  12
ENDBRANCH   6   9
ENDBRANCH   3   5
ENDBRANCH   2   3
BRANCH   2  23
ATOM     23  N   UNL     1      -7.737  -1.509   4.545  1.00  0.00    -0.332 N 
ATOM     24  C   UNL     1      -6.896  -1.158   5.679  1.00  0.00     0.147 C 
BRANCH  23  25
ATOM     25  C   UNL     1      -8.799  -2.511   4.839  1.00  0.00     0.174 C 
BRANCH  25  26
ATOM     26  C   UNL     1      -9.787  -2.038   5.930  1.00  0.00     0.038 C 
BRANCH  26  27
ATOM     27  C   UNL     1     -10.934  -1.105   5.480  1.00  0.00    -0.015 C 
ATOM     28  C   UNL     1     -11.613  -1.590   4.199  1.00  0.00     0.007 C 
ATOM     29  C   UNL     1     -11.969  -0.845   6.571  1.00  0.00     0.007 C 
ENDBRANCH  26  27
ENDBRANCH  25  26
BRANCH  25  30
ATOM     30  C   UNL     1      -8.163  -3.890   5.131  1.00  0.00     0.243 C 
ATOM     31  O   UNL     1      -7.170  -4.009   5.848  1.00  0.00    -0.273 OA
ATOM     32  N   UNL     1      -8.774  -4.963   4.536  1.00  0.00    -0.342 N 
ATOM     33  H   UNL     1      -9.672  -4.800   4.073  1.00  0.00     0.164 HD
BRANCH  32  34
ATOM     34  C   UNL     1      -8.293  -6.340   4.679  1.00  0.00     0.175 C 
BRANCH  34  35
ATOM     35  C   UNL     1      -9.458  -7.342   4.666  1.00  0.00     0.070 C 
BRANCH  35  36
ATOM     36  C   UNL     1      -9.529  -8.172   5.928  1.00  0.00    -0.045 A 
ATOM     37  C   UNL     1      -8.920  -9.435   5.972  1.00  0.00     0.007 A 
ATOM     38  C   UNL     1     -10.218  -7.707   7.056  1.00  0.00     0.007 A 
ATOM     39  C   UNL     1      -8.992 -10.214   7.128  1.00  0.00     0.046 A 
ATOM     40  C   UNL     1     -10.291  -8.487   8.213  1.00  0.00     0.046 A 
ATOM     41  C   UNL     1      -9.676  -9.734   8.238  1.00  0.00     0.115 A 
BRANCH  41  42
ATOM     42  O   UNL     1      -9.725 -10.527   9.346  1.00  0.00    -0.508 OA
ATOM     43  H   UNL     1      -8.863 -10.963   9.447  1.00  0.00     0.293 HD
ENDBRANCH  41  42
ENDBRANCH  35  36
ENDBRANCH  34  35
BRANCH  34  44
ATOM     44  C   UNL     1      -7.283  -6.615   3.542  1.00  0.00     0.243 C 
ATOM     45  O   UNL     1      -6.101  -6.282   3.569  1.00  0.00    -0.273 OA
ATOM     46  N   UNL     1      -7.859  -7.163   2.416  1.00  0.00    -0.341 N 
ATOM     47  H   UNL     1      -8.865  -7.313   2.399  1.00  0.00     0.164 HD
BRANCH  46  48
ATOM     48  C   UNL     1      -7.115  -7.448   1.187  1.00  0.00     0.196 C 
BRANCH  48  49
ATOM     49  C   UNL     1      -6.274  -8.729   1.326  1.00  0.00     0.072 C 
BRANCH  49  50
ATOM     50  C   UNL     1      -5.484  -9.044   0.077  1.00  0.00    -0.045 A 
ATOM     51  C   UNL     1      -4.576  -8.104  -0.432  1.00  0.00     0.007 A 
ATOM     52  C   UNL     1      -5.658 -10.259  -0.599  1.00  0.00     0.007 A 
ATOM     53  C   UNL     1      -3.850  -8.379  -1.591  1.00  0.00     0.046 A 
ATOM     54  C   UNL     1      -4.933 -10.533  -1.761  1.00  0.00     0.046 A 
ATOM     55  C   UNL     1      -4.034  -9.590  -2.246  1.00  0.00     0.115 A 
BRANCH  55  56
ATOM     56  O   UNL     1      -3.307  -9.819  -3.377  1.00  0.00    -0.508 OA
ATOM     57  H   UNL     1      -2.694  -9.077  -3.503  1.00  0.00     0.293 HD
ENDBRANCH  55  56
ENDBRANCH  49  50
ENDBRANCH  48  49
BRANCH  48  58
ATOM     58  C   UNL     1      -8.107  -7.607   0.027  1.00  0.00     0.326 C 
ATOM     59  O   UNL     1      -8.153  -6.952  -1.001  1.00  0.00    -0.250 OA
BRANCH  58  60
ATOM     60  O   UNL     1      -9.002  -8.610   0.214  1.00  0.00    -0.480 OA
ATOM     61  H   UNL     1      -8.533  -9.399  -0.134  1.00  0.00     0.296 HD
ENDBRANCH  58  60
ENDBRANCH  48  58
ENDBRANCH  46  48
ENDBRANCH  34  44
ENDBRANCH  32  34
ENDBRANCH  25  30
ENDBRANCH  23  25
ENDBRANCH   2  23
TORSDOF 28
ENDMDL
MODEL 15
REMARK VINA RESULT:    -7.593      2.645      9.643
REMARK INTER + INTRA:         -24.219
REMARK INTER:                 -20.821
REMARK INTRA:                  -3.398
REMARK UNBOUND:                -5.306
REMARK SMILES CCCCCCC[C@H](N)[C@H](O)C(=O)N[C@H](C)C(=O)N(C)[C@H](CC(C)C)C(=O)N[C@@H](Cc1ccc(O)cc1)C(=O)N[C@@H](Cc1ccc(O)cc1)C(=O)O
REMARK SMILES IDX 18 1 17 2 15 3 16 4 14 5 12 6 13 7 10 9 11 10 8 12 9 13 7 16
REMARK SMILES IDX 6 17 5 18 4 19 3 20 2 21 1 22 19 23 20 24 21 25 22 26 23 27
REMARK SMILES IDX 24 28 25 29 26 30 27 31 28 32 29 34 30 35 31 36 32 37 37 38
REMARK SMILES IDX 33 39 36 40 34 41 35 42 38 44 39 45 40 46 41 48 42 49 43 50
REMARK SMILES IDX 44 51 49 52 45 53 48 54 46 55 47 56 50 58 51 59 52 60
REMARK H PARENT 14 8 11 11 9 14 9 15 28 33 35 43 40 47 47 57 52 61
ROOT
ATOM      1  O   UNL     1      -4.012  -4.093  -0.457  1.00  0.00    -0.272 OA
ATOM      2  C   UNL     1      -4.670  -4.482   0.519  1.00  0.00     0.245 C 
ENDROOT
BRANCH   2   3
ATOM      3  C   UNL     1      -4.206  -4.067   1.938  1.00  0.00     0.168 C 
ATOM      4  C   UNL     1      -2.697  -3.857   1.975  1.00  0.00     0.041 C 
BRANCH   3   5
ATOM      5  N   UNL     1      -4.924  -2.938   2.509  1.00  0.00    -0.342 N 
ATOM      6  C   UNL     1      -5.983  -3.111   3.375  1.00  0.00     0.251 C 
ATOM      7  O   UNL     1      -6.423  -4.211   3.694  1.00  0.00    -0.272 OA
ATOM      8  H   UNL     1      -4.673  -1.976   2.291  1.00  0.00     0.164 HD
BRANCH   6   9
ATOM      9  C   UNL     1      -6.494  -1.786   3.962  1.00  0.00     0.219 C 
BRANCH   9  10
ATOM     10  O   UNL     1      -6.241  -1.670   5.368  1.00  0.00    -0.382 OA
ATOM     11  H   UNL     1      -5.265  -1.767   5.435  1.00  0.00     0.211 HD
ENDBRANCH   9  10
BRANCH   9  12
ATOM     12  C   UNL     1      -5.968  -0.540   3.203  1.00  0.00     0.089 C 
BRANCH  12  13
ATOM     13  N   UNL     1      -6.486  -0.584   1.816  1.00  0.00    -0.325 NA
ATOM     14  H   UNL     1      -5.703  -0.522   1.163  1.00  0.00     0.119 HD
ATOM     15  H   UNL     1      -7.044   0.255   1.645  1.00  0.00     0.119 HD
ENDBRANCH  12  13
BRANCH  12  16
ATOM     16  C   UNL     1      -6.286   0.831   3.846  1.00  0.00     0.022 C 
BRANCH  16  17
ATOM     17  C   UNL     1      -5.290   1.437   4.844  1.00  0.00     0.002 C 
BRANCH  17  18
ATOM     18  C   UNL     1      -3.827   1.077   4.594  1.00  0.00     0.000 C 
BRANCH  18  19
ATOM     19  C   UNL     1      -3.013   2.196   3.932  1.00  0.00    -0.000 C 
BRANCH  19  20
ATOM     20  C   UNL     1      -2.160   1.760   2.737  1.00  0.00    -0.000 C 
BRANCH  20  21
ATOM     21  C   UNL     1      -2.996   1.320   1.533  1.00  0.00    -0.003 C 
ATOM     22  C   UNL     1      -2.653   2.132   0.293  1.00  0.00     0.004 C 
ENDBRANCH  20  21
ENDBRANCH  19  20
ENDBRANCH  18  19
ENDBRANCH  17  18
ENDBRANCH  16  17
ENDBRANCH  12  16
ENDBRANCH   9  12
ENDBRANCH   6   9
ENDBRANCH   3   5
ENDBRANCH   2   3
BRANCH   2  23
ATOM     23  N   UNL     1      -5.863  -5.170   0.325  1.00  0.00    -0.332 N 
ATOM     24  C   UNL     1      -7.168  -4.540   0.197  1.00  0.00     0.147 C 
BRANCH  23  25
ATOM     25  C   UNL     1      -5.853  -6.642   0.101  1.00  0.00     0.174 C 
BRANCH  25  26
ATOM     26  C   UNL     1      -5.106  -7.415   1.213  1.00  0.00     0.038 C 
BRANCH  26  27
ATOM     27  C   UNL     1      -5.971  -8.216   2.211  1.00  0.00    -0.015 C 
ATOM     28  C   UNL     1      -5.606  -9.700   2.240  1.00  0.00     0.007 C 
ATOM     29  C   UNL     1      -5.966  -7.634   3.622  1.00  0.00     0.007 C 
ENDBRANCH  26  27
ENDBRANCH  25  26
BRANCH  25  30
ATOM     30  C   UNL     1      -5.347  -6.960  -1.325  1.00  0.00     0.243 C 
ATOM     31  O   UNL     1      -6.039  -6.754  -2.321  1.00  0.00    -0.273 OA
ATOM     32  N   UNL     1      -4.085  -7.490  -1.402  1.00  0.00    -0.342 N 
ATOM     33  H   UNL     1      -3.522  -7.499  -0.548  1.00  0.00     0.164 HD
BRANCH  32  34
ATOM     34  C   UNL     1      -3.454  -7.877  -2.667  1.00  0.00     0.175 C 
BRANCH  34  35
ATOM     35  C   UNL     1      -4.445  -8.611  -3.584  1.00  0.00     0.070 C 
BRANCH  35  36
ATOM     36  C   UNL     1      -3.793  -9.715  -4.385  1.00  0.00    -0.045 A 
ATOM     37  C   UNL     1      -3.756 -11.023  -3.878  1.00  0.00     0.007 A 
ATOM     38  C   UNL     1      -3.198  -9.448  -5.625  1.00  0.00     0.007 A 
ATOM     39  C   UNL     1      -3.145 -12.045  -4.604  1.00  0.00     0.046 A 
ATOM     40  C   UNL     1      -2.584 -10.471  -6.352  1.00  0.00     0.046 A 
ATOM     41  C   UNL     1      -2.565 -11.762  -5.834  1.00  0.00     0.115 A 
BRANCH  41  42
ATOM     42  O   UNL     1      -1.974 -12.789  -6.510  1.00  0.00    -0.508 OA
ATOM     43  H   UNL     1      -1.111 -12.966  -6.102  1.00  0.00     0.293 HD
ENDBRANCH  41  42
ENDBRANCH  35  36
ENDBRANCH  34  35
BRANCH  34  44
ATOM     44  C   UNL     1      -2.889  -6.601  -3.330  1.00  0.00     0.243 C 
ATOM     45  O   UNL     1      -1.794  -6.111  -3.070  1.00  0.00    -0.273 OA
ATOM     46  N   UNL     1      -3.789  -5.972  -4.164  1.00  0.00    -0.341 N 
ATOM     47  H   UNL     1      -4.727  -6.355  -4.258  1.00  0.00     0.164 HD
BRANCH  46  48
ATOM     48  C   UNL     1      -3.504  -4.711  -4.852  1.00  0.00     0.196 C 
BRANCH  48  49
ATOM     49  C   UNL     1      -3.910  -4.777  -6.334  1.00  0.00     0.072 C 
BRANCH  49  50
ATOM     50  C   UNL     1      -3.009  -3.948  -7.221  1.00  0.00    -0.045 A 
ATOM     51  C   UNL     1      -3.497  -2.774  -7.813  1.00  0.00     0.007 A 
ATOM     52  C   UNL     1      -1.691  -4.346  -7.482  1.00  0.00     0.007 A 
ATOM     53  C   UNL     1      -2.679  -2.009  -8.644  1.00  0.00     0.046 A 
ATOM     54  C   UNL     1      -0.872  -3.581  -8.315  1.00  0.00     0.046 A 
ATOM     55  C   UNL     1      -1.373  -2.417  -8.888  1.00  0.00     0.115 A 
BRANCH  55  56
ATOM     56  O   UNL     1      -0.607  -1.642  -9.708  1.00  0.00    -0.508 OA
ATOM     57  H   UNL     1      -0.127  -1.000  -9.161  1.00  0.00     0.293 HD
ENDBRANCH  55  56
ENDBRANCH  49  50
ENDBRANCH  48  49
BRANCH  48  58
ATOM     58  C   UNL     1      -4.274  -3.579  -4.157  1.00  0.00     0.326 C 
ATOM     59  O   UNL     1      -4.077  -2.379  -4.260  1.00  0.00    -0.250 OA
BRANCH  58  60
ATOM     60  O   UNL     1      -5.284  -4.018  -3.365  1.00  0.00    -0.480 OA
ATOM     61  H   UNL     1      -5.857  -3.227  -3.269  1.00  0.00     0.296 HD
ENDBRANCH  58  60
ENDBRANCH  48  58
ENDBRANCH  46  48
ENDBRANCH  34  44
ENDBRANCH  32  34
ENDBRANCH  25  30
ENDBRANCH  23  25
ENDBRANCH   2  23
TORSDOF 28
ENDMDL
MODEL 16
REMARK VINA RESULT:    -7.533      7.685     11.898
REMARK INTER + INTRA:         -24.070
REMARK INTER:                 -19.469
REMARK INTRA:                  -4.601
REMARK UNBOUND:                -5.306
REMARK SMILES CCCCCCC[C@H](N)[C@H](O)C(=O)N[C@H](C)C(=O)N(C)[C@H](CC(C)C)C(=O)N[C@@H](Cc1ccc(O)cc1)C(=O)N[C@@H](Cc1ccc(O)cc1)C(=O)O
REMARK SMILES IDX 18 1 17 2 15 3 16 4 14 5 12 6 13 7 10 9 11 10 8 12 9 13 7 16
REMARK SMILES IDX 6 17 5 18 4 19 3 20 2 21 1 22 19 23 20 24 21 25 22 26 23 27
REMARK SMILES IDX 24 28 25 29 26 30 27 31 28 32 29 34 30 35 31 36 32 37 37 38
REMARK SMILES IDX 33 39 36 40 34 41 35 42 38 44 39 45 40 46 41 48 42 49 43 50
REMARK SMILES IDX 44 51 49 52 45 53 48 54 46 55 47 56 50 58 51 59 52 60
REMARK H PARENT 14 8 11 11 9 14 9 15 28 33 35 43 40 47 47 57 52 61
ROOT
ATOM      1  O   UNL     1       2.775  -7.721  -7.168  1.00  0.00    -0.272 OA
ATOM      2  C   UNL     1       2.287  -8.586  -7.910  1.00  0.00     0.245 C 
ENDROOT
BRANCH   2   3
ATOM      3  C   UNL     1       1.061  -9.388  -7.407  1.00  0.00     0.168 C 
ATOM      4  C   UNL     1       1.416 -10.858  -7.217  1.00  0.00     0.041 C 
BRANCH   3   5
ATOM      5  N   UNL     1       0.407  -8.831  -6.233  1.00  0.00    -0.342 N 
ATOM      6  C   UNL     1      -0.605  -7.901  -6.335  1.00  0.00     0.251 C 
ATOM      7  O   UNL     1      -1.000  -7.446  -7.403  1.00  0.00    -0.272 OA
ATOM      8  H   UNL     1       0.673  -9.107  -5.290  1.00  0.00     0.164 HD
BRANCH   6   9
ATOM      9  C   UNL     1      -1.242  -7.564  -4.977  1.00  0.00     0.219 C 
BRANCH   9  10
ATOM     10  O   UNL     1      -0.813  -6.296  -4.466  1.00  0.00    -0.382 OA
ATOM     11  H   UNL     1      -1.570  -5.701  -4.659  1.00  0.00     0.211 HD
ENDBRANCH   9  10
BRANCH   9  12
ATOM     12  C   UNL     1      -2.790  -7.657  -4.990  1.00  0.00     0.089 C 
BRANCH  12  13
ATOM     13  N   UNL     1      -3.326  -6.437  -5.637  1.00  0.00    -0.325 NA
ATOM     14  H   UNL     1      -4.280  -6.618  -5.955  1.00  0.00     0.119 HD
ATOM     15  H   UNL     1      -2.791  -6.252  -6.488  1.00  0.00     0.119 HD
ENDBRANCH  12  13
BRANCH  12  16
ATOM     16  C   UNL     1      -3.388  -8.919  -5.657  1.00  0.00     0.022 C 
BRANCH  16  17
ATOM     17  C   UNL     1      -3.131 -10.292  -5.022  1.00  0.00     0.002 C 
BRANCH  17  18
ATOM     18  C   UNL     1      -2.707 -11.385  -6.000  1.00  0.00     0.000 C 
BRANCH  18  19
ATOM     19  C   UNL     1      -1.909 -12.526  -5.354  1.00  0.00    -0.000 C 
BRANCH  19  20
ATOM     20  C   UNL     1      -0.910 -13.226  -6.280  1.00  0.00    -0.000 C 
BRANCH  20  21
ATOM     21  C   UNL     1      -1.486 -13.529  -7.665  1.00  0.00    -0.003 C 
ATOM     22  C   UNL     1      -1.119 -14.932  -8.124  1.00  0.00     0.004 C 
ENDBRANCH  20  21
ENDBRANCH  19  20
ENDBRANCH  18  19
ENDBRANCH  17  18
ENDBRANCH  16  17
ENDBRANCH  12  16
ENDBRANCH   9  12
ENDBRANCH   6   9
ENDBRANCH   3   5
ENDBRANCH   2   3
BRANCH   2  23
ATOM     23  N   UNL     1       2.762  -8.737  -9.209  1.00  0.00    -0.332 N 
ATOM     24  C   UNL     1       4.021  -9.377  -9.559  1.00  0.00     0.147 C 
BRANCH  23  25
ATOM     25  C   UNL     1       1.913  -8.349 -10.369  1.00  0.00     0.174 C 
BRANCH  25  26
ATOM     26  C   UNL     1       2.359  -9.015 -11.691  1.00  0.00     0.038 C 
BRANCH  26  27
ATOM     27  C   UNL     1       1.629 -10.313 -12.103  1.00  0.00    -0.015 C 
ATOM     28  C   UNL     1       0.327 -10.521 -11.329  1.00  0.00     0.007 C 
ATOM     29  C   UNL     1       1.384 -10.422 -13.605  1.00  0.00     0.007 C 
ENDBRANCH  26  27
ENDBRANCH  25  26
BRANCH  25  30
ATOM     30  C   UNL     1       1.802  -6.809 -10.455  1.00  0.00     0.243 C 
ATOM     31  O   UNL     1       2.661  -6.126 -11.009  1.00  0.00    -0.273 OA
ATOM     32  N   UNL     1       0.690  -6.261  -9.869  1.00  0.00    -0.342 N 
ATOM     33  H   UNL     1      -0.044  -6.901  -9.556  1.00  0.00     0.164 HD
BRANCH  32  34
ATOM     34  C   UNL     1       0.433  -4.819  -9.831  1.00  0.00     0.175 C 
BRANCH  34  35
ATOM     35  C   UNL     1      -0.877  -4.465 -10.552  1.00  0.00     0.070 C 
BRANCH  35  36
ATOM     36  C   UNL     1      -0.673  -3.487 -11.687  1.00  0.00    -0.045 A 
ATOM     37  C   UNL     1       0.239  -2.430 -11.548  1.00  0.00     0.007 A 
ATOM     38  C   UNL     1      -1.404  -3.605 -12.877  1.00  0.00     0.007 A 
ATOM     39  C   UNL     1       0.424  -1.515 -12.585  1.00  0.00     0.046 A 
ATOM     40  C   UNL     1      -1.221  -2.688 -13.915  1.00  0.00     0.046 A 
ATOM     41  C   UNL     1      -0.307  -1.651 -13.759  1.00  0.00     0.115 A 
BRANCH  41  42
ATOM     42  O   UNL     1      -0.099  -0.734 -14.746  1.00  0.00    -0.508 OA
ATOM     43  H   UNL     1      -0.618  -0.999 -15.523  1.00  0.00     0.293 HD
ENDBRANCH  41  42
ENDBRANCH  35  36
ENDBRANCH  34  35
BRANCH  34  44
ATOM     44  C   UNL     1       0.415  -4.375  -8.350  1.00  0.00     0.243 C 
ATOM     45  O   UNL     1       1.046  -4.927  -7.453  1.00  0.00    -0.273 OA
ATOM     46  N   UNL     1      -0.488  -3.366  -8.091  1.00  0.00    -0.341 N 
ATOM     47  H   UNL     1      -1.073  -3.020  -8.848  1.00  0.00     0.164 HD
BRANCH  46  48
ATOM     48  C   UNL     1      -0.731  -2.827  -6.751  1.00  0.00     0.196 C 
BRANCH  48  49
ATOM     49  C   UNL     1       0.119  -1.573  -6.489  1.00  0.00     0.072 C 
BRANCH  49  50
ATOM     50  C   UNL     1       1.431  -1.892  -5.807  1.00  0.00    -0.045 A 
ATOM     51  C   UNL     1       1.453  -2.760  -4.706  1.00  0.00     0.007 A 
ATOM     52  C   UNL     1       2.630  -1.316  -6.246  1.00  0.00     0.007 A 
ATOM     53  C   UNL     1       2.656  -3.051  -4.061  1.00  0.00     0.046 A 
ATOM     54  C   UNL     1       3.834  -1.607  -5.600  1.00  0.00     0.046 A 
ATOM     55  C   UNL     1       3.836  -2.473  -4.512  1.00  0.00     0.115 A 
BRANCH  55  56
ATOM     56  O   UNL     1       4.989  -2.782  -3.853  1.00  0.00    -0.508 OA
ATOM     57  H   UNL     1       5.455  -3.468  -4.357  1.00  0.00     0.293 HD
ENDBRANCH  55  56
ENDBRANCH  49  50
ENDBRANCH  48  49
BRANCH  48  58
ATOM     58  C   UNL     1      -2.220  -2.477  -6.617  1.00  0.00     0.326 C 
ATOM     59  O   UNL     1      -3.029  -2.328  -7.518  1.00  0.00    -0.250 OA
BRANCH  58  60
ATOM     60  O   UNL     1      -2.630  -2.342  -5.330  1.00  0.00    -0.480 OA
ATOM     61  H   UNL     1      -3.072  -3.198  -5.143  1.00  0.00     0.296 HD
ENDBRANCH  58  60
ENDBRANCH  48  58
ENDBRANCH  46  48
ENDBRANCH  34  44
ENDBRANCH  32  34
ENDBRANCH  25  30
ENDBRANCH  23  25
ENDBRANCH   2  23
TORSDOF 28
ENDMDL
MODEL 17
REMARK VINA RESULT:    -7.468      3.630      8.554
REMARK INTER + INTRA:         -23.907
REMARK INTER:                 -19.288
REMARK INTRA:                  -4.619
REMARK UNBOUND:                -5.306
REMARK SMILES CCCCCCC[C@H](N)[C@H](O)C(=O)N[C@H](C)C(=O)N(C)[C@H](CC(C)C)C(=O)N[C@@H](Cc1ccc(O)cc1)C(=O)N[C@@H](Cc1ccc(O)cc1)C(=O)O
REMARK SMILES IDX 18 1 17 2 15 3 16 4 14 5 12 6 13 7 10 9 11 10 8 12 9 13 7 16
REMARK SMILES IDX 6 17 5 18 4 19 3 20 2 21 1 22 19 23 20 24 21 25 22 26 23 27
REMARK SMILES IDX 24 28 25 29 26 30 27 31 28 32 29 34 30 35 31 36 32 37 37 38
REMARK SMILES IDX 33 39 36 40 34 41 35 42 38 44 39 45 40 46 41 48 42 49 43 50
REMARK SMILES IDX 44 51 49 52 45 53 48 54 46 55 47 56 50 58 51 59 52 60
REMARK H PARENT 14 8 11 11 9 14 9 15 28 33 35 43 40 47 47 57 52 61
ROOT
ATOM      1  O   UNL     1      -7.190   0.519   3.330  1.00  0.00    -0.272 OA
ATOM      2  C   UNL     1      -7.869  -0.516   3.399  1.00  0.00     0.245 C 
ENDROOT
BRANCH   2   3
ATOM      3  C   UNL     1      -8.378  -1.157   2.084  1.00  0.00     0.168 C 
ATOM      4  C   UNL     1      -9.355  -0.230   1.371  1.00  0.00     0.041 C 
BRANCH   3   5
ATOM      5  N   UNL     1      -7.331  -1.632   1.191  1.00  0.00    -0.342 N 
ATOM      6  C   UNL     1      -6.938  -2.953   1.168  1.00  0.00     0.251 C 
ATOM      7  O   UNL     1      -7.401  -3.810   1.913  1.00  0.00    -0.272 OA
ATOM      8  H   UNL     1      -6.849  -1.006   0.550  1.00  0.00     0.164 HD
BRANCH   6   9
ATOM      9  C   UNL     1      -5.924  -3.251   0.052  1.00  0.00     0.219 C 
BRANCH   9  10
ATOM     10  O   UNL     1      -6.332  -2.732  -1.220  1.00  0.00    -0.382 OA
ATOM     11  H   UNL     1      -5.483  -2.543  -1.676  1.00  0.00     0.211 HD
ENDBRANCH   9  10
BRANCH   9  12
ATOM     12  C   UNL     1      -4.484  -2.790   0.398  1.00  0.00     0.089 C 
BRANCH  12  13
ATOM     13  N   UNL     1      -4.401  -1.326   0.195  1.00  0.00    -0.325 NA
ATOM     14  H   UNL     1      -3.954  -1.136  -0.704  1.00  0.00     0.119 HD
ATOM     15  H   UNL     1      -3.770  -0.930   0.895  1.00  0.00     0.119 HD
ENDBRANCH  12  13
BRANCH  12  16
ATOM     16  C   UNL     1      -3.975  -3.160   1.812  1.00  0.00     0.022 C 
BRANCH  16  17
ATOM     17  C   UNL     1      -3.296  -2.082   2.667  1.00  0.00     0.002 C 
BRANCH  17  18
ATOM     18  C   UNL     1      -4.205  -1.404   3.691  1.00  0.00     0.000 C 
BRANCH  18  19
ATOM     19  C   UNL     1      -3.750   0.005   4.092  1.00  0.00    -0.000 C 
BRANCH  19  20
ATOM     20  C   UNL     1      -3.702   1.023   2.949  1.00  0.00    -0.000 C 
BRANCH  20  21
ATOM     21  C   UNL     1      -2.291   1.550   2.674  1.00  0.00    -0.003 C 
ATOM     22  C   UNL     1      -2.168   2.095   1.260  1.00  0.00     0.004 C 
ENDBRANCH  20  21
ENDBRANCH  19  20
ENDBRANCH  18  19
ENDBRANCH  17  18
ENDBRANCH  16  17
ENDBRANCH  12  16
ENDBRANCH   9  12
ENDBRANCH   6   9
ENDBRANCH   3   5
ENDBRANCH   2   3
BRANCH   2  23
ATOM     23  N   UNL     1      -8.058  -1.143   4.626  1.00  0.00    -0.332 N 
ATOM     24  C   UNL     1      -7.100  -1.121   5.721  1.00  0.00     0.147 C 
BRANCH  23  25
ATOM     25  C   UNL     1      -9.359  -1.794   4.944  1.00  0.00     0.174 C 
BRANCH  25  26
ATOM     26  C   UNL     1      -9.943  -1.340   6.303  1.00  0.00     0.038 C 
BRANCH  26  27
ATOM     27  C   UNL     1     -11.475  -1.441   6.475  1.00  0.00    -0.015 C 
ATOM     28  C   UNL     1     -12.236  -0.887   5.271  1.00  0.00     0.007 C 
ATOM     29  C   UNL     1     -11.957  -2.849   6.814  1.00  0.00     0.007 C 
ENDBRANCH  26  27
ENDBRANCH  25  26
BRANCH  25  30
ATOM     30  C   UNL     1      -9.236  -3.328   4.802  1.00  0.00     0.243 C 
ATOM     31  O   UNL     1      -8.444  -3.982   5.479  1.00  0.00    -0.273 OA
ATOM     32  N   UNL     1     -10.059  -3.906   3.870  1.00  0.00    -0.342 N 
ATOM     33  H   UNL     1     -10.785  -3.319   3.450  1.00  0.00     0.164 HD
BRANCH  32  34
ATOM     34  C   UNL     1     -10.059  -5.342   3.581  1.00  0.00     0.175 C 
BRANCH  34  35
ATOM     35  C   UNL     1     -11.091  -6.086   4.443  1.00  0.00     0.070 C 
BRANCH  35  36
ATOM     36  C   UNL     1     -10.458  -7.107   5.362  1.00  0.00    -0.045 A 
ATOM     37  C   UNL     1      -9.698  -8.158   4.825  1.00  0.00     0.007 A 
ATOM     38  C   UNL     1     -10.637  -7.034   6.749  1.00  0.00     0.007 A 
ATOM     39  C   UNL     1      -9.122  -9.112   5.664  1.00  0.00     0.046 A 
ATOM     40  C   UNL     1     -10.062  -7.991   7.589  1.00  0.00     0.046 A 
ATOM     41  C   UNL     1      -9.308  -9.021   7.038  1.00  0.00     0.115 A 
BRANCH  41  42
ATOM     42  O   UNL     1      -8.730  -9.976   7.822  1.00  0.00    -0.508 OA
ATOM     43  H   UNL     1      -8.020 -10.400   7.312  1.00  0.00     0.293 HD
ENDBRANCH  41  42
ENDBRANCH  35  36
ENDBRANCH  34  35
BRANCH  34  44
ATOM     44  C   UNL     1     -10.330  -5.527   2.070  1.00  0.00     0.243 C 
ATOM     45  O   UNL     1     -11.383  -5.232   1.513  1.00  0.00    -0.273 OA
ATOM     46  N   UNL     1      -9.314  -6.183   1.407  1.00  0.00    -0.341 N 
ATOM     47  H   UNL     1      -8.510  -6.512   1.937  1.00  0.00     0.164 HD
BRANCH  46  48
ATOM     48  C   UNL     1      -9.373  -6.532  -0.014  1.00  0.00     0.196 C 
BRANCH  48  49
ATOM     49  C   UNL     1      -7.965  -6.646  -0.622  1.00  0.00     0.072 C 
BRANCH  49  50
ATOM     50  C   UNL     1      -7.034  -7.488   0.222  1.00  0.00    -0.045 A 
ATOM     51  C   UNL     1      -6.078  -6.868   1.038  1.00  0.00     0.007 A 
ATOM     52  C   UNL     1      -7.097  -8.887   0.186  1.00  0.00     0.007 A 
ATOM     53  C   UNL     1      -5.205  -7.635   1.811  1.00  0.00     0.046 A 
ATOM     54  C   UNL     1      -6.222  -9.655   0.958  1.00  0.00     0.046 A 
ATOM     55  C   UNL     1      -5.284  -9.021   1.766  1.00  0.00     0.115 A 
BRANCH  55  56
ATOM     56  O   UNL     1      -4.412  -9.734   2.534  1.00  0.00    -0.508 OA
ATOM     57  H   UNL     1      -4.595  -9.539   3.466  1.00  0.00     0.293 HD
ENDBRANCH  55  56
ENDBRANCH  49  50
ENDBRANCH  48  49
BRANCH  48  58
ATOM     58  C   UNL     1     -10.112  -7.868  -0.170  1.00  0.00     0.326 C 
ATOM     59  O   UNL     1     -10.280  -8.504  -1.198  1.00  0.00    -0.250 OA
BRANCH  58  60
ATOM     60  O   UNL     1     -10.599  -8.357   0.998  1.00  0.00    -0.480 OA
ATOM     61  H   UNL     1     -10.124  -9.210   1.102  1.00  0.00     0.296 HD
ENDBRANCH  58  60
ENDBRANCH  48  58
ENDBRANCH  46  48
ENDBRANCH  34  44
ENDBRANCH  32  34
ENDBRANCH  25  30
ENDBRANCH  23  25
ENDBRANCH   2  23
TORSDOF 28
ENDMDL
MODEL 18
REMARK VINA RESULT:    -7.467      2.591      9.557
REMARK INTER + INTRA:         -23.904
REMARK INTER:                 -20.721
REMARK INTRA:                  -3.184
REMARK UNBOUND:                -5.306
REMARK SMILES CCCCCCC[C@H](N)[C@H](O)C(=O)N[C@H](C)C(=O)N(C)[C@H](CC(C)C)C(=O)N[C@@H](Cc1ccc(O)cc1)C(=O)N[C@@H](Cc1ccc(O)cc1)C(=O)O
REMARK SMILES IDX 18 1 17 2 15 3 16 4 14 5 12 6 13 7 10 9 11 10 8 12 9 13 7 16
REMARK SMILES IDX 6 17 5 18 4 19 3 20 2 21 1 22 19 23 20 24 21 25 22 26 23 27
REMARK SMILES IDX 24 28 25 29 26 30 27 31 28 32 29 34 30 35 31 36 32 37 37 38
REMARK SMILES IDX 33 39 36 40 34 41 35 42 38 44 39 45 40 46 41 48 42 49 43 50
REMARK SMILES IDX 44 51 49 52 45 53 48 54 46 55 47 56 50 58 51 59 52 60
REMARK H PARENT 14 8 11 11 9 14 9 15 28 33 35 43 40 47 47 57 52 61
ROOT
ATOM      1  O   UNL     1      -7.683  -5.359   1.036  1.00  0.00    -0.272 OA
ATOM      2  C   UNL     1      -6.671  -5.380   0.319  1.00  0.00     0.245 C 
ENDROOT
BRANCH   2   3
ATOM      3  C   UNL     1      -6.235  -4.072  -0.386  1.00  0.00     0.168 C 
ATOM      4  C   UNL     1      -6.915  -3.935  -1.744  1.00  0.00     0.041 C 
BRANCH   3   5
ATOM      5  N   UNL     1      -6.380  -2.867   0.417  1.00  0.00    -0.342 N 
ATOM      6  C   UNL     1      -5.471  -1.833   0.349  1.00  0.00     0.251 C 
ATOM      7  O   UNL     1      -4.463  -1.863  -0.350  1.00  0.00    -0.272 OA
ATOM      8  H   UNL     1      -7.158  -2.742   1.060  1.00  0.00     0.164 HD
BRANCH   6   9
ATOM      9  C   UNL     1      -5.900  -0.609   1.173  1.00  0.00     0.219 C 
BRANCH   9  10
ATOM     10  O   UNL     1      -7.153  -0.063   0.742  1.00  0.00    -0.382 OA
ATOM     11  H   UNL     1      -7.542   0.303   1.566  1.00  0.00     0.211 HD
ENDBRANCH   9  10
BRANCH   9  12
ATOM     12  C   UNL     1      -5.914  -0.878   2.701  1.00  0.00     0.089 C 
BRANCH  12  13
ATOM     13  N   UNL     1      -4.838  -1.845   3.015  1.00  0.00    -0.325 NA
ATOM     14  H   UNL     1      -4.110  -1.375   3.556  1.00  0.00     0.119 HD
ATOM     15  H   UNL     1      -4.382  -2.127   2.144  1.00  0.00     0.119 HD
ENDBRANCH  12  13
BRANCH  12  16
ATOM     16  C   UNL     1      -5.790   0.369   3.610  1.00  0.00     0.022 C 
BRANCH  16  17
ATOM     17  C   UNL     1      -4.770   0.358   4.756  1.00  0.00     0.002 C 
BRANCH  17  18
ATOM     18  C   UNL     1      -4.301   1.738   5.214  1.00  0.00     0.000 C 
BRANCH  18  19
ATOM     19  C   UNL     1      -3.236   2.368   4.307  1.00  0.00    -0.000 C 
BRANCH  19  20
ATOM     20  C   UNL     1      -2.625   1.424   3.268  1.00  0.00    -0.000 C 
BRANCH  20  21
ATOM     21  C   UNL     1      -2.137   2.150   2.012  1.00  0.00    -0.003 C 
ATOM     22  C   UNL     1      -2.898   1.694   0.776  1.00  0.00     0.004 C 
ENDBRANCH  20  21
ENDBRANCH  19  20
ENDBRANCH  18  19
ENDBRANCH  17  18
ENDBRANCH  16  17
ENDBRANCH  12  16
ENDBRANCH   9  12
ENDBRANCH   6   9
ENDBRANCH   3   5
ENDBRANCH   2   3
BRANCH   2  23
ATOM     23  N   UNL     1      -5.887  -6.527   0.257  1.00  0.00    -0.332 N 
ATOM     24  C   UNL     1      -4.655  -6.726   1.005  1.00  0.00     0.147 C 
BRANCH  23  25
ATOM     25  C   UNL     1      -6.350  -7.713  -0.515  1.00  0.00     0.174 C 
BRANCH  25  26
ATOM     26  C   UNL     1      -7.025  -8.783   0.374  1.00  0.00     0.038 C 
BRANCH  26  27
ATOM     27  C   UNL     1      -6.478  -8.948   1.810  1.00  0.00    -0.015 C 
ATOM     28  C   UNL     1      -7.472  -8.479   2.872  1.00  0.00     0.007 C 
ATOM     29  C   UNL     1      -5.992 -10.363   2.116  1.00  0.00     0.007 C 
ENDBRANCH  26  27
ENDBRANCH  25  26
BRANCH  25  30
ATOM     30  C   UNL     1      -5.198  -8.265  -1.385  1.00  0.00     0.243 C 
ATOM     31  O   UNL     1      -4.674  -9.354  -1.156  1.00  0.00    -0.273 OA
ATOM     32  N   UNL     1      -4.797  -7.458  -2.420  1.00  0.00    -0.342 N 
ATOM     33  H   UNL     1      -5.372  -6.638  -2.631  1.00  0.00     0.164 HD
BRANCH  32  34
ATOM     34  C   UNL     1      -3.703  -7.807  -3.330  1.00  0.00     0.175 C 
BRANCH  34  35
ATOM     35  C   UNL     1      -4.229  -8.496  -4.598  1.00  0.00     0.070 C 
BRANCH  35  36
ATOM     36  C   UNL     1      -3.401  -9.697  -4.998  1.00  0.00    -0.045 A 
ATOM     37  C   UNL     1      -3.503 -10.892  -4.270  1.00  0.00     0.007 A 
ATOM     38  C   UNL     1      -2.510  -9.629  -6.076  1.00  0.00     0.007 A 
ATOM     39  C   UNL     1      -2.733 -12.001  -4.623  1.00  0.00     0.046 A 
ATOM     40  C   UNL     1      -1.738 -10.738  -6.429  1.00  0.00     0.046 A 
ATOM     41  C   UNL     1      -1.858 -11.916  -5.698  1.00  0.00     0.115 A 
BRANCH  41  42
ATOM     42  O   UNL     1      -1.122 -13.021  -6.008  1.00  0.00    -0.508 OA
ATOM     43  H   UNL     1      -1.217 -13.663  -5.285  1.00  0.00     0.293 HD
ENDBRANCH  41  42
ENDBRANCH  35  36
ENDBRANCH  34  35
BRANCH  34  44
ATOM     44  C   UNL     1      -2.923  -6.514  -3.657  1.00  0.00     0.243 C 
ATOM     45  O   UNL     1      -1.889  -6.165  -3.093  1.00  0.00    -0.273 OA
ATOM     46  N   UNL     1      -3.565  -5.700  -4.566  1.00  0.00    -0.341 N 
ATOM     47  H   UNL     1      -4.478  -5.978  -4.919  1.00  0.00     0.164 HD
BRANCH  46  48
ATOM     48  C   UNL     1      -3.052  -4.392  -4.980  1.00  0.00     0.196 C 
BRANCH  48  49
ATOM     49  C   UNL     1      -3.311  -4.136  -6.474  1.00  0.00     0.072 C 
BRANCH  49  50
ATOM     50  C   UNL     1      -2.143  -3.465  -7.160  1.00  0.00    -0.045 A 
ATOM     51  C   UNL     1      -2.278  -2.999  -8.476  1.00  0.00     0.007 A 
ATOM     52  C   UNL     1      -0.912  -3.318  -6.508  1.00  0.00     0.007 A 
ATOM     53  C   UNL     1      -1.203  -2.391  -9.124  1.00  0.00     0.046 A 
ATOM     54  C   UNL     1       0.165  -2.709  -7.157  1.00  0.00     0.046 A 
ATOM     55  C   UNL     1       0.009  -2.250  -8.460  1.00  0.00     0.115 A 
BRANCH  55  56
ATOM     56  O   UNL     1       1.036  -1.651  -9.129  1.00  0.00    -0.508 OA
ATOM     57  H   UNL     1       1.732  -1.432  -8.489  1.00  0.00     0.293 HD
ENDBRANCH  55  56
ENDBRANCH  49  50
ENDBRANCH  48  49
BRANCH  48  58
ATOM     58  C   UNL     1      -3.737  -3.301  -4.145  1.00  0.00     0.326 C 
ATOM     59  O   UNL     1      -4.547  -2.473  -4.531  1.00  0.00    -0.250 OA
BRANCH  58  60
ATOM     60  O   UNL     1      -3.374  -3.312  -2.838  1.00  0.00    -0.480 OA
ATOM     61  H   UNL     1      -4.195  -3.592  -2.378  1.00  0.00     0.296 HD
ENDBRANCH  58  60
ENDBRANCH  48  58
ENDBRANCH  46  48
ENDBRANCH  34  44
ENDBRANCH  32  34
ENDBRANCH  25  30
ENDBRANCH  23  25
ENDBRANCH   2  23
TORSDOF 28
ENDMDL
MODEL 19
REMARK VINA RESULT:    -7.435      2.590      9.593
REMARK INTER + INTRA:         -23.825
REMARK INTER:                 -20.602
REMARK INTRA:                  -3.222
REMARK UNBOUND:                -5.306
REMARK SMILES CCCCCCC[C@H](N)[C@H](O)C(=O)N[C@H](C)C(=O)N(C)[C@H](CC(C)C)C(=O)N[C@@H](Cc1ccc(O)cc1)C(=O)N[C@@H](Cc1ccc(O)cc1)C(=O)O
REMARK SMILES IDX 18 1 17 2 15 3 16 4 14 5 12 6 13 7 10 9 11 10 8 12 9 13 7 16
REMARK SMILES IDX 6 17 5 18 4 19 3 20 2 21 1 22 19 23 20 24 21 25 22 26 23 27
REMARK SMILES IDX 24 28 25 29 26 30 27 31 28 32 29 34 30 35 31 36 32 37 37 38
REMARK SMILES IDX 33 39 36 40 34 41 35 42 38 44 39 45 40 46 41 48 42 49 43 50
REMARK SMILES IDX 44 51 49 52 45 53 48 54 46 55 47 56 50 58 51 59 52 60
REMARK H PARENT 14 8 11 11 9 14 9 15 28 33 35 43 40 47 47 57 52 61
ROOT
ATOM      1  O   UNL     1      -7.790  -6.595  -1.395  1.00  0.00    -0.272 OA
ATOM      2  C   UNL     1      -7.090  -6.444  -0.383  1.00  0.00     0.245 C 
ENDROOT
BRANCH   2   3
ATOM      3  C   UNL     1      -7.741  -5.832   0.883  1.00  0.00     0.168 C 
ATOM      4  C   UNL     1      -8.049  -6.915   1.911  1.00  0.00     0.041 C 
BRANCH   3   5
ATOM      5  N   UNL     1      -7.008  -4.721   1.469  1.00  0.00    -0.342 N 
ATOM      6  C   UNL     1      -7.477  -3.425   1.405  1.00  0.00     0.251 C 
ATOM      7  O   UNL     1      -8.508  -3.107   0.822  1.00  0.00    -0.272 OA
ATOM      8  H   UNL     1      -6.122  -4.856   1.949  1.00  0.00     0.164 HD
BRANCH   6   9
ATOM      9  C   UNL     1      -6.616  -2.441   2.212  1.00  0.00     0.219 C 
BRANCH   9  10
ATOM     10  O   UNL     1      -5.768  -3.099   3.162  1.00  0.00    -0.382 OA
ATOM     11  H   UNL     1      -6.373  -3.727   3.615  1.00  0.00     0.211 HD
ENDBRANCH   9  10
BRANCH   9  12
ATOM     12  C   UNL     1      -5.795  -1.474   1.319  1.00  0.00     0.089 C 
BRANCH  12  13
ATOM     13  N   UNL     1      -6.461  -1.380  -0.001  1.00  0.00    -0.325 NA
ATOM     14  H   UNL     1      -5.903  -0.785  -0.616  1.00  0.00     0.119 HD
ATOM     15  H   UNL     1      -7.350  -0.888   0.111  1.00  0.00     0.119 HD
ENDBRANCH  12  13
BRANCH  12  16
ATOM     16  C   UNL     1      -5.554  -0.059   1.895  1.00  0.00     0.022 C 
BRANCH  16  17
ATOM     17  C   UNL     1      -5.930   0.228   3.355  1.00  0.00     0.002 C 
BRANCH  17  18
ATOM     18  C   UNL     1      -4.747   0.487   4.286  1.00  0.00     0.000 C 
BRANCH  18  19
ATOM     19  C   UNL     1      -4.363   1.967   4.411  1.00  0.00    -0.000 C 
BRANCH  19  20
ATOM     20  C   UNL     1      -2.922   2.301   4.015  1.00  0.00    -0.000 C 
BRANCH  20  21
ATOM     21  C   UNL     1      -2.360   1.358   2.948  1.00  0.00    -0.003 C 
ATOM     22  C   UNL     1      -2.201   2.065   1.611  1.00  0.00     0.004 C 
ENDBRANCH  20  21
ENDBRANCH  19  20
ENDBRANCH  18  19
ENDBRANCH  17  18
ENDBRANCH  16  17
ENDBRANCH  12  16
ENDBRANCH   9  12
ENDBRANCH   6   9
ENDBRANCH   3   5
ENDBRANCH   2   3
BRANCH   2  23
ATOM     23  N   UNL     1      -5.788  -6.931  -0.359  1.00  0.00    -0.332 N 
ATOM     24  C   UNL     1      -4.625  -6.161   0.058  1.00  0.00     0.147 C 
BRANCH  23  25
ATOM     25  C   UNL     1      -5.517  -8.366  -0.650  1.00  0.00     0.174 C 
BRANCH  25  26
ATOM     26  C   UNL     1      -5.481  -9.243   0.624  1.00  0.00     0.038 C 
BRANCH  26  27
ATOM     27  C   UNL     1      -6.285 -10.561   0.589  1.00  0.00    -0.015 C 
ATOM     28  C   UNL     1      -5.891 -11.456  -0.586  1.00  0.00     0.007 C 
ATOM     29  C   UNL     1      -6.230 -11.341   1.900  1.00  0.00     0.007 C 
ENDBRANCH  26  27
ENDBRANCH  25  26
BRANCH  25  30
ATOM     30  C   UNL     1      -4.255  -8.501  -1.533  1.00  0.00     0.243 C 
ATOM     31  O   UNL     1      -3.246  -9.086  -1.140  1.00  0.00    -0.273 OA
ATOM     32  N   UNL     1      -4.334  -7.922  -2.773  1.00  0.00    -0.342 N 
ATOM     33  H   UNL     1      -5.249  -7.580  -3.079  1.00  0.00     0.164 HD
BRANCH  32  34
ATOM     34  C   UNL     1      -3.226  -7.927  -3.732  1.00  0.00     0.175 C 
BRANCH  34  35
ATOM     35  C   UNL     1      -3.655  -8.533  -5.077  1.00  0.00     0.070 C 
BRANCH  35  36
ATOM     36  C   UNL     1      -2.875  -9.779  -5.432  1.00  0.00    -0.045 A 
ATOM     37  C   UNL     1      -3.041 -10.950  -4.677  1.00  0.00     0.007 A 
ATOM     38  C   UNL     1      -1.964  -9.778  -6.497  1.00  0.00     0.007 A 
ATOM     39  C   UNL     1      -2.316 -12.100  -4.989  1.00  0.00     0.046 A 
ATOM     40  C   UNL     1      -1.237 -10.929  -6.808  1.00  0.00     0.046 A 
ATOM     41  C   UNL     1      -1.421 -12.081  -6.051  1.00  0.00     0.115 A 
BRANCH  41  42
ATOM     42  O   UNL     1      -0.729 -13.225  -6.320  1.00  0.00    -0.508 OA
ATOM     43  H   UNL     1       0.185 -12.984  -6.544  1.00  0.00     0.293 HD
ENDBRANCH  41  42
ENDBRANCH  35  36
ENDBRANCH  34  35
BRANCH  34  44
ATOM     44  C   UNL     1      -2.721  -6.475  -3.888  1.00  0.00     0.243 C 
ATOM     45  O   UNL     1      -1.568  -6.114  -3.670  1.00  0.00    -0.273 OA
ATOM     46  N   UNL     1      -3.724  -5.573  -4.176  1.00  0.00    -0.341 N 
ATOM     47  H   UNL     1      -4.684  -5.903  -4.233  1.00  0.00     0.164 HD
BRANCH  46  48
ATOM     48  C   UNL     1      -3.499  -4.131  -4.303  1.00  0.00     0.196 C 
BRANCH  48  49
ATOM     49  C   UNL     1      -4.133  -3.577  -5.589  1.00  0.00     0.072 C 
BRANCH  49  50
ATOM     50  C   UNL     1      -3.102  -3.110  -6.592  1.00  0.00    -0.045 A 
ATOM     51  C   UNL     1      -1.750  -3.046  -6.226  1.00  0.00     0.007 A 
ATOM     52  C   UNL     1      -3.479  -2.717  -7.883  1.00  0.00     0.007 A 
ATOM     53  C   UNL     1      -0.792  -2.604  -7.138  1.00  0.00     0.046 A 
ATOM     54  C   UNL     1      -2.519  -2.274  -8.796  1.00  0.00     0.046 A 
ATOM     55  C   UNL     1      -1.183  -2.222  -8.416  1.00  0.00     0.115 A 
BRANCH  55  56
ATOM     56  O   UNL     1      -0.215  -1.795  -9.277  1.00  0.00    -0.508 OA
ATOM     57  H   UNL     1       0.405  -2.526  -9.427  1.00  0.00     0.293 HD
ENDBRANCH  55  56
ENDBRANCH  49  50
ENDBRANCH  48  49
BRANCH  48  58
ATOM     58  C   UNL     1      -4.104  -3.422  -3.083  1.00  0.00     0.326 C 
ATOM     59  O   UNL     1      -5.124  -3.723  -2.484  1.00  0.00    -0.250 OA
BRANCH  58  60
ATOM     60  O   UNL     1      -3.376  -2.358  -2.660  1.00  0.00    -0.480 OA
ATOM     61  H   UNL     1      -2.626  -2.332  -3.292  1.00  0.00     0.296 HD
ENDBRANCH  58  60
ENDBRANCH  48  58
ENDBRANCH  46  48
ENDBRANCH  34  44
ENDBRANCH  32  34
ENDBRANCH  25  30
ENDBRANCH  23  25
ENDBRANCH   2  23
TORSDOF 28
ENDMDL
MODEL 20
REMARK VINA RESULT:    -7.404      8.715     13.083
REMARK INTER + INTRA:         -23.749
REMARK INTER:                 -17.532
REMARK INTRA:                  -6.217
REMARK UNBOUND:                -5.306
REMARK SMILES CCCCCCC[C@H](N)[C@H](O)C(=O)N[C@H](C)C(=O)N(C)[C@H](CC(C)C)C(=O)N[C@@H](Cc1ccc(O)cc1)C(=O)N[C@@H](Cc1ccc(O)cc1)C(=O)O
REMARK SMILES IDX 18 1 17 2 15 3 16 4 14 5 12 6 13 7 10 9 11 10 8 12 9 13 7 16
REMARK SMILES IDX 6 17 5 18 4 19 3 20 2 21 1 22 19 23 20 24 21 25 22 26 23 27
REMARK SMILES IDX 24 28 25 29 26 30 27 31 28 32 29 34 30 35 31 36 32 37 37 38
REMARK SMILES IDX 33 39 36 40 34 41 35 42 38 44 39 45 40 46 41 48 42 49 43 50
REMARK SMILES IDX 44 51 49 52 45 53 48 54 46 55 47 56 50 58 51 59 52 60
REMARK H PARENT 14 8 11 11 9 14 9 15 28 33 35 43 40 47 47 57 52 61
ROOT
ATOM      1  O   UNL     1       3.853 -10.457  -8.921  1.00  0.00    -0.272 OA
ATOM      2  C   UNL     1       3.439 -10.462 -10.090  1.00  0.00     0.245 C 
ENDROOT
BRANCH   2   3
ATOM      3  C   UNL     1       2.317 -11.457 -10.475  1.00  0.00     0.168 C 
ATOM      4  C   UNL     1       2.897 -12.829 -10.802  1.00  0.00     0.041 C 
BRANCH   3   5
ATOM      5  N   UNL     1       1.223 -11.545  -9.519  1.00  0.00    -0.342 N 
ATOM      6  C   UNL     1       0.113 -10.733  -9.607  1.00  0.00     0.251 C 
ATOM      7  O   UNL     1      -0.021  -9.859 -10.458  1.00  0.00    -0.272 OA
ATOM      8  H   UNL     1       1.237 -12.209  -8.749  1.00  0.00     0.164 HD
BRANCH   6   9
ATOM      9  C   UNL     1      -0.973 -11.098  -8.582  1.00  0.00     0.219 C 
BRANCH   9  10
ATOM     10  O   UNL     1      -2.228 -11.418  -9.196  1.00  0.00    -0.382 OA
ATOM     11  H   UNL     1      -2.715 -11.896  -8.490  1.00  0.00     0.211 HD
ENDBRANCH   9  10
BRANCH   9  12
ATOM     12  C   UNL     1      -0.536 -12.220  -7.605  1.00  0.00     0.089 C 
BRANCH  12  13
ATOM     13  N   UNL     1      -0.768 -11.751  -6.220  1.00  0.00    -0.325 NA
ATOM     14  H   UNL     1       0.114 -11.416  -5.827  1.00  0.00     0.119 HD
ATOM     15  H   UNL     1      -1.032 -12.550  -5.640  1.00  0.00     0.119 HD
ENDBRANCH  12  13
BRANCH  12  16
ATOM     16  C   UNL     1      -1.202 -13.601  -7.817  1.00  0.00     0.022 C 
BRANCH  16  17
ATOM     17  C   UNL     1      -0.742 -14.480  -8.989  1.00  0.00     0.002 C 
BRANCH  17  18
ATOM     18  C   UNL     1       0.169 -15.643  -8.603  1.00  0.00     0.000 C 
BRANCH  18  19
ATOM     19  C   UNL     1       1.655 -15.271  -8.521  1.00  0.00    -0.000 C 
BRANCH  19  20
ATOM     20  C   UNL     1       2.131 -14.795  -7.145  1.00  0.00    -0.000 C 
BRANCH  20  21
ATOM     21  C   UNL     1       3.617 -15.068  -6.897  1.00  0.00    -0.003 C 
ATOM     22  C   UNL     1       4.488 -14.386  -7.941  1.00  0.00     0.004 C 
ENDBRANCH  20  21
ENDBRANCH  19  20
ENDBRANCH  18  19
ENDBRANCH  17  18
ENDBRANCH  16  17
ENDBRANCH  12  16
ENDBRANCH   9  12
ENDBRANCH   6   9
ENDBRANCH   3   5
ENDBRANCH   2   3
BRANCH   2  23
ATOM     23  N   UNL     1       3.895  -9.506 -10.992  1.00  0.00    -0.332 N 
ATOM     24  C   UNL     1       5.296  -9.257 -11.294  1.00  0.00     0.147 C 
BRANCH  23  25
ATOM     25  C   UNL     1       2.928  -8.741 -11.827  1.00  0.00     0.174 C 
BRANCH  25  26
ATOM     26  C   UNL     1       3.371  -8.622 -13.304  1.00  0.00     0.038 C 
BRANCH  26  27
ATOM     27  C   UNL     1       2.921  -9.748 -14.262  1.00  0.00    -0.015 C 
ATOM     28  C   UNL     1       3.903 -10.919 -14.290  1.00  0.00     0.007 C 
ATOM     29  C   UNL     1       1.502 -10.243 -13.995  1.00  0.00     0.007 C 
ENDBRANCH  26  27
ENDBRANCH  25  26
BRANCH  25  30
ATOM     30  C   UNL     1       2.611  -7.382 -11.162  1.00  0.00     0.243 C 
ATOM     31  O   UNL     1       3.017  -6.319 -11.629  1.00  0.00    -0.273 OA
ATOM     32  N   UNL     1       1.855  -7.443 -10.019  1.00  0.00    -0.342 N 
ATOM     33  H   UNL     1       1.438  -8.344  -9.775  1.00  0.00     0.164 HD
BRANCH  32  34
ATOM     34  C   UNL     1       1.481  -6.258  -9.242  1.00  0.00     0.175 C 
BRANCH  34  35
ATOM     35  C   UNL     1       0.197  -5.615  -9.787  1.00  0.00     0.070 C 
BRANCH  35  36
ATOM     36  C   UNL     1       0.365  -4.145 -10.098  1.00  0.00    -0.045 A 
ATOM     37  C   UNL     1       1.212  -3.353  -9.307  1.00  0.00     0.007 A 
ATOM     38  C   UNL     1      -0.333  -3.548 -11.156  1.00  0.00     0.007 A 
ATOM     39  C   UNL     1       1.364  -1.993  -9.577  1.00  0.00     0.046 A 
ATOM     40  C   UNL     1      -0.182  -2.186 -11.426  1.00  0.00     0.046 A 
ATOM     41  C   UNL     1       0.667  -1.420 -10.634  1.00  0.00     0.115 A 
BRANCH  41  42
ATOM     42  O   UNL     1       0.840  -0.088 -10.863  1.00  0.00    -0.508 OA
ATOM     43  H   UNL     1       0.283   0.404 -10.237  1.00  0.00     0.293 HD
ENDBRANCH  41  42
ENDBRANCH  35  36
ENDBRANCH  34  35
BRANCH  34  44
ATOM     44  C   UNL     1       1.331  -6.684  -7.764  1.00  0.00     0.243 C 
ATOM     45  O   UNL     1       2.164  -7.337  -7.142  1.00  0.00    -0.273 OA
ATOM     46  N   UNL     1       0.100  -6.373  -7.226  1.00  0.00    -0.341 N 
ATOM     47  H   UNL     1      -0.601  -5.934  -7.817  1.00  0.00     0.164 HD
BRANCH  46  48
ATOM     48  C   UNL     1      -0.299  -6.736  -5.864  1.00  0.00     0.196 C 
BRANCH  48  49
ATOM     49  C   UNL     1      -1.463  -5.861  -5.369  1.00  0.00     0.072 C 
BRANCH  49  50
ATOM     50  C   UNL     1      -1.677  -4.637  -6.230  1.00  0.00    -0.045 A 
ATOM     51  C   UNL     1      -2.589  -4.682  -7.295  1.00  0.00     0.007 A 
ATOM     52  C   UNL     1      -0.962  -3.456  -5.995  1.00  0.00     0.007 A 
ATOM     53  C   UNL     1      -2.785  -3.563  -8.105  1.00  0.00     0.046 A 
ATOM     54  C   UNL     1      -1.158  -2.336  -6.806  1.00  0.00     0.046 A 
ATOM     55  C   UNL     1      -2.069  -2.399  -7.854  1.00  0.00     0.115 A 
BRANCH  55  56
ATOM     56  O   UNL     1      -2.289  -1.328  -8.669  1.00  0.00    -0.508 OA
ATOM     57  H   UNL     1      -3.096  -0.879  -8.373  1.00  0.00     0.293 HD
ENDBRANCH  55  56
ENDBRANCH  49  50
ENDBRANCH  48  49
BRANCH  48  58
ATOM     58  C   UNL     1      -0.720  -8.212  -5.844  1.00  0.00     0.326 C 
ATOM     59  O   UNL     1      -1.802  -8.676  -6.166  1.00  0.00    -0.250 OA
BRANCH  58  60
ATOM     60  O   UNL     1       0.263  -9.050  -5.428  1.00  0.00    -0.480 OA
ATOM     61  H   UNL     1      -0.232  -9.800  -5.032  1.00  0.00     0.296 HD
ENDBRANCH  58  60
ENDBRANCH  48  58
ENDBRANCH  46  48
ENDBRANCH  34  44
ENDBRANCH  32  34
ENDBRANCH  25  30
ENDBRANCH  23  25
ENDBRANCH   2  23
TORSDOF 28
ENDMDL
MODEL 21
REMARK VINA RESULT:    -7.372      3.396      7.807
REMARK INTER + INTRA:         -23.668
REMARK INTER:                 -18.585
REMARK INTRA:                  -5.083
REMARK UNBOUND:                -5.306
REMARK SMILES CCCCCCC[C@H](N)[C@H](O)C(=O)N[C@H](C)C(=O)N(C)[C@H](CC(C)C)C(=O)N[C@@H](Cc1ccc(O)cc1)C(=O)N[C@@H](Cc1ccc(O)cc1)C(=O)O
REMARK SMILES IDX 18 1 17 2 15 3 16 4 14 5 12 6 13 7 10 9 11 10 8 12 9 13 7 16
REMARK SMILES IDX 6 17 5 18 4 19 3 20 2 21 1 22 19 23 20 24 21 25 22 26 23 27
REMARK SMILES IDX 24 28 25 29 26 30 27 31 28 32 29 34 30 35 31 36 32 37 37 38
REMARK SMILES IDX 33 39 36 40 34 41 35 42 38 44 39 45 40 46 41 48 42 49 43 50
REMARK SMILES IDX 44 51 49 52 45 53 48 54 46 55 47 56 50 58 51 59 52 60
REMARK H PARENT 14 8 11 11 9 14 9 15 28 33 35 43 40 47 47 57 52 61
ROOT
ATOM      1  O   UNL     1      -3.457  -5.458  -0.751  1.00  0.00    -0.272 OA
ATOM      2  C   UNL     1      -4.423  -4.694  -0.609  1.00  0.00     0.245 C 
ENDROOT
BRANCH   2   3
ATOM      3  C   UNL     1      -5.469  -4.601  -1.748  1.00  0.00     0.168 C 
ATOM      4  C   UNL     1      -6.264  -3.304  -1.649  1.00  0.00     0.041 C 
BRANCH   3   5
ATOM      5  N   UNL     1      -4.936  -4.808  -3.085  1.00  0.00    -0.342 N 
ATOM      6  C   UNL     1      -3.909  -4.037  -3.587  1.00  0.00     0.251 C 
ATOM      7  O   UNL     1      -3.401  -3.105  -2.974  1.00  0.00    -0.272 OA
ATOM      8  H   UNL     1      -5.301  -5.530  -3.702  1.00  0.00     0.164 HD
BRANCH   6   9
ATOM      9  C   UNL     1      -3.414  -4.526  -4.958  1.00  0.00     0.219 C 
BRANCH   9  10
ATOM     10  O   UNL     1      -2.992  -3.453  -5.808  1.00  0.00    -0.382 OA
ATOM     11  H   UNL     1      -3.821  -3.173  -6.255  1.00  0.00     0.211 HD
ENDBRANCH   9  10
BRANCH   9  12
ATOM     12  C   UNL     1      -2.312  -5.613  -4.856  1.00  0.00     0.089 C 
BRANCH  12  13
ATOM     13  N   UNL     1      -2.206  -6.039  -3.441  1.00  0.00    -0.325 NA
ATOM     14  H   UNL     1      -1.224  -6.201  -3.212  1.00  0.00     0.119 HD
ATOM     15  H   UNL     1      -2.658  -6.951  -3.336  1.00  0.00     0.119 HD
ENDBRANCH  12  13
BRANCH  12  16
ATOM     16  C   UNL     1      -2.489  -6.847  -5.771  1.00  0.00     0.022 C 
BRANCH  16  17
ATOM     17  C   UNL     1      -2.342  -8.252  -5.169  1.00  0.00     0.002 C 
BRANCH  17  18
ATOM     18  C   UNL     1      -3.089  -9.355  -5.915  1.00  0.00     0.000 C 
BRANCH  18  19
ATOM     19  C   UNL     1      -3.694 -10.428  -5.001  1.00  0.00    -0.000 C 
BRANCH  19  20
ATOM     20  C   UNL     1      -2.685 -11.402  -4.385  1.00  0.00    -0.000 C 
BRANCH  20  21
ATOM     21  C   UNL     1      -2.656 -12.761  -5.090  1.00  0.00    -0.003 C 
ATOM     22  C   UNL     1      -1.452 -12.882  -6.011  1.00  0.00     0.004 C 
ENDBRANCH  20  21
ENDBRANCH  19  20
ENDBRANCH  18  19
ENDBRANCH  17  18
ENDBRANCH  16  17
ENDBRANCH  12  16
ENDBRANCH   9  12
ENDBRANCH   6   9
ENDBRANCH   3   5
ENDBRANCH   2   3
BRANCH   2  23
ATOM     23  N   UNL     1      -4.617  -4.035   0.601  1.00  0.00    -0.332 N 
ATOM     24  C   UNL     1      -3.897  -2.840   1.015  1.00  0.00     0.147 C 
BRANCH  23  25
ATOM     25  C   UNL     1      -5.705  -4.462   1.523  1.00  0.00     0.174 C 
BRANCH  25  26
ATOM     26  C   UNL     1      -6.128  -3.351   2.512  1.00  0.00     0.038 C 
BRANCH  26  27
ATOM     27  C   UNL     1      -7.615  -3.313   2.929  1.00  0.00    -0.015 C 
ATOM     28  C   UNL     1      -8.519  -4.044   1.937  1.00  0.00     0.007 C 
ATOM     29  C   UNL     1      -7.860  -3.814   4.350  1.00  0.00     0.007 C 
ENDBRANCH  26  27
ENDBRANCH  25  26
BRANCH  25  30
ATOM     30  C   UNL     1      -5.329  -5.795   2.209  1.00  0.00     0.243 C 
ATOM     31  O   UNL     1      -4.470  -5.854   3.088  1.00  0.00    -0.273 OA
ATOM     32  N   UNL     1      -6.009  -6.902   1.770  1.00  0.00    -0.342 N 
ATOM     33  H   UNL     1      -6.803  -6.752   1.142  1.00  0.00     0.164 HD
BRANCH  32  34
ATOM     34  C   UNL     1      -5.764  -8.251   2.288  1.00  0.00     0.175 C 
BRANCH  34  35
ATOM     35  C   UNL     1      -7.076  -9.033   2.451  1.00  0.00     0.070 C 
BRANCH  35  36
ATOM     36  C   UNL     1      -7.764  -8.753   3.769  1.00  0.00    -0.045 A 
ATOM     37  C   UNL     1      -7.487  -7.567   4.466  1.00  0.00     0.007 A 
ATOM     38  C   UNL     1      -8.663  -9.675   4.321  1.00  0.00     0.007 A 
ATOM     39  C   UNL     1      -8.106  -7.306   5.689  1.00  0.00     0.046 A 
ATOM     40  C   UNL     1      -9.282  -9.414   5.546  1.00  0.00     0.046 A 
ATOM     41  C   UNL     1      -8.998  -8.230   6.219  1.00  0.00     0.115 A 
BRANCH  41  42
ATOM     42  O   UNL     1      -9.579  -7.939   7.417  1.00  0.00    -0.508 OA
ATOM     43  H   UNL     1     -10.524  -7.768   7.264  1.00  0.00     0.293 HD
ENDBRANCH  41  42
ENDBRANCH  35  36
ENDBRANCH  34  35
BRANCH  34  44
ATOM     44  C   UNL     1      -4.784  -8.962   1.327  1.00  0.00     0.243 C 
ATOM     45  O   UNL     1      -3.583  -9.102   1.540  1.00  0.00    -0.273 OA
ATOM     46  N   UNL     1      -5.357  -9.320   0.125  1.00  0.00    -0.341 N 
ATOM     47  H   UNL     1      -6.329  -9.077  -0.051  1.00  0.00     0.164 HD
BRANCH  46  48
ATOM     48  C   UNL     1      -4.611  -9.945  -0.969  1.00  0.00     0.196 C 
BRANCH  48  49
ATOM     49  C   UNL     1      -5.552 -10.657  -1.954  1.00  0.00     0.072 C 
BRANCH  49  50
ATOM     50  C   UNL     1      -5.840 -12.087  -1.554  1.00  0.00    -0.045 A 
ATOM     51  C   UNL     1      -5.272 -13.144  -2.279  1.00  0.00     0.007 A 
ATOM     52  C   UNL     1      -6.687 -12.376  -0.476  1.00  0.00     0.007 A 
ATOM     53  C   UNL     1      -5.541 -14.467  -1.926  1.00  0.00     0.046 A 
ATOM     54  C   UNL     1      -6.957 -13.701  -0.124  1.00  0.00     0.046 A 
ATOM     55  C   UNL     1      -6.380 -14.735  -0.852  1.00  0.00     0.115 A 
BRANCH  55  56
ATOM     56  O   UNL     1      -6.619 -16.041  -0.542  1.00  0.00    -0.508 OA
ATOM     57  H   UNL     1      -6.068 -16.280   0.220  1.00  0.00     0.293 HD
ENDBRANCH  55  56
ENDBRANCH  49  50
ENDBRANCH  48  49
BRANCH  48  58
ATOM     58  C   UNL     1      -3.813  -8.863  -1.711  1.00  0.00     0.326 C 
ATOM     59  O   UNL     1      -2.603  -8.813  -1.865  1.00  0.00    -0.250 OA
BRANCH  58  60
ATOM     60  O   UNL     1      -4.590  -7.888  -2.245  1.00  0.00    -0.480 OA
ATOM     61  H   UNL     1      -3.940  -7.289  -2.671  1.00  0.00     0.296 HD
ENDBRANCH  58  60
ENDBRANCH  48  58
ENDBRANCH  46  48
ENDBRANCH  34  44
ENDBRANCH  32  34
ENDBRANCH  25  30
ENDBRANCH  23  25
ENDBRANCH   2  23
TORSDOF 28
ENDMDL
MODEL 22
REMARK VINA RESULT:    -7.362      2.641      9.436
REMARK INTER + INTRA:         -23.643
REMARK INTER:                 -20.538
REMARK INTRA:                  -3.106
REMARK UNBOUND:                -5.306
REMARK SMILES CCCCCCC[C@H](N)[C@H](O)C(=O)N[C@H](C)C(=O)N(C)[C@H](CC(C)C)C(=O)N[C@@H](Cc1ccc(O)cc1)C(=O)N[C@@H](Cc1ccc(O)cc1)C(=O)O
REMARK SMILES IDX 18 1 17 2 15 3 16 4 14 5 12 6 13 7 10 9 11 10 8 12 9 13 7 16
REMARK SMILES IDX 6 17 5 18 4 19 3 20 2 21 1 22 19 23 20 24 21 25 22 26 23 27
REMARK SMILES IDX 24 28 25 29 26 30 27 31 28 32 29 34 30 35 31 36 32 37 37 38
REMARK SMILES IDX 33 39 36 40 34 41 35 42 38 44 39 45 40 46 41 48 42 49 43 50
REMARK SMILES IDX 44 51 49 52 45 53 48 54 46 55 47 56 50 58 51 59 52 60
REMARK H PARENT 14 8 11 11 9 14 9 15 28 33 35 43 40 47 47 57 52 61
ROOT
ATOM      1  O   UNL     1      -7.325  -5.200   1.855  1.00  0.00    -0.272 OA
ATOM      2  C   UNL     1      -6.629  -5.180   0.829  1.00  0.00     0.245 C 
ENDROOT
BRANCH   2   3
ATOM      3  C   UNL     1      -6.990  -4.172  -0.291  1.00  0.00     0.168 C 
ATOM      4  C   UNL     1      -7.465  -4.900  -1.543  1.00  0.00     0.041 C 
BRANCH   3   5
ATOM      5  N   UNL     1      -7.914  -3.121   0.107  1.00  0.00    -0.342 N 
ATOM      6  C   UNL     1      -7.531  -1.797   0.160  1.00  0.00     0.251 C 
ATOM      7  O   UNL     1      -6.391  -1.413  -0.079  1.00  0.00    -0.272 OA
ATOM      8  H   UNL     1      -8.877  -3.323   0.363  1.00  0.00     0.164 HD
BRANCH   6   9
ATOM      9  C   UNL     1      -8.703  -0.851   0.466  1.00  0.00     0.219 C 
BRANCH   9  10
ATOM     10  O   UNL     1      -9.652  -1.423   1.375  1.00  0.00    -0.382 OA
ATOM     11  H   UNL     1      -9.861  -0.684   1.987  1.00  0.00     0.211 HD
ENDBRANCH   9  10
BRANCH   9  12
ATOM     12  C   UNL     1      -8.246   0.547   0.956  1.00  0.00     0.089 C 
BRANCH  12  13
ATOM     13  N   UNL     1      -9.386   1.484   0.827  1.00  0.00    -0.325 NA
ATOM     14  H   UNL     1      -9.950   1.446   1.678  1.00  0.00     0.119 HD
ATOM     15  H   UNL     1     -10.004   1.152   0.083  1.00  0.00     0.119 HD
ENDBRANCH  12  13
BRANCH  12  16
ATOM     16  C   UNL     1      -7.668   0.607   2.391  1.00  0.00     0.022 C 
BRANCH  16  17
ATOM     17  C   UNL     1      -6.153   0.767   2.580  1.00  0.00     0.002 C 
BRANCH  17  18
ATOM     18  C   UNL     1      -5.411  -0.517   2.943  1.00  0.00     0.000 C 
BRANCH  18  19
ATOM     19  C   UNL     1      -4.544  -0.403   4.204  1.00  0.00    -0.000 C 
BRANCH  19  20
ATOM     20  C   UNL     1      -5.196  -0.917   5.490  1.00  0.00    -0.000 C 
BRANCH  20  21
ATOM     21  C   UNL     1      -5.342   0.165   6.563  1.00  0.00    -0.003 C 
ATOM     22  C   UNL     1      -5.001   1.541   6.012  1.00  0.00     0.004 C 
ENDBRANCH  20  21
ENDBRANCH  19  20
ENDBRANCH  18  19
ENDBRANCH  17  18
ENDBRANCH  16  17
ENDBRANCH  12  16
ENDBRANCH   9  12
ENDBRANCH   6   9
ENDBRANCH   3   5
ENDBRANCH   2   3
BRANCH   2  23
ATOM     23  N   UNL     1      -5.482  -5.962   0.750  1.00  0.00    -0.332 N 
ATOM     24  C   UNL     1      -4.127  -5.436   0.678  1.00  0.00     0.147 C 
BRANCH  23  25
ATOM     25  C   UNL     1      -5.574  -7.444   0.867  1.00  0.00     0.174 C 
BRANCH  25  26
ATOM     26  C   UNL     1      -5.402  -7.945   2.320  1.00  0.00     0.038 C 
BRANCH  26  27
ATOM     27  C   UNL     1      -6.447  -8.957   2.840  1.00  0.00    -0.015 C 
ATOM     28  C   UNL     1      -7.878  -8.435   2.717  1.00  0.00     0.007 C 
ATOM     29  C   UNL     1      -6.323 -10.339   2.203  1.00  0.00     0.007 C 
ENDBRANCH  26  27
ENDBRANCH  25  26
BRANCH  25  30
ATOM     30  C   UNL     1      -4.614  -8.117  -0.141  1.00  0.00     0.243 C 
ATOM     31  O   UNL     1      -3.793  -8.963   0.210  1.00  0.00    -0.273 OA
ATOM     32  N   UNL     1      -4.736  -7.705  -1.443  1.00  0.00    -0.342 N 
ATOM     33  H   UNL     1      -5.532  -7.107  -1.678  1.00  0.00     0.164 HD
BRANCH  32  34
ATOM     34  C   UNL     1      -3.892  -8.214  -2.527  1.00  0.00     0.175 C 
BRANCH  34  35
ATOM     35  C   UNL     1      -4.725  -8.966  -3.577  1.00  0.00     0.070 C 
BRANCH  35  36
ATOM     36  C   UNL     1      -3.903  -9.949  -4.380  1.00  0.00    -0.045 A 
ATOM     37  C   UNL     1      -3.709 -11.255  -3.905  1.00  0.00     0.007 A 
ATOM     38  C   UNL     1      -3.308  -9.569  -5.590  1.00  0.00     0.007 A 
ATOM     39  C   UNL     1      -2.942 -12.165  -4.633  1.00  0.00     0.046 A 
ATOM     40  C   UNL     1      -2.538 -10.479  -6.319  1.00  0.00     0.046 A 
ATOM     41  C   UNL     1      -2.363 -11.770  -5.833  1.00  0.00     0.115 A 
BRANCH  41  42
ATOM     42  O   UNL     1      -1.618 -12.688  -6.512  1.00  0.00    -0.508 OA
ATOM     43  H   UNL     1      -0.875 -12.226  -6.934  1.00  0.00     0.293 HD
ENDBRANCH  41  42
ENDBRANCH  35  36
ENDBRANCH  34  35
BRANCH  34  44
ATOM     44  C   UNL     1      -3.130  -7.019  -3.143  1.00  0.00     0.243 C 
ATOM     45  O   UNL     1      -1.908  -6.949  -3.235  1.00  0.00    -0.273 OA
ATOM     46  N   UNL     1      -3.947  -5.958  -3.470  1.00  0.00    -0.341 N 
ATOM     47  H   UNL     1      -4.942  -6.019  -3.266  1.00  0.00     0.164 HD
BRANCH  46  48
ATOM     48  C   UNL     1      -3.446  -4.690  -4.005  1.00  0.00     0.196 C 
BRANCH  48  49
ATOM     49  C   UNL     1      -3.761  -4.551  -5.504  1.00  0.00     0.072 C 
BRANCH  49  50
ATOM     50  C   UNL     1      -2.700  -3.775  -6.252  1.00  0.00    -0.045 A 
ATOM     51  C   UNL     1      -1.367  -3.819  -5.819  1.00  0.00     0.007 A 
ATOM     52  C   UNL     1      -3.030  -2.992  -7.365  1.00  0.00     0.007 A 
ATOM     53  C   UNL     1      -0.381  -3.098  -6.493  1.00  0.00     0.046 A 
ATOM     54  C   UNL     1      -2.044  -2.268  -8.039  1.00  0.00     0.046 A 
ATOM     55  C   UNL     1      -0.727  -2.329  -7.598  1.00  0.00     0.115 A 
BRANCH  55  56
ATOM     56  O   UNL     1       0.266  -1.637  -8.228  1.00  0.00    -0.508 OA
ATOM     57  H   UNL     1       0.458  -2.077  -9.071  1.00  0.00     0.293 HD
ENDBRANCH  55  56
ENDBRANCH  49  50
ENDBRANCH  48  49
BRANCH  48  58
ATOM     58  C   UNL     1      -4.093  -3.531  -3.233  1.00  0.00     0.326 C 
ATOM     59  O   UNL     1      -3.690  -3.013  -2.205  1.00  0.00    -0.250 OA
BRANCH  58  60
ATOM     60  O   UNL     1      -5.228  -3.063  -3.811  1.00  0.00    -0.480 OA
ATOM     61  H   UNL     1      -5.344  -2.180  -3.397  1.00  0.00     0.296 HD
ENDBRANCH  58  60
ENDBRANCH  48  58
ENDBRANCH  46  48
ENDBRANCH  34  44
ENDBRANCH  32  34
ENDBRANCH  25  30
ENDBRANCH  23  25
ENDBRANCH   2  23
TORSDOF 28
ENDMDL
MODEL 23
REMARK VINA RESULT:    -7.335      8.866     12.808
REMARK INTER + INTRA:         -23.576
REMARK INTER:                 -19.339
REMARK INTRA:                  -4.237
REMARK UNBOUND:                -5.306
REMARK SMILES CCCCCCC[C@H](N)[C@H](O)C(=O)N[C@H](C)C(=O)N(C)[C@H](CC(C)C)C(=O)N[C@@H](Cc1ccc(O)cc1)C(=O)N[C@@H](Cc1ccc(O)cc1)C(=O)O
REMARK SMILES IDX 18 1 17 2 15 3 16 4 14 5 12 6 13 7 10 9 11 10 8 12 9 13 7 16
REMARK SMILES IDX 6 17 5 18 4 19 3 20 2 21 1 22 19 23 20 24 21 25 22 26 23 27
REMARK SMILES IDX 24 28 25 29 26 30 27 31 28 32 29 34 30 35 31 36 32 37 37 38
REMARK SMILES IDX 33 39 36 40 34 41 35 42 38 44 39 45 40 46 41 48 42 49 43 50
REMARK SMILES IDX 44 51 49 52 45 53 48 54 46 55 47 56 50 58 51 59 52 60
REMARK H PARENT 14 8 11 11 9 14 9 15 28 33 35 43 40 47 47 57 52 61
ROOT
ATOM      1  O   UNL     1       2.703  -8.081  -7.466  1.00  0.00    -0.272 OA
ATOM      2  C   UNL     1       2.652  -8.896  -8.399  1.00  0.00     0.245 C 
ENDROOT
BRANCH   2   3
ATOM      3  C   UNL     1       1.812 -10.184  -8.214  1.00  0.00     0.168 C 
ATOM      4  C   UNL     1       2.702 -11.362  -7.834  1.00  0.00     0.041 C 
BRANCH   3   5
ATOM      5  N   UNL     1       0.678 -10.049  -7.313  1.00  0.00    -0.342 N 
ATOM      6  C   UNL     1      -0.608 -10.351  -7.710  1.00  0.00     0.251 C 
ATOM      7  O   UNL     1      -0.897 -10.710  -8.847  1.00  0.00    -0.272 OA
ATOM      8  H   UNL     1       0.789  -9.726  -6.355  1.00  0.00     0.164 HD
BRANCH   6   9
ATOM      9  C   UNL     1      -1.620 -10.272  -6.557  1.00  0.00     0.219 C 
BRANCH   9  10
ATOM     10  O   UNL     1      -2.500  -9.147  -6.670  1.00  0.00    -0.382 OA
ATOM     11  H   UNL     1      -2.225  -8.722  -7.512  1.00  0.00     0.211 HD
ENDBRANCH   9  10
BRANCH   9  12
ATOM     12  C   UNL     1      -2.426 -11.583  -6.363  1.00  0.00     0.089 C 
BRANCH  12  13
ATOM     13  N   UNL     1      -3.360 -11.731  -7.503  1.00  0.00    -0.325 NA
ATOM     14  H   UNL     1      -3.778 -10.823  -7.714  1.00  0.00     0.119 HD
ATOM     15  H   UNL     1      -4.142 -12.324  -7.215  1.00  0.00     0.119 HD
ENDBRANCH  12  13
BRANCH  12  16
ATOM     16  C   UNL     1      -1.589 -12.874  -6.191  1.00  0.00     0.022 C 
BRANCH  16  17
ATOM     17  C   UNL     1      -2.090 -14.178  -6.826  1.00  0.00     0.002 C 
BRANCH  17  18
ATOM     18  C   UNL     1      -1.175 -14.764  -7.899  1.00  0.00     0.000 C 
BRANCH  18  19
ATOM     19  C   UNL     1       0.245 -14.183  -7.895  1.00  0.00    -0.000 C 
BRANCH  19  20
ATOM     20  C   UNL     1       0.998 -14.298  -9.224  1.00  0.00    -0.000 C 
BRANCH  20  21
ATOM     21  C   UNL     1       2.443 -14.775  -9.055  1.00  0.00    -0.003 C 
ATOM     22  C   UNL     1       2.682 -15.339  -7.663  1.00  0.00     0.004 C 
ENDBRANCH  20  21
ENDBRANCH  19  20
ENDBRANCH  18  19
ENDBRANCH  17  18
ENDBRANCH  16  17
ENDBRANCH  12  16
ENDBRANCH   9  12
ENDBRANCH   6   9
ENDBRANCH   3   5
ENDBRANCH   2   3
BRANCH   2  23
ATOM     23  N   UNL     1       3.239  -8.589  -9.622  1.00  0.00    -0.332 N 
ATOM     24  C   UNL     1       4.649  -8.775  -9.931  1.00  0.00     0.147 C 
BRANCH  23  25
ATOM     25  C   UNL     1       2.398  -8.155 -10.771  1.00  0.00     0.174 C 
BRANCH  25  26
ATOM     26  C   UNL     1       2.886  -8.724 -12.124  1.00  0.00     0.038 C 
BRANCH  26  27
ATOM     27  C   UNL     1       2.188 -10.002 -12.639  1.00  0.00    -0.015 C 
ATOM     28  C   UNL     1       0.933 -10.346 -11.838  1.00  0.00     0.007 C 
ATOM     29  C   UNL     1       1.878  -9.965 -14.134  1.00  0.00     0.007 C 
ENDBRANCH  26  27
ENDBRANCH  25  26
BRANCH  25  30
ATOM     30  C   UNL     1       2.240  -6.617 -10.764  1.00  0.00     0.243 C 
ATOM     31  O   UNL     1       3.133  -5.871 -11.162  1.00  0.00    -0.273 OA
ATOM     32  N   UNL     1       1.047  -6.146 -10.280  1.00  0.00    -0.342 N 
ATOM     33  H   UNL     1       0.305  -6.828 -10.101  1.00  0.00     0.164 HD
BRANCH  32  34
ATOM     34  C   UNL     1       0.733  -4.718 -10.173  1.00  0.00     0.175 C 
BRANCH  34  35
ATOM     35  C   UNL     1      -0.382  -4.317 -11.150  1.00  0.00     0.070 C 
BRANCH  35  36
ATOM     36  C   UNL     1       0.049  -3.240 -12.120  1.00  0.00    -0.045 A 
ATOM     37  C   UNL     1       1.333  -2.682 -12.024  1.00  0.00     0.007 A 
ATOM     38  C   UNL     1      -0.826  -2.769 -13.107  1.00  0.00     0.007 A 
ATOM     39  C   UNL     1       1.735  -1.679 -12.906  1.00  0.00     0.046 A 
ATOM     40  C   UNL     1      -0.425  -1.764 -13.990  1.00  0.00     0.046 A 
ATOM     41  C   UNL     1       0.854  -1.228 -13.881  1.00  0.00     0.115 A 
BRANCH  41  42
ATOM     42  O   UNL     1       1.285  -0.244 -14.721  1.00  0.00    -0.508 OA
ATOM     43  H   UNL     1       0.725   0.538 -14.586  1.00  0.00     0.293 HD
ENDBRANCH  41  42
ENDBRANCH  35  36
ENDBRANCH  34  35
BRANCH  34  44
ATOM     44  C   UNL     1       0.351  -4.420  -8.706  1.00  0.00     0.243 C 
ATOM     45  O   UNL     1       0.439  -5.231  -7.788  1.00  0.00    -0.273 OA
ATOM     46  N   UNL     1      -0.231  -3.183  -8.531  1.00  0.00    -0.341 N 
ATOM     47  H   UNL     1      -0.390  -2.592  -9.343  1.00  0.00     0.164 HD
BRANCH  46  48
ATOM     48  C   UNL     1      -0.737  -2.706  -7.242  1.00  0.00     0.196 C 
BRANCH  48  49
ATOM     49  C   UNL     1       0.094  -1.524  -6.716  1.00  0.00     0.072 C 
BRANCH  49  50
ATOM     50  C   UNL     1       1.369  -1.967  -6.034  1.00  0.00    -0.045 A 
ATOM     51  C   UNL     1       1.304  -2.782  -4.894  1.00  0.00     0.007 A 
ATOM     52  C   UNL     1       2.621  -1.558  -6.509  1.00  0.00     0.007 A 
ATOM     53  C   UNL     1       2.472  -3.187  -4.248  1.00  0.00     0.046 A 
ATOM     54  C   UNL     1       3.791  -1.962  -5.862  1.00  0.00     0.046 A 
ATOM     55  C   UNL     1       3.706  -2.775  -4.736  1.00  0.00     0.115 A 
BRANCH  55  56
ATOM     56  O   UNL     1       4.824  -3.190  -4.075  1.00  0.00    -0.508 OA
ATOM     57  H   UNL     1       5.335  -2.407  -3.817  1.00  0.00     0.293 HD
ENDBRANCH  55  56
ENDBRANCH  49  50
ENDBRANCH  48  49
BRANCH  48  58
ATOM     58  C   UNL     1      -2.200  -2.271  -7.410  1.00  0.00     0.326 C 
ATOM     59  O   UNL     1      -3.137  -2.527  -6.670  1.00  0.00    -0.250 OA
BRANCH  58  60
ATOM     60  O   UNL     1      -2.415  -1.509  -8.512  1.00  0.00    -0.480 OA
ATOM     61  H   UNL     1      -1.530  -1.129  -8.700  1.00  0.00     0.296 HD
ENDBRANCH  58  60
ENDBRANCH  48  58
ENDBRANCH  46  48
ENDBRANCH  34  44
ENDBRANCH  32  34
ENDBRANCH  25  30
ENDBRANCH  23  25
ENDBRANCH   2  23
TORSDOF 28
ENDMDL
MODEL 24
REMARK VINA RESULT:    -7.257     14.867     20.179
REMARK INTER + INTRA:         -23.383
REMARK INTER:                 -19.297
REMARK INTRA:                  -4.085
REMARK UNBOUND:                -5.306
REMARK SMILES CCCCCCC[C@H](N)[C@H](O)C(=O)N[C@H](C)C(=O)N(C)[C@H](CC(C)C)C(=O)N[C@@H](Cc1ccc(O)cc1)C(=O)N[C@@H](Cc1ccc(O)cc1)C(=O)O
REMARK SMILES IDX 18 1 17 2 15 3 16 4 14 5 12 6 13 7 10 9 11 10 8 12 9 13 7 16
REMARK SMILES IDX 6 17 5 18 4 19 3 20 2 21 1 22 19 23 20 24 21 25 22 26 23 27
REMARK SMILES IDX 24 28 25 29 26 30 27 31 28 32 29 34 30 35 31 36 32 37 37 38
REMARK SMILES IDX 33 39 36 40 34 41 35 42 38 44 39 45 40 46 41 48 42 49 43 50
REMARK SMILES IDX 44 51 49 52 45 53 48 54 46 55 47 56 50 58 51 59 52 60
REMARK H PARENT 14 8 11 11 9 14 9 15 28 33 35 43 40 47 47 57 52 61
ROOT
ATOM      1  O   UNL     1      12.199  -5.840 -15.100  1.00  0.00    -0.272 OA
ATOM      2  C   UNL     1      10.974  -5.874 -14.910  1.00  0.00     0.245 C 
ENDROOT
BRANCH   2   3
ATOM      3  C   UNL     1      10.086  -4.819 -15.616  1.00  0.00     0.168 C 
ATOM      4  C   UNL     1       9.836  -5.208 -17.070  1.00  0.00     0.041 C 
BRANCH   3   5
ATOM      5  N   UNL     1       8.849  -4.498 -14.921  1.00  0.00    -0.342 N 
ATOM      6  C   UNL     1       8.324  -3.223 -14.923  1.00  0.00     0.251 C 
ATOM      7  O   UNL     1       8.868  -2.267 -15.466  1.00  0.00    -0.272 OA
ATOM      8  H   UNL     1       8.325  -5.201 -14.406  1.00  0.00     0.164 HD
BRANCH   6   9
ATOM      9  C   UNL     1       6.944  -3.148 -14.249  1.00  0.00     0.219 C 
BRANCH   9  10
ATOM     10  O   UNL     1       6.972  -2.423 -13.013  1.00  0.00    -0.382 OA
ATOM     11  H   UNL     1       6.909  -3.127 -12.331  1.00  0.00     0.211 HD
ENDBRANCH   9  10
BRANCH   9  12
ATOM     12  C   UNL     1       5.838  -2.597 -15.185  1.00  0.00     0.089 C 
BRANCH  12  13
ATOM     13  N   UNL     1       6.081  -3.116 -16.551  1.00  0.00    -0.325 NA
ATOM     14  H   UNL     1       5.535  -2.569 -17.220  1.00  0.00     0.119 HD
ATOM     15  H   UNL     1       5.708  -4.066 -16.616  1.00  0.00     0.119 HD
ENDBRANCH  12  13
BRANCH  12  16
ATOM     16  C   UNL     1       4.380  -2.890 -14.757  1.00  0.00     0.022 C 
BRANCH  16  17
ATOM     17  C   UNL     1       3.393  -1.723 -14.620  1.00  0.00     0.002 C 
BRANCH  17  18
ATOM     18  C   UNL     1       2.049  -2.085 -13.991  1.00  0.00     0.000 C 
BRANCH  18  19
ATOM     19  C   UNL     1       0.999  -0.969 -14.075  1.00  0.00    -0.000 C 
BRANCH  19  20
ATOM     20  C   UNL     1      -0.447  -1.448 -14.230  1.00  0.00    -0.000 C 
BRANCH  20  21
ATOM     21  C   UNL     1      -0.574  -2.973 -14.266  1.00  0.00    -0.003 C 
ATOM     22  C   UNL     1      -1.484  -3.480 -13.158  1.00  0.00     0.004 C 
ENDBRANCH  20  21
ENDBRANCH  19  20
ENDBRANCH  18  19
ENDBRANCH  17  18
ENDBRANCH  16  17
ENDBRANCH  12  16
ENDBRANCH   9  12
ENDBRANCH   6   9
ENDBRANCH   3   5
ENDBRANCH   2   3
BRANCH   2  23
ATOM     23  N   UNL     1      10.412  -6.913 -14.177  1.00  0.00    -0.332 N 
ATOM     24  C   UNL     1       9.627  -7.997 -14.749  1.00  0.00     0.147 C 
BRANCH  23  25
ATOM     25  C   UNL     1      10.700  -7.049 -12.723  1.00  0.00     0.174 C 
BRANCH  25  26
ATOM     26  C   UNL     1      10.459  -8.481 -12.192  1.00  0.00     0.038 C 
BRANCH  26  27
ATOM     27  C   UNL     1      11.615  -9.140 -11.406  1.00  0.00    -0.015 C 
ATOM     28  C   UNL     1      12.957  -8.453 -11.655  1.00  0.00     0.007 C 
ATOM     29  C   UNL     1      11.341  -9.259  -9.909  1.00  0.00     0.007 C 
ENDBRANCH  26  27
ENDBRANCH  25  26
BRANCH  25  30
ATOM     30  C   UNL     1       9.949  -5.956 -11.928  1.00  0.00     0.243 C 
ATOM     31  O   UNL     1       8.751  -5.738 -12.096  1.00  0.00    -0.273 OA
ATOM     32  N   UNL     1      10.707  -5.248 -11.031  1.00  0.00    -0.342 N 
ATOM     33  H   UNL     1      11.657  -5.581 -10.846  1.00  0.00     0.164 HD
BRANCH  32  34
ATOM     34  C   UNL     1      10.170  -4.158 -10.211  1.00  0.00     0.175 C 
BRANCH  34  35
ATOM     35  C   UNL     1      10.631  -4.278  -8.751  1.00  0.00     0.070 C 
BRANCH  35  36
ATOM     36  C   UNL     1       9.713  -5.143  -7.917  1.00  0.00    -0.045 A 
ATOM     37  C   UNL     1       9.114  -4.620  -6.761  1.00  0.00     0.007 A 
ATOM     38  C   UNL     1       9.467  -6.477  -8.268  1.00  0.00     0.007 A 
ATOM     39  C   UNL     1       8.276  -5.414  -5.978  1.00  0.00     0.046 A 
ATOM     40  C   UNL     1       8.629  -7.274  -7.484  1.00  0.00     0.046 A 
ATOM     41  C   UNL     1       8.040  -6.734  -6.345  1.00  0.00     0.115 A 
BRANCH  41  42
ATOM     42  O   UNL     1       7.218  -7.477  -5.551  1.00  0.00    -0.508 OA
ATOM     43  H   UNL     1       6.303  -7.185  -5.701  1.00  0.00     0.293 HD
ENDBRANCH  41  42
ENDBRANCH  35  36
ENDBRANCH  34  35
BRANCH  34  44
ATOM     44  C   UNL     1      10.609  -2.820 -10.847  1.00  0.00     0.243 C 
ATOM     45  O   UNL     1       9.896  -1.822 -10.925  1.00  0.00    -0.273 OA
ATOM     46  N   UNL     1      11.848  -2.878 -11.449  1.00  0.00    -0.341 N 
ATOM     47  H   UNL     1      12.351  -3.762 -11.459  1.00  0.00     0.164 HD
BRANCH  46  48
ATOM     48  C   UNL     1      12.445  -1.754 -12.174  1.00  0.00     0.196 C 
BRANCH  48  49
ATOM     49  C   UNL     1      13.942  -1.611 -11.851  1.00  0.00     0.072 C 
BRANCH  49  50
ATOM     50  C   UNL     1      14.395  -0.169 -11.822  1.00  0.00    -0.045 A 
ATOM     51  C   UNL     1      14.565   0.486 -10.594  1.00  0.00     0.007 A 
ATOM     52  C   UNL     1      14.629   0.537 -13.009  1.00  0.00     0.007 A 
ATOM     53  C   UNL     1      14.971   1.821 -10.555  1.00  0.00     0.046 A 
ATOM     54  C   UNL     1      15.033   1.873 -12.971  1.00  0.00     0.046 A 
ATOM     55  C   UNL     1      15.202   2.504 -11.743  1.00  0.00     0.115 A 
BRANCH  55  56
ATOM     56  O   UNL     1      15.595   3.807 -11.662  1.00  0.00    -0.508 OA
ATOM     57  H   UNL     1      15.112   4.227 -10.932  1.00  0.00     0.293 HD
ENDBRANCH  55  56
ENDBRANCH  49  50
ENDBRANCH  48  49
BRANCH  48  58
ATOM     58  C   UNL     1      12.264  -1.980 -13.682  1.00  0.00     0.326 C 
ATOM     59  O   UNL     1      11.748  -1.221 -14.486  1.00  0.00    -0.250 OA
BRANCH  58  60
ATOM     60  O   UNL     1      12.762  -3.166 -14.115  1.00  0.00    -0.480 OA
ATOM     61  H   UNL     1      13.468  -3.366 -13.463  1.00  0.00     0.296 HD
ENDBRANCH  58  60
ENDBRANCH  48  58
ENDBRANCH  46  48
ENDBRANCH  34  44
ENDBRANCH  32  34
ENDBRANCH  25  30
ENDBRANCH  23  25
ENDBRANCH   2  23
TORSDOF 28
ENDMDL
MODEL 25
REMARK VINA RESULT:    -7.179      2.765      8.629
REMARK INTER + INTRA:         -23.188
REMARK INTER:                 -19.400
REMARK INTRA:                  -3.788
REMARK UNBOUND:                -5.306
REMARK SMILES CCCCCCC[C@H](N)[C@H](O)C(=O)N[C@H](C)C(=O)N(C)[C@H](CC(C)C)C(=O)N[C@@H](Cc1ccc(O)cc1)C(=O)N[C@@H](Cc1ccc(O)cc1)C(=O)O
REMARK SMILES IDX 18 1 17 2 15 3 16 4 14 5 12 6 13 7 10 9 11 10 8 12 9 13 7 16
REMARK SMILES IDX 6 17 5 18 4 19 3 20 2 21 1 22 19 23 20 24 21 25 22 26 23 27
REMARK SMILES IDX 24 28 25 29 26 30 27 31 28 32 29 34 30 35 31 36 32 37 37 38
REMARK SMILES IDX 33 39 36 40 34 41 35 42 38 44 39 45 40 46 41 48 42 49 43 50
REMARK SMILES IDX 44 51 49 52 45 53 48 54 46 55 47 56 50 58 51 59 52 60
REMARK H PARENT 14 8 11 11 9 14 9 15 28 33 35 43 40 47 47 57 52 61
ROOT
ATOM      1  O   UNL     1     -12.044  -4.899   3.562  1.00  0.00    -0.272 OA
ATOM      2  C   UNL     1     -10.897  -4.509   3.298  1.00  0.00     0.245 C 
ENDROOT
BRANCH   2   3
ATOM      3  C   UNL     1     -10.598  -2.990   3.361  1.00  0.00     0.168 C 
ATOM      4  C   UNL     1     -11.661  -2.262   4.177  1.00  0.00     0.041 C 
BRANCH   3   5
ATOM      5  N   UNL     1      -9.253  -2.650   3.798  1.00  0.00    -0.342 N 
ATOM      6  C   UNL     1      -8.881  -2.707   5.124  1.00  0.00     0.251 C 
ATOM      7  O   UNL     1      -9.653  -3.004   6.030  1.00  0.00    -0.272 OA
ATOM      8  H   UNL     1      -8.534  -2.355   3.141  1.00  0.00     0.164 HD
BRANCH   6   9
ATOM      9  C   UNL     1      -7.381  -2.445   5.334  1.00  0.00     0.219 C 
BRANCH   9  10
ATOM     10  O   UNL     1      -6.599  -3.645   5.293  1.00  0.00    -0.382 OA
ATOM     11  H   UNL     1      -6.955  -4.178   6.038  1.00  0.00     0.211 HD
ENDBRANCH   9  10
BRANCH   9  12
ATOM     12  C   UNL     1      -6.808  -1.381   4.362  1.00  0.00     0.089 C 
BRANCH  12  13
ATOM     13  N   UNL     1      -7.551  -0.116   4.563  1.00  0.00    -0.325 NA
ATOM     14  H   UNL     1      -7.026   0.483   5.203  1.00  0.00     0.119 HD
ATOM     15  H   UNL     1      -8.428  -0.320   5.046  1.00  0.00     0.119 HD
ENDBRANCH  12  13
BRANCH  12  16
ATOM     16  C   UNL     1      -5.285  -1.125   4.459  1.00  0.00     0.022 C 
BRANCH  16  17
ATOM     17  C   UNL     1      -4.344  -1.835   3.476  1.00  0.00     0.002 C 
BRANCH  17  18
ATOM     18  C   UNL     1      -3.270  -0.945   2.854  1.00  0.00     0.000 C 
BRANCH  18  19
ATOM     19  C   UNL     1      -3.827   0.214   2.018  1.00  0.00    -0.000 C 
BRANCH  19  20
ATOM     20  C   UNL     1      -2.935   1.457   1.953  1.00  0.00    -0.000 C 
BRANCH  20  21
ATOM     21  C   UNL     1      -2.391   1.876   3.322  1.00  0.00    -0.003 C 
ATOM     22  C   UNL     1      -3.509   2.330   4.248  1.00  0.00     0.004 C 
ENDBRANCH  20  21
ENDBRANCH  19  20
ENDBRANCH  18  19
ENDBRANCH  17  18
ENDBRANCH  16  17
ENDBRANCH  12  16
ENDBRANCH   9  12
ENDBRANCH   6   9
ENDBRANCH   3   5
ENDBRANCH   2   3
BRANCH   2  23
ATOM     23  N   UNL     1      -9.882  -5.433   3.075  1.00  0.00    -0.332 N 
ATOM     24  C   UNL     1      -9.309  -6.294   4.099  1.00  0.00     0.147 C 
BRANCH  23  25
ATOM     25  C   UNL     1      -9.394  -5.692   1.693  1.00  0.00     0.174 C 
BRANCH  25  26
ATOM     26  C   UNL     1      -9.578  -7.164   1.255  1.00  0.00     0.038 C 
BRANCH  26  27
ATOM     27  C   UNL     1     -10.982  -7.576   0.757  1.00  0.00    -0.015 C 
ATOM     28  C   UNL     1     -11.835  -8.196   1.863  1.00  0.00     0.007 C 
ATOM     29  C   UNL     1     -11.738  -6.443   0.068  1.00  0.00     0.007 C 
ENDBRANCH  26  27
ENDBRANCH  25  26
BRANCH  25  30
ATOM     30  C   UNL     1      -7.946  -5.174   1.534  1.00  0.00     0.243 C 
ATOM     31  O   UNL     1      -7.505  -4.256   2.224  1.00  0.00    -0.273 OA
ATOM     32  N   UNL     1      -7.194  -5.799   0.573  1.00  0.00    -0.342 N 
ATOM     33  H   UNL     1      -7.582  -6.643   0.142  1.00  0.00     0.164 HD
BRANCH  32  34
ATOM     34  C   UNL     1      -5.811  -5.423   0.266  1.00  0.00     0.175 C 
BRANCH  34  35
ATOM     35  C   UNL     1      -4.809  -6.313   1.017  1.00  0.00     0.070 C 
BRANCH  35  36
ATOM     36  C   UNL     1      -5.289  -7.740   1.162  1.00  0.00    -0.045 A 
ATOM     37  C   UNL     1      -5.887  -8.161   2.359  1.00  0.00     0.007 A 
ATOM     38  C   UNL     1      -5.125  -8.663   0.120  1.00  0.00     0.007 A 
ATOM     39  C   UNL     1      -6.320  -9.479   2.507  1.00  0.00     0.046 A 
ATOM     40  C   UNL     1      -5.557  -9.983   0.268  1.00  0.00     0.046 A 
ATOM     41  C   UNL     1      -6.153 -10.378   1.462  1.00  0.00     0.115 A 
BRANCH  41  42
ATOM     42  O   UNL     1      -6.587 -11.657   1.648  1.00  0.00    -0.508 OA
ATOM     43  H   UNL     1      -6.302 -12.190   0.887  1.00  0.00     0.293 HD
ENDBRANCH  41  42
ENDBRANCH  35  36
ENDBRANCH  34  35
BRANCH  34  44
ATOM     44  C   UNL     1      -5.622  -5.504  -1.266  1.00  0.00     0.243 C 
ATOM     45  O   UNL     1      -6.267  -6.241  -2.006  1.00  0.00    -0.273 OA
ATOM     46  N   UNL     1      -4.557  -4.760  -1.727  1.00  0.00    -0.341 N 
ATOM     47  H   UNL     1      -3.978  -4.258  -1.059  1.00  0.00     0.164 HD
BRANCH  46  48
ATOM     48  C   UNL     1      -4.140  -4.735  -3.131  1.00  0.00     0.196 C 
BRANCH  48  49
ATOM     49  C   UNL     1      -3.409  -3.426  -3.475  1.00  0.00     0.072 C 
BRANCH  49  50
ATOM     50  C   UNL     1      -3.277  -3.207  -4.965  1.00  0.00    -0.045 A 
ATOM     51  C   UNL     1      -4.389  -3.390  -5.800  1.00  0.00     0.007 A 
ATOM     52  C   UNL     1      -2.050  -2.843  -5.534  1.00  0.00     0.007 A 
ATOM     53  C   UNL     1      -4.275  -3.204  -7.177  1.00  0.00     0.046 A 
ATOM     54  C   UNL     1      -1.936  -2.657  -6.913  1.00  0.00     0.046 A 
ATOM     55  C   UNL     1      -3.051  -2.839  -7.724  1.00  0.00     0.115 A 
BRANCH  55  56
ATOM     56  O   UNL     1      -2.982  -2.669  -9.075  1.00  0.00    -0.508 OA
ATOM     57  H   UNL     1      -3.723  -3.145  -9.482  1.00  0.00     0.293 HD
ENDBRANCH  55  56
ENDBRANCH  49  50
ENDBRANCH  48  49
BRANCH  48  58
ATOM     58  C   UNL     1      -3.213  -5.928  -3.399  1.00  0.00     0.326 C 
ATOM     59  O   UNL     1      -2.025  -6.015  -3.134  1.00  0.00    -0.250 OA
BRANCH  58  60
ATOM     60  O   UNL     1      -3.839  -6.980  -3.984  1.00  0.00    -0.480 OA
ATOM     61  H   UNL     1      -3.122  -7.642  -4.087  1.00  0.00     0.296 HD
ENDBRANCH  58  60
ENDBRANCH  48  58
ENDBRANCH  46  48
ENDBRANCH  34  44
ENDBRANCH  32  34
ENDBRANCH  25  30
ENDBRANCH  23  25
ENDBRANCH   2  23
TORSDOF 28
ENDMDL
MODEL 26
REMARK VINA RESULT:    -7.167      5.641     10.832
REMARK INTER + INTRA:         -23.157
REMARK INTER:                 -18.528
REMARK INTRA:                  -4.629
REMARK UNBOUND:                -5.306
REMARK SMILES CCCCCCC[C@H](N)[C@H](O)C(=O)N[C@H](C)C(=O)N(C)[C@H](CC(C)C)C(=O)N[C@@H](Cc1ccc(O)cc1)C(=O)N[C@@H](Cc1ccc(O)cc1)C(=O)O
REMARK SMILES IDX 18 1 17 2 15 3 16 4 14 5 12 6 13 7 10 9 11 10 8 12 9 13 7 16
REMARK SMILES IDX 6 17 5 18 4 19 3 20 2 21 1 22 19 23 20 24 21 25 22 26 23 27
REMARK SMILES IDX 24 28 25 29 26 30 27 31 28 32 29 34 30 35 31 36 32 37 37 38
REMARK SMILES IDX 33 39 36 40 34 41 35 42 38 44 39 45 40 46 41 48 42 49 43 50
REMARK SMILES IDX 44 51 49 52 45 53 48 54 46 55 47 56 50 58 51 59 52 60
REMARK H PARENT 14 8 11 11 9 14 9 15 28 33 35 43 40 47 47 57 52 61
ROOT
ATOM      1  O   UNL     1       3.133  -9.335  -7.152  1.00  0.00    -0.272 OA
ATOM      2  C   UNL     1       2.383  -9.163  -8.125  1.00  0.00     0.245 C 
ENDROOT
BRANCH   2   3
ATOM      3  C   UNL     1       1.787 -10.407  -8.830  1.00  0.00     0.168 C 
ATOM      4  C   UNL     1       2.851 -11.483  -9.020  1.00  0.00     0.041 C 
BRANCH   3   5
ATOM      5  N   UNL     1       0.582 -10.939  -8.215  1.00  0.00    -0.342 N 
ATOM      6  C   UNL     1      -0.495 -11.358  -8.967  1.00  0.00     0.251 C 
ATOM      7  O   UNL     1      -0.538 -11.278 -10.190  1.00  0.00    -0.272 OA
ATOM      8  H   UNL     1       0.486 -11.022  -7.206  1.00  0.00     0.164 HD
BRANCH   6   9
ATOM      9  C   UNL     1      -1.596 -12.014  -8.117  1.00  0.00     0.219 C 
BRANCH   9  10
ATOM     10  O   UNL     1      -2.909 -11.789  -8.644  1.00  0.00    -0.382 OA
ATOM     11  H   UNL     1      -3.032 -10.819  -8.552  1.00  0.00     0.211 HD
ENDBRANCH   9  10
BRANCH   9  12
ATOM     12  C   UNL     1      -1.353 -13.525  -7.867  1.00  0.00     0.089 C 
BRANCH  12  13
ATOM     13  N   UNL     1      -1.386 -14.225  -9.171  1.00  0.00    -0.325 NA
ATOM     14  H   UNL     1      -0.477 -14.658  -9.343  1.00  0.00     0.119 HD
ATOM     15  H   UNL     1      -1.498 -13.533  -9.916  1.00  0.00     0.119 HD
ENDBRANCH  12  13
BRANCH  12  16
ATOM     16  C   UNL     1      -0.057 -13.886  -7.102  1.00  0.00     0.022 C 
BRANCH  16  17
ATOM     17  C   UNL     1       1.070 -14.616  -7.845  1.00  0.00     0.002 C 
BRANCH  17  18
ATOM     18  C   UNL     1       2.432 -14.570  -7.156  1.00  0.00     0.000 C 
BRANCH  18  19
ATOM     19  C   UNL     1       3.323 -15.784  -7.451  1.00  0.00    -0.000 C 
BRANCH  19  20
ATOM     20  C   UNL     1       2.986 -16.539  -8.740  1.00  0.00    -0.000 C 
BRANCH  20  21
ATOM     21  C   UNL     1       4.111 -16.485  -9.778  1.00  0.00    -0.003 C 
ATOM     22  C   UNL     1       4.757 -15.110  -9.824  1.00  0.00     0.004 C 
ENDBRANCH  20  21
ENDBRANCH  19  20
ENDBRANCH  18  19
ENDBRANCH  17  18
ENDBRANCH  16  17
ENDBRANCH  12  16
ENDBRANCH   9  12
ENDBRANCH   6   9
ENDBRANCH   3   5
ENDBRANCH   2   3
BRANCH   2  23
ATOM     23  N   UNL     1       1.996  -7.877  -8.486  1.00  0.00    -0.332 N 
ATOM     24  C   UNL     1       2.892  -6.868  -9.031  1.00  0.00     0.147 C 
BRANCH  23  25
ATOM     25  C   UNL     1       0.560  -7.487  -8.452  1.00  0.00     0.174 C 
BRANCH  25  26
ATOM     26  C   UNL     1       0.130  -6.663  -9.688  1.00  0.00     0.038 C 
BRANCH  26  27
ATOM     27  C   UNL     1      -0.518  -5.286  -9.421  1.00  0.00    -0.015 C 
ATOM     28  C   UNL     1       0.490  -4.140  -9.507  1.00  0.00     0.007 C 
ATOM     29  C   UNL     1      -1.730  -5.003 -10.305  1.00  0.00     0.007 C 
ENDBRANCH  26  27
ENDBRANCH  25  26
BRANCH  25  30
ATOM     30  C   UNL     1       0.226  -6.807  -7.104  1.00  0.00     0.243 C 
ATOM     31  O   UNL     1       1.013  -6.042  -6.550  1.00  0.00    -0.273 OA
ATOM     32  N   UNL     1      -0.998  -7.118  -6.570  1.00  0.00    -0.342 N 
ATOM     33  H   UNL     1      -1.650  -7.646  -7.156  1.00  0.00     0.164 HD
BRANCH  32  34
ATOM     34  C   UNL     1      -1.471  -6.588  -5.288  1.00  0.00     0.175 C 
BRANCH  34  35
ATOM     35  C   UNL     1      -2.793  -5.823  -5.454  1.00  0.00     0.070 C 
BRANCH  35  36
ATOM     36  C   UNL     1      -2.643  -4.568  -6.284  1.00  0.00    -0.045 A 
ATOM     37  C   UNL     1      -3.618  -4.236  -7.237  1.00  0.00     0.007 A 
ATOM     38  C   UNL     1      -1.526  -3.736  -6.132  1.00  0.00     0.007 A 
ATOM     39  C   UNL     1      -3.481  -3.088  -8.017  1.00  0.00     0.046 A 
ATOM     40  C   UNL     1      -1.388  -2.586  -6.914  1.00  0.00     0.046 A 
ATOM     41  C   UNL     1      -2.368  -2.272  -7.849  1.00  0.00     0.115 A 
BRANCH  41  42
ATOM     42  O   UNL     1      -2.271  -1.161  -8.633  1.00  0.00    -0.508 OA
ATOM     43  H   UNL     1      -2.678  -0.417  -8.159  1.00  0.00     0.293 HD
ENDBRANCH  41  42
ENDBRANCH  35  36
ENDBRANCH  34  35
BRANCH  34  44
ATOM     44  C   UNL     1      -1.608  -7.771  -4.303  1.00  0.00     0.243 C 
ATOM     45  O   UNL     1      -0.791  -8.043  -3.429  1.00  0.00    -0.273 OA
ATOM     46  N   UNL     1      -2.683  -8.591  -4.575  1.00  0.00    -0.341 N 
ATOM     47  H   UNL     1      -3.266  -8.389  -5.384  1.00  0.00     0.164 HD
BRANCH  46  48
ATOM     48  C   UNL     1      -2.977  -9.811  -3.821  1.00  0.00     0.196 C 
BRANCH  48  49
ATOM     49  C   UNL     1      -4.382  -9.758  -3.197  1.00  0.00     0.072 C 
BRANCH  49  50
ATOM     50  C   UNL     1      -4.449  -8.849  -1.991  1.00  0.00    -0.045 A 
ATOM     51  C   UNL     1      -4.394  -9.395  -0.700  1.00  0.00     0.007 A 
ATOM     52  C   UNL     1      -4.588  -7.463  -2.140  1.00  0.00     0.007 A 
ATOM     53  C   UNL     1      -4.468  -8.567   0.420  1.00  0.00     0.046 A 
ATOM     54  C   UNL     1      -4.663  -6.635  -1.018  1.00  0.00     0.046 A 
ATOM     55  C   UNL     1      -4.602  -7.194   0.254  1.00  0.00     0.115 A 
BRANCH  55  56
ATOM     56  O   UNL     1      -4.673  -6.421   1.374  1.00  0.00    -0.508 OA
ATOM     57  H   UNL     1      -4.965  -5.532   1.114  1.00  0.00     0.293 HD
ENDBRANCH  55  56
ENDBRANCH  49  50
ENDBRANCH  48  49
BRANCH  48  58
ATOM     58  C   UNL     1      -2.878 -11.018  -4.764  1.00  0.00     0.326 C 
ATOM     59  O   UNL     1      -2.095 -11.951  -4.691  1.00  0.00    -0.250 OA
BRANCH  58  60
ATOM     60  O   UNL     1      -3.795 -11.000  -5.764  1.00  0.00    -0.480 OA
ATOM     61  H   UNL     1      -3.554 -10.198  -6.277  1.00  0.00     0.296 HD
ENDBRANCH  58  60
ENDBRANCH  48  58
ENDBRANCH  46  48
ENDBRANCH  34  44
ENDBRANCH  32  34
ENDBRANCH  25  30
ENDBRANCH  23  25
ENDBRANCH   2  23
TORSDOF 28
ENDMDL
MODEL 27
REMARK VINA RESULT:    -7.148      7.453     12.401
REMARK INTER + INTRA:         -23.109
REMARK INTER:                 -18.480
REMARK INTRA:                  -4.629
REMARK UNBOUND:                -5.306
REMARK SMILES CCCCCCC[C@H](N)[C@H](O)C(=O)N[C@H](C)C(=O)N(C)[C@H](CC(C)C)C(=O)N[C@@H](Cc1ccc(O)cc1)C(=O)N[C@@H](Cc1ccc(O)cc1)C(=O)O
REMARK SMILES IDX 18 1 17 2 15 3 16 4 14 5 12 6 13 7 10 9 11 10 8 12 9 13 7 16
REMARK SMILES IDX 6 17 5 18 4 19 3 20 2 21 1 22 19 23 20 24 21 25 22 26 23 27
REMARK SMILES IDX 24 28 25 29 26 30 27 31 28 32 29 34 30 35 31 36 32 37 37 38
REMARK SMILES IDX 33 39 36 40 34 41 35 42 38 44 39 45 40 46 41 48 42 49 43 50
REMARK SMILES IDX 44 51 49 52 45 53 48 54 46 55 47 56 50 58 51 59 52 60
REMARK H PARENT 14 8 11 11 9 14 9 15 28 33 35 43 40 47 47 57 52 61
ROOT
ATOM      1  O   UNL     1       1.544  -8.242  -7.042  1.00  0.00    -0.272 OA
ATOM      2  C   UNL     1       1.890  -8.975  -7.980  1.00  0.00     0.245 C 
ENDROOT
BRANCH   2   3
ATOM      3  C   UNL     1       1.439 -10.457  -7.967  1.00  0.00     0.168 C 
ATOM      4  C   UNL     1       2.579 -11.366  -7.521  1.00  0.00     0.041 C 
BRANCH   3   5
ATOM      5  N   UNL     1       0.216 -10.717  -7.223  1.00  0.00    -0.342 N 
ATOM      6  C   UNL     1      -0.987 -10.944  -7.857  1.00  0.00     0.251 C 
ATOM      7  O   UNL     1      -1.128 -10.903  -9.075  1.00  0.00    -0.272 OA
ATOM      8  H   UNL     1       0.202 -10.741  -6.206  1.00  0.00     0.164 HD
BRANCH   6   9
ATOM      9  C   UNL     1      -2.108 -11.336  -6.882  1.00  0.00     0.219 C 
BRANCH   9  10
ATOM     10  O   UNL     1      -3.371 -11.514  -7.535  1.00  0.00    -0.382 OA
ATOM     11  H   UNL     1      -3.128 -11.890  -8.410  1.00  0.00     0.211 HD
ENDBRANCH   9  10
BRANCH   9  12
ATOM     12  C   UNL     1      -1.757 -12.574  -6.016  1.00  0.00     0.089 C 
BRANCH  12  13
ATOM     13  N   UNL     1      -2.053 -12.254  -4.601  1.00  0.00    -0.325 NA
ATOM     14  H   UNL     1      -2.651 -11.426  -4.562  1.00  0.00     0.119 HD
ATOM     15  H   UNL     1      -1.185 -11.978  -4.135  1.00  0.00     0.119 HD
ENDBRANCH  12  13
BRANCH  12  16
ATOM     16  C   UNL     1      -2.447 -13.900  -6.417  1.00  0.00     0.022 C 
BRANCH  16  17
ATOM     17  C   UNL     1      -1.791 -14.792  -7.480  1.00  0.00     0.002 C 
BRANCH  17  18
ATOM     18  C   UNL     1      -0.381 -14.374  -7.891  1.00  0.00     0.000 C 
BRANCH  18  19
ATOM     19  C   UNL     1       0.421 -15.482  -8.586  1.00  0.00    -0.000 C 
BRANCH  19  20
ATOM     20  C   UNL     1       1.884 -15.138  -8.883  1.00  0.00    -0.000 C 
BRANCH  20  21
ATOM     21  C   UNL     1       2.874 -15.963  -8.057  1.00  0.00    -0.003 C 
ATOM     22  C   UNL     1       3.514 -15.127  -6.960  1.00  0.00     0.004 C 
ENDBRANCH  20  21
ENDBRANCH  19  20
ENDBRANCH  18  19
ENDBRANCH  17  18
ENDBRANCH  16  17
ENDBRANCH  12  16
ENDBRANCH   9  12
ENDBRANCH   6   9
ENDBRANCH   3   5
ENDBRANCH   2   3
BRANCH   2  23
ATOM     23  N   UNL     1       2.561  -8.437  -9.073  1.00  0.00    -0.332 N 
ATOM     24  C   UNL     1       4.006  -8.290  -9.164  1.00  0.00     0.147 C 
BRANCH  23  25
ATOM     25  C   UNL     1       1.816  -8.083 -10.312  1.00  0.00     0.174 C 
BRANCH  25  26
ATOM     26  C   UNL     1       2.642  -8.317 -11.599  1.00  0.00     0.038 C 
BRANCH  26  27
ATOM     27  C   UNL     1       2.455  -9.675 -12.313  1.00  0.00    -0.015 C 
ATOM     28  C   UNL     1       3.630 -10.624 -12.079  1.00  0.00     0.007 C 
ATOM     29  C   UNL     1       1.134 -10.362 -11.975  1.00  0.00     0.007 C 
ENDBRANCH  26  27
ENDBRANCH  25  26
BRANCH  25  30
ATOM     30  C   UNL     1       1.239  -6.653 -10.196  1.00  0.00     0.243 C 
ATOM     31  O   UNL     1       1.844  -5.672 -10.625  1.00  0.00    -0.273 OA
ATOM     32  N   UNL     1       0.019  -6.554  -9.579  1.00  0.00    -0.342 N 
ATOM     33  H   UNL     1      -0.482  -7.424  -9.378  1.00  0.00     0.164 HD
BRANCH  32  34
ATOM     34  C   UNL     1      -0.667  -5.278  -9.357  1.00  0.00     0.175 C 
BRANCH  34  35
ATOM     35  C   UNL     1      -1.525  -4.886 -10.570  1.00  0.00     0.070 C 
BRANCH  35  36
ATOM     36  C   UNL     1      -0.976  -3.689 -11.312  1.00  0.00    -0.045 A 
ATOM     37  C   UNL     1      -1.241  -3.529 -12.680  1.00  0.00     0.007 A 
ATOM     38  C   UNL     1      -0.181  -2.739 -10.656  1.00  0.00     0.007 A 
ATOM     39  C   UNL     1      -0.727  -2.435 -13.377  1.00  0.00     0.046 A 
ATOM     40  C   UNL     1       0.335  -1.644 -11.353  1.00  0.00     0.046 A 
ATOM     41  C   UNL     1       0.056  -1.501 -12.708  1.00  0.00     0.115 A 
BRANCH  41  42
ATOM     42  O   UNL     1       0.541  -0.448 -13.426  1.00  0.00    -0.508 OA
ATOM     43  H   UNL     1       1.326  -0.748 -13.914  1.00  0.00     0.293 HD
ENDBRANCH  41  42
ENDBRANCH  35  36
ENDBRANCH  34  35
BRANCH  34  44
ATOM     44  C   UNL     1      -1.511  -5.406  -8.069  1.00  0.00     0.243 C 
ATOM     45  O   UNL     1      -2.453  -4.673  -7.782  1.00  0.00    -0.273 OA
ATOM     46  N   UNL     1      -1.029  -6.351  -7.188  1.00  0.00    -0.341 N 
ATOM     47  H   UNL     1      -0.175  -6.852  -7.420  1.00  0.00     0.164 HD
BRANCH  46  48
ATOM     48  C   UNL     1      -1.622  -6.603  -5.873  1.00  0.00     0.196 C 
BRANCH  48  49
ATOM     49  C   UNL     1      -1.280  -8.014  -5.366  1.00  0.00     0.072 C 
BRANCH  49  50
ATOM     50  C   UNL     1      -2.290  -8.535  -4.369  1.00  0.00    -0.045 A 
ATOM     51  C   UNL     1      -3.588  -8.858  -4.793  1.00  0.00     0.007 A 
ATOM     52  C   UNL     1      -1.958  -8.682  -3.016  1.00  0.00     0.007 A 
ATOM     53  C   UNL     1      -4.533  -9.327  -3.880  1.00  0.00     0.046 A 
ATOM     54  C   UNL     1      -2.905  -9.151  -2.102  1.00  0.00     0.046 A 
ATOM     55  C   UNL     1      -4.184  -9.470  -2.542  1.00  0.00     0.115 A 
BRANCH  55  56
ATOM     56  O   UNL     1      -5.137  -9.929  -1.682  1.00  0.00    -0.508 OA
ATOM     57  H   UNL     1      -4.902 -10.833  -1.419  1.00  0.00     0.293 HD
ENDBRANCH  55  56
ENDBRANCH  49  50
ENDBRANCH  48  49
BRANCH  48  58
ATOM     58  C   UNL     1      -1.097  -5.558  -4.879  1.00  0.00     0.326 C 
ATOM     59  O   UNL     1       0.062  -5.211  -4.715  1.00  0.00    -0.250 OA
BRANCH  58  60
ATOM     60  O   UNL     1      -2.073  -4.978  -4.137  1.00  0.00    -0.480 OA
ATOM     61  H   UNL     1      -1.604  -4.249  -3.676  1.00  0.00     0.296 HD
ENDBRANCH  58  60
ENDBRANCH  48  58
ENDBRANCH  46  48
ENDBRANCH  34  44
ENDBRANCH  32  34
ENDBRANCH  25  30
ENDBRANCH  23  25
ENDBRANCH   2  23
TORSDOF 28
ENDMDL
MODEL 28
REMARK VINA RESULT:    -7.066     14.229     18.885
REMARK INTER + INTRA:         -22.906
REMARK INTER:                 -18.456
REMARK INTRA:                  -4.450
REMARK UNBOUND:                -5.306
REMARK SMILES CCCCCCC[C@H](N)[C@H](O)C(=O)N[C@H](C)C(=O)N(C)[C@H](CC(C)C)C(=O)N[C@@H](Cc1ccc(O)cc1)C(=O)N[C@@H](Cc1ccc(O)cc1)C(=O)O
REMARK SMILES IDX 18 1 17 2 15 3 16 4 14 5 12 6 13 7 10 9 11 10 8 12 9 13 7 16
REMARK SMILES IDX 6 17 5 18 4 19 3 20 2 21 1 22 19 23 20 24 21 25 22 26 23 27
REMARK SMILES IDX 24 28 25 29 26 30 27 31 28 32 29 34 30 35 31 36 32 37 37 38
REMARK SMILES IDX 33 39 36 40 34 41 35 42 38 44 39 45 40 46 41 48 42 49 43 50
REMARK SMILES IDX 44 51 49 52 45 53 48 54 46 55 47 56 50 58 51 59 52 60
REMARK H PARENT 14 8 11 11 9 14 9 15 28 33 35 43 40 47 47 57 52 61
ROOT
ATOM      1  O   UNL     1      10.654  -4.833 -14.698  1.00  0.00    -0.272 OA
ATOM      2  C   UNL     1       9.597  -4.224 -14.475  1.00  0.00     0.245 C 
ENDROOT
BRANCH   2   3
ATOM      3  C   UNL     1       9.094  -3.204 -15.526  1.00  0.00     0.168 C 
ATOM      4  C   UNL     1       9.887  -3.325 -16.822  1.00  0.00     0.041 C 
BRANCH   3   5
ATOM      5  N   UNL     1       7.659  -3.229 -15.765  1.00  0.00    -0.342 N 
ATOM      6  C   UNL     1       6.922  -2.070 -15.893  1.00  0.00     0.251 C 
ATOM      7  O   UNL     1       7.401  -0.947 -15.776  1.00  0.00    -0.272 OA
ATOM      8  H   UNL     1       7.144  -4.102 -15.845  1.00  0.00     0.164 HD
BRANCH   6   9
ATOM      9  C   UNL     1       5.459  -2.336 -16.281  1.00  0.00     0.219 C 
BRANCH   9  10
ATOM     10  O   UNL     1       5.325  -3.398 -17.235  1.00  0.00    -0.382 OA
ATOM     11  H   UNL     1       4.487  -3.185 -17.701  1.00  0.00     0.211 HD
ENDBRANCH   9  10
BRANCH   9  12
ATOM     12  C   UNL     1       4.537  -2.576 -15.057  1.00  0.00     0.089 C 
BRANCH  12  13
ATOM     13  N   UNL     1       5.385  -2.677 -13.847  1.00  0.00    -0.325 NA
ATOM     14  H   UNL     1       5.824  -1.772 -13.668  1.00  0.00     0.119 HD
ATOM     15  H   UNL     1       6.160  -3.316 -14.038  1.00  0.00     0.119 HD
ENDBRANCH  12  13
BRANCH  12  16
ATOM     16  C   UNL     1       3.418  -1.531 -14.836  1.00  0.00     0.022 C 
BRANCH  16  17
ATOM     17  C   UNL     1       2.210  -1.902 -13.966  1.00  0.00     0.002 C 
BRANCH  17  18
ATOM     18  C   UNL     1       1.129  -0.828 -13.869  1.00  0.00     0.000 C 
BRANCH  18  19
ATOM     19  C   UNL     1      -0.288  -1.340 -14.157  1.00  0.00    -0.000 C 
BRANCH  19  20
ATOM     20  C   UNL     1      -0.426  -2.863 -14.232  1.00  0.00    -0.000 C 
BRANCH  20  21
ATOM     21  C   UNL     1      -1.407  -3.428 -13.201  1.00  0.00    -0.003 C 
ATOM     22  C   UNL     1      -0.738  -3.626 -11.850  1.00  0.00     0.004 C 
ENDBRANCH  20  21
ENDBRANCH  19  20
ENDBRANCH  18  19
ENDBRANCH  17  18
ENDBRANCH  16  17
ENDBRANCH  12  16
ENDBRANCH   9  12
ENDBRANCH   6   9
ENDBRANCH   3   5
ENDBRANCH   2   3
BRANCH   2  23
ATOM     23  N   UNL     1       8.827  -4.550 -13.363  1.00  0.00    -0.332 N 
ATOM     24  C   UNL     1       7.759  -5.539 -13.359  1.00  0.00     0.147 C 
BRANCH  23  25
ATOM     25  C   UNL     1       9.151  -3.972 -12.030  1.00  0.00     0.174 C 
BRANCH  25  26
ATOM     26  C   UNL     1       9.073  -5.012 -10.888  1.00  0.00     0.038 C 
BRANCH  26  27
ATOM     27  C   UNL     1      10.357  -5.238 -10.059  1.00  0.00    -0.015 C 
ATOM     28  C   UNL     1      10.809  -3.976  -9.325  1.00  0.00     0.007 C 
ATOM     29  C   UNL     1      10.255  -6.415  -9.091  1.00  0.00     0.007 C 
ENDBRANCH  26  27
ENDBRANCH  25  26
BRANCH  25  30
ATOM     30  C   UNL     1       8.299  -2.707 -11.778  1.00  0.00     0.243 C 
ATOM     31  O   UNL     1       7.871  -2.016 -12.702  1.00  0.00    -0.273 OA
ATOM     32  N   UNL     1       8.060  -2.405 -10.462  1.00  0.00    -0.342 N 
ATOM     33  H   UNL     1       8.326  -3.100  -9.761  1.00  0.00     0.164 HD
BRANCH  32  34
ATOM     34  C   UNL     1       7.296  -1.229 -10.035  1.00  0.00     0.175 C 
BRANCH  34  35
ATOM     35  C   UNL     1       6.514  -1.510  -8.743  1.00  0.00     0.070 C 
BRANCH  35  36
ATOM     36  C   UNL     1       7.006  -2.742  -8.018  1.00  0.00    -0.045 A 
ATOM     37  C   UNL     1       6.364  -3.975  -8.212  1.00  0.00     0.007 A 
ATOM     38  C   UNL     1       8.088  -2.670  -7.130  1.00  0.00     0.007 A 
ATOM     39  C   UNL     1       6.802  -5.114  -7.537  1.00  0.00     0.046 A 
ATOM     40  C   UNL     1       8.527  -3.811  -6.453  1.00  0.00     0.046 A 
ATOM     41  C   UNL     1       7.880  -5.024  -6.664  1.00  0.00     0.115 A 
BRANCH  41  42
ATOM     42  O   UNL     1       8.274  -6.160  -6.022  1.00  0.00    -0.508 OA
ATOM     43  H   UNL     1       8.051  -6.921  -6.584  1.00  0.00     0.293 HD
ENDBRANCH  41  42
ENDBRANCH  35  36
ENDBRANCH  34  35
BRANCH  34  44
ATOM     44  C   UNL     1       8.282  -0.052  -9.869  1.00  0.00     0.243 C 
ATOM     45  O   UNL     1       8.309   0.700  -8.899  1.00  0.00    -0.273 OA
ATOM     46  N   UNL     1       9.063   0.172 -10.984  1.00  0.00    -0.341 N 
ATOM     47  H   UNL     1       8.923  -0.406 -11.809  1.00  0.00     0.164 HD
BRANCH  46  48
ATOM     48  C   UNL     1      10.023   1.273 -11.088  1.00  0.00     0.196 C 
BRANCH  48  49
ATOM     49  C   UNL     1      11.091   0.985 -12.156  1.00  0.00     0.072 C 
BRANCH  49  50
ATOM     50  C   UNL     1      12.497   1.029 -11.600  1.00  0.00    -0.045 A 
ATOM     51  C   UNL     1      13.181  -0.167 -11.336  1.00  0.00     0.007 A 
ATOM     52  C   UNL     1      13.125   2.249 -11.322  1.00  0.00     0.007 A 
ATOM     53  C   UNL     1      14.473  -0.140 -10.811  1.00  0.00     0.046 A 
ATOM     54  C   UNL     1      14.418   2.277 -10.794  1.00  0.00     0.046 A 
ATOM     55  C   UNL     1      15.082   1.081 -10.544  1.00  0.00     0.115 A 
BRANCH  55  56
ATOM     56  O   UNL     1      16.344   1.064 -10.030  1.00  0.00    -0.508 OA
ATOM     57  H   UNL     1      16.426   0.294  -9.445  1.00  0.00     0.293 HD
ENDBRANCH  55  56
ENDBRANCH  49  50
ENDBRANCH  48  49
BRANCH  48  58
ATOM     58  C   UNL     1       9.269   2.560 -11.447  1.00  0.00     0.326 C 
ATOM     59  O   UNL     1       9.173   3.573 -10.773  1.00  0.00    -0.250 OA
BRANCH  58  60
ATOM     60  O   UNL     1       8.673   2.517 -12.665  1.00  0.00    -0.480 OA
ATOM     61  H   UNL     1       7.864   1.985 -12.502  1.00  0.00     0.296 HD
ENDBRANCH  58  60
ENDBRANCH  48  58
ENDBRANCH  46  48
ENDBRANCH  34  44
ENDBRANCH  32  34
ENDBRANCH  25  30
ENDBRANCH  23  25
ENDBRANCH   2  23
TORSDOF 28
ENDMDL
MODEL 29
REMARK VINA RESULT:    -7.051      2.617      6.686
REMARK INTER + INTRA:         -22.870
REMARK INTER:                 -19.043
REMARK INTRA:                  -3.826
REMARK UNBOUND:                -5.306
REMARK SMILES CCCCCCC[C@H](N)[C@H](O)C(=O)N[C@H](C)C(=O)N(C)[C@H](CC(C)C)C(=O)N[C@@H](Cc1ccc(O)cc1)C(=O)N[C@@H](Cc1ccc(O)cc1)C(=O)O
REMARK SMILES IDX 18 1 17 2 15 3 16 4 14 5 12 6 13 7 10 9 11 10 8 12 9 13 7 16
REMARK SMILES IDX 6 17 5 18 4 19 3 20 2 21 1 22 19 23 20 24 21 25 22 26 23 27
REMARK SMILES IDX 24 28 25 29 26 30 27 31 28 32 29 34 30 35 31 36 32 37 37 38
REMARK SMILES IDX 33 39 36 40 34 41 35 42 38 44 39 45 40 46 41 48 42 49 43 50
REMARK SMILES IDX 44 51 49 52 45 53 48 54 46 55 47 56 50 58 51 59 52 60
REMARK H PARENT 14 8 11 11 9 14 9 15 28 33 35 43 40 47 47 57 52 61
ROOT
ATOM      1  O   UNL     1      -6.382  -6.827  -1.892  1.00  0.00    -0.272 OA
ATOM      2  C   UNL     1      -6.649  -7.336  -0.793  1.00  0.00     0.245 C 
ENDROOT
BRANCH   2   3
ATOM      3  C   UNL     1      -5.860  -8.592  -0.347  1.00  0.00     0.168 C 
ATOM      4  C   UNL     1      -6.483  -9.209   0.900  1.00  0.00     0.041 C 
BRANCH   3   5
ATOM      5  N   UNL     1      -5.645  -9.582  -1.392  1.00  0.00    -0.342 N 
ATOM      6  C   UNL     1      -4.445  -9.682  -2.064  1.00  0.00     0.251 C 
ATOM      7  O   UNL     1      -3.495  -8.931  -1.869  1.00  0.00    -0.272 OA
ATOM      8  H   UNL     1      -6.372 -10.238  -1.666  1.00  0.00     0.164 HD
BRANCH   6   9
ATOM      9  C   UNL     1      -4.398 -10.885  -3.019  1.00  0.00     0.219 C 
BRANCH   9  10
ATOM     10  O   UNL     1      -5.310 -11.925  -2.644  1.00  0.00    -0.382 OA
ATOM     11  H   UNL     1      -6.001 -11.452  -2.131  1.00  0.00     0.211 HD
ENDBRANCH   9  10
BRANCH   9  12
ATOM     12  C   UNL     1      -4.594 -10.491  -4.506  1.00  0.00     0.089 C 
BRANCH  12  13
ATOM     13  N   UNL     1      -5.151  -9.119  -4.556  1.00  0.00    -0.325 NA
ATOM     14  H   UNL     1      -4.729  -8.614  -5.337  1.00  0.00     0.119 HD
ATOM     15  H   UNL     1      -4.857  -8.612  -3.719  1.00  0.00     0.119 HD
ENDBRANCH  12  13
BRANCH  12  16
ATOM     16  C   UNL     1      -3.338 -10.587  -5.405  1.00  0.00     0.022 C 
BRANCH  16  17
ATOM     17  C   UNL     1      -2.079 -11.275  -4.858  1.00  0.00     0.002 C 
BRANCH  17  18
ATOM     18  C   UNL     1      -1.921 -12.740  -5.258  1.00  0.00     0.000 C 
BRANCH  18  19
ATOM     19  C   UNL     1      -2.372 -13.049  -6.692  1.00  0.00    -0.000 C 
BRANCH  19  20
ATOM     20  C   UNL     1      -1.265 -12.987  -7.749  1.00  0.00    -0.000 C 
BRANCH  20  21
ATOM     21  C   UNL     1      -0.686 -14.362  -8.092  1.00  0.00    -0.003 C 
ATOM     22  C   UNL     1      -1.711 -15.464  -7.880  1.00  0.00     0.004 C 
ENDBRANCH  20  21
ENDBRANCH  19  20
ENDBRANCH  18  19
ENDBRANCH  17  18
ENDBRANCH  16  17
ENDBRANCH  12  16
ENDBRANCH   9  12
ENDBRANCH   6   9
ENDBRANCH   3   5
ENDBRANCH   2   3
BRANCH   2  23
ATOM     23  N   UNL     1      -7.551  -6.712   0.062  1.00  0.00    -0.332 N 
ATOM     24  C   UNL     1      -8.997  -6.749  -0.095  1.00  0.00     0.147 C 
BRANCH  23  25
ATOM     25  C   UNL     1      -7.072  -6.050   1.306  1.00  0.00     0.174 C 
BRANCH  25  26
ATOM     26  C   UNL     1      -8.156  -5.178   1.980  1.00  0.00     0.038 C 
BRANCH  26  27
ATOM     27  C   UNL     1      -8.530  -5.527   3.438  1.00  0.00    -0.015 C 
ATOM     28  C   UNL     1      -9.844  -6.300   3.535  1.00  0.00     0.007 C 
ATOM     29  C   UNL     1      -7.420  -6.257   4.191  1.00  0.00     0.007 C 
ENDBRANCH  26  27
ENDBRANCH  25  26
BRANCH  25  30
ATOM     30  C   UNL     1      -5.749  -5.298   1.033  1.00  0.00     0.243 C 
ATOM     31  O   UNL     1      -4.700  -5.600   1.600  1.00  0.00    -0.273 OA
ATOM     32  N   UNL     1      -5.826  -4.273   0.125  1.00  0.00    -0.342 N 
ATOM     33  H   UNL     1      -6.695  -4.176  -0.407  1.00  0.00     0.164 HD
BRANCH  32  34
ATOM     34  C   UNL     1      -4.680  -3.434  -0.237  1.00  0.00     0.175 C 
BRANCH  34  35
ATOM     35  C   UNL     1      -3.829  -3.090   0.995  1.00  0.00     0.070 C 
BRANCH  35  36
ATOM     36  C   UNL     1      -4.237  -1.785   1.642  1.00  0.00    -0.045 A 
ATOM     37  C   UNL     1      -5.283  -1.027   1.094  1.00  0.00     0.007 A 
ATOM     38  C   UNL     1      -3.568  -1.305   2.775  1.00  0.00     0.007 A 
ATOM     39  C   UNL     1      -5.657   0.184   1.675  1.00  0.00     0.046 A 
ATOM     40  C   UNL     1      -3.941  -0.091   3.357  1.00  0.00     0.046 A 
ATOM     41  C   UNL     1      -4.984   0.642   2.802  1.00  0.00     0.115 A 
BRANCH  41  42
ATOM     42  O   UNL     1      -5.379   1.833   3.338  1.00  0.00    -0.508 OA
ATOM     43  H   UNL     1      -5.276   2.521   2.659  1.00  0.00     0.293 HD
ENDBRANCH  41  42
ENDBRANCH  35  36
ENDBRANCH  34  35
BRANCH  34  44
ATOM     44  C   UNL     1      -3.862  -4.181  -1.314  1.00  0.00     0.243 C 
ATOM     45  O   UNL     1      -2.955  -4.972  -1.072  1.00  0.00    -0.273 OA
ATOM     46  N   UNL     1      -4.153  -3.779  -2.601  1.00  0.00    -0.341 N 
ATOM     47  H   UNL     1      -4.831  -3.035  -2.744  1.00  0.00     0.164 HD
BRANCH  46  48
ATOM     48  C   UNL     1      -3.459  -4.295  -3.782  1.00  0.00     0.196 C 
BRANCH  48  49
ATOM     49  C   UNL     1      -3.763  -5.786  -4.004  1.00  0.00     0.072 C 
BRANCH  49  50
ATOM     50  C   UNL     1      -2.590  -6.539  -4.590  1.00  0.00    -0.045 A 
ATOM     51  C   UNL     1      -1.496  -6.871  -3.777  1.00  0.00     0.007 A 
ATOM     52  C   UNL     1      -2.565  -6.894  -5.944  1.00  0.00     0.007 A 
ATOM     53  C   UNL     1      -0.402  -7.553  -4.309  1.00  0.00     0.046 A 
ATOM     54  C   UNL     1      -1.469  -7.576  -6.478  1.00  0.00     0.046 A 
ATOM     55  C   UNL     1      -0.396  -7.901  -5.654  1.00  0.00     0.115 A 
BRANCH  55  56
ATOM     56  O   UNL     1       0.693  -8.565  -6.136  1.00  0.00    -0.508 OA
ATOM     57  H   UNL     1       0.411  -9.110  -6.887  1.00  0.00     0.293 HD
ENDBRANCH  55  56
ENDBRANCH  49  50
ENDBRANCH  48  49
BRANCH  48  58
ATOM     58  C   UNL     1      -3.902  -3.491  -5.012  1.00  0.00     0.326 C 
ATOM     59  O   UNL     1      -3.252  -2.660  -5.625  1.00  0.00    -0.250 OA
BRANCH  58  60
ATOM     60  O   UNL     1      -5.159  -3.787  -5.429  1.00  0.00    -0.480 OA
ATOM     61  H   UNL     1      -5.095  -4.732  -5.687  1.00  0.00     0.296 HD
ENDBRANCH  58  60
ENDBRANCH  48  58
ENDBRANCH  46  48
ENDBRANCH  34  44
ENDBRANCH  32  34
ENDBRANCH  25  30
ENDBRANCH  23  25
ENDBRANCH   2  23
TORSDOF 28
ENDMDL
MODEL 30
REMARK VINA RESULT:    -7.006      2.456      9.835
REMARK INTER + INTRA:         -22.758
REMARK INTER:                 -19.356
REMARK INTRA:                  -3.402
REMARK UNBOUND:                -5.306
REMARK SMILES CCCCCCC[C@H](N)[C@H](O)C(=O)N[C@H](C)C(=O)N(C)[C@H](CC(C)C)C(=O)N[C@@H](Cc1ccc(O)cc1)C(=O)N[C@@H](Cc1ccc(O)cc1)C(=O)O
REMARK SMILES IDX 18 1 17 2 15 3 16 4 14 5 12 6 13 7 10 9 11 10 8 12 9 13 7 16
REMARK SMILES IDX 6 17 5 18 4 19 3 20 2 21 1 22 19 23 20 24 21 25 22 26 23 27
REMARK SMILES IDX 24 28 25 29 26 30 27 31 28 32 29 34 30 35 31 36 32 37 37 38
REMARK SMILES IDX 33 39 36 40 34 41 35 42 38 44 39 45 40 46 41 48 42 49 43 50
REMARK SMILES IDX 44 51 49 52 45 53 48 54 46 55 47 56 50 58 51 59 52 60
REMARK H PARENT 14 8 11 11 9 14 9 15 28 33 35 43 40 47 47 57 52 61
ROOT
ATOM      1  O   UNL     1      -6.731  -4.350   2.450  1.00  0.00    -0.272 OA
ATOM      2  C   UNL     1      -7.394  -3.510   1.824  1.00  0.00     0.245 C 
ENDROOT
BRANCH   2   3
ATOM      3  C   UNL     1      -8.931  -3.486   2.017  1.00  0.00     0.168 C 
ATOM      4  C   UNL     1      -9.448  -4.864   2.417  1.00  0.00     0.041 C 
BRANCH   3   5
ATOM      5  N   UNL     1      -9.419  -2.445   2.908  1.00  0.00    -0.342 N 
ATOM      6  C   UNL     1     -10.727  -2.412   3.342  1.00  0.00     0.251 C 
ATOM      7  O   UNL     1     -11.579  -3.220   2.985  1.00  0.00    -0.272 OA
ATOM      8  H   UNL     1      -8.814  -1.699   3.244  1.00  0.00     0.164 HD
BRANCH   6   9
ATOM      9  C   UNL     1     -10.981  -1.311   4.384  1.00  0.00     0.219 C 
BRANCH   9  10
ATOM     10  O   UNL     1     -12.340  -0.856   4.388  1.00  0.00    -0.382 OA
ATOM     11  H   UNL     1     -12.584  -0.850   3.436  1.00  0.00     0.211 HD
ENDBRANCH   9  10
BRANCH   9  12
ATOM     12  C   UNL     1     -10.529  -1.709   5.813  1.00  0.00     0.089 C 
BRANCH  12  13
ATOM     13  N   UNL     1     -10.842  -3.141   6.020  1.00  0.00    -0.325 NA
ATOM     14  H   UNL     1     -11.356  -3.249   6.897  1.00  0.00     0.119 HD
ATOM     15  H   UNL     1      -9.969  -3.655   6.158  1.00  0.00     0.119 HD
ENDBRANCH  12  13
BRANCH  12  16
ATOM     16  C   UNL     1      -9.045  -1.435   6.155  1.00  0.00     0.022 C 
BRANCH  16  17
ATOM     17  C   UNL     1      -7.991  -2.497   5.815  1.00  0.00     0.002 C 
BRANCH  17  18
ATOM     18  C   UNL     1      -6.561  -1.973   5.701  1.00  0.00     0.000 C 
BRANCH  18  19
ATOM     19  C   UNL     1      -6.257  -0.782   6.619  1.00  0.00    -0.000 C 
BRANCH  19  20
ATOM     20  C   UNL     1      -5.079   0.093   6.180  1.00  0.00    -0.000 C 
BRANCH  20  21
ATOM     21  C   UNL     1      -5.473   1.154   5.149  1.00  0.00    -0.003 C 
ATOM     22  C   UNL     1      -4.382   2.201   4.987  1.00  0.00     0.004 C 
ENDBRANCH  20  21
ENDBRANCH  19  20
ENDBRANCH  18  19
ENDBRANCH  17  18
ENDBRANCH  16  17
ENDBRANCH  12  16
ENDBRANCH   9  12
ENDBRANCH   6   9
ENDBRANCH   3   5
ENDBRANCH   2   3
BRANCH   2  23
ATOM     23  N   UNL     1      -6.749  -2.538   1.067  1.00  0.00    -0.332 N 
ATOM     24  C   UNL     1      -7.422  -1.599   0.181  1.00  0.00     0.147 C 
BRANCH  23  25
ATOM     25  C   UNL     1      -5.286  -2.312   1.223  1.00  0.00     0.174 C 
BRANCH  25  26
ATOM     26  C   UNL     1      -4.861  -0.863   0.890  1.00  0.00     0.038 C 
BRANCH  26  27
ATOM     27  C   UNL     1      -4.167  -0.061   2.013  1.00  0.00    -0.015 C 
ATOM     28  C   UNL     1      -3.325  -0.948   2.930  1.00  0.00     0.007 C 
ATOM     29  C   UNL     1      -3.341   1.116   1.498  1.00  0.00     0.007 C 
ENDBRANCH  26  27
ENDBRANCH  25  26
BRANCH  25  30
ATOM     30  C   UNL     1      -4.496  -3.387   0.442  1.00  0.00     0.243 C 
ATOM     31  O   UNL     1      -3.654  -4.099   0.987  1.00  0.00    -0.273 OA
ATOM     32  N   UNL     1      -4.791  -3.487  -0.893  1.00  0.00    -0.342 N 
ATOM     33  H   UNL     1      -5.598  -2.962  -1.241  1.00  0.00     0.164 HD
BRANCH  32  34
ATOM     34  C   UNL     1      -4.122  -4.430  -1.794  1.00  0.00     0.175 C 
BRANCH  34  35
ATOM     35  C   UNL     1      -5.073  -5.555  -2.231  1.00  0.00     0.070 C 
BRANCH  35  36
ATOM     36  C   UNL     1      -5.022  -6.755  -1.312  1.00  0.00    -0.045 A 
ATOM     37  C   UNL     1      -5.814  -6.786  -0.154  1.00  0.00     0.007 A 
ATOM     38  C   UNL     1      -4.174  -7.835  -1.587  1.00  0.00     0.007 A 
ATOM     39  C   UNL     1      -5.763  -7.882   0.707  1.00  0.00     0.046 A 
ATOM     40  C   UNL     1      -4.122  -8.933  -0.725  1.00  0.00     0.046 A 
ATOM     41  C   UNL     1      -4.919  -8.946   0.415  1.00  0.00     0.115 A 
BRANCH  41  42
ATOM     42  O   UNL     1      -4.897  -9.997   1.284  1.00  0.00    -0.508 OA
ATOM     43  H   UNL     1      -3.974 -10.165   1.536  1.00  0.00     0.293 HD
ENDBRANCH  41  42
ENDBRANCH  35  36
ENDBRANCH  34  35
BRANCH  34  44
ATOM     44  C   UNL     1      -3.576  -3.634  -3.000  1.00  0.00     0.243 C 
ATOM     45  O   UNL     1      -3.489  -2.410  -3.042  1.00  0.00    -0.273 OA
ATOM     46  N   UNL     1      -3.307  -4.421  -4.100  1.00  0.00    -0.341 N 
ATOM     47  H   UNL     1      -3.505  -5.417  -4.055  1.00  0.00     0.164 HD
BRANCH  46  48
ATOM     48  C   UNL     1      -2.844  -3.883  -5.382  1.00  0.00     0.196 C 
BRANCH  48  49
ATOM     49  C   UNL     1      -1.843  -4.834  -6.060  1.00  0.00     0.072 C 
BRANCH  49  50
ATOM     50  C   UNL     1      -1.875  -6.227  -5.472  1.00  0.00    -0.045 A 
ATOM     51  C   UNL     1      -2.883  -7.125  -5.854  1.00  0.00     0.007 A 
ATOM     52  C   UNL     1      -0.922  -6.634  -4.530  1.00  0.00     0.007 A 
ATOM     53  C   UNL     1      -2.930  -8.408  -5.309  1.00  0.00     0.046 A 
ATOM     54  C   UNL     1      -0.969  -7.918  -3.983  1.00  0.00     0.046 A 
ATOM     55  C   UNL     1      -1.973  -8.795  -4.379  1.00  0.00     0.115 A 
BRANCH  55  56
ATOM     56  O   UNL     1      -2.056 -10.057  -3.868  1.00  0.00    -0.508 OA
ATOM     57  H   UNL     1      -2.973 -10.217  -3.595  1.00  0.00     0.293 HD
ENDBRANCH  55  56
ENDBRANCH  49  50
ENDBRANCH  48  49
BRANCH  48  58
ATOM     58  C   UNL     1      -4.055  -3.670  -6.300  1.00  0.00     0.326 C 
ATOM     59  O   UNL     1      -4.042  -3.370  -7.483  1.00  0.00    -0.250 OA
BRANCH  58  60
ATOM     60  O   UNL     1      -5.246  -3.864  -5.679  1.00  0.00    -0.480 OA
ATOM     61  H   UNL     1      -5.214  -4.810  -5.419  1.00  0.00     0.296 HD
ENDBRANCH  58  60
ENDBRANCH  48  58
ENDBRANCH  46  48
ENDBRANCH  34  44
ENDBRANCH  32  34
ENDBRANCH  25  30
ENDBRANCH  23  25
ENDBRANCH   2  23
TORSDOF 28
ENDMDL
MODEL 31
REMARK VINA RESULT:    -6.962      2.456      8.666
REMARK INTER + INTRA:         -22.647
REMARK INTER:                 -19.037
REMARK INTRA:                  -3.610
REMARK UNBOUND:                -5.306
REMARK SMILES CCCCCCC[C@H](N)[C@H](O)C(=O)N[C@H](C)C(=O)N(C)[C@H](CC(C)C)C(=O)N[C@@H](Cc1ccc(O)cc1)C(=O)N[C@@H](Cc1ccc(O)cc1)C(=O)O
REMARK SMILES IDX 18 1 17 2 15 3 16 4 14 5 12 6 13 7 10 9 11 10 8 12 9 13 7 16
REMARK SMILES IDX 6 17 5 18 4 19 3 20 2 21 1 22 19 23 20 24 21 25 22 26 23 27
REMARK SMILES IDX 24 28 25 29 26 30 27 31 28 32 29 34 30 35 31 36 32 37 37 38
REMARK SMILES IDX 33 39 36 40 34 41 35 42 38 44 39 45 40 46 41 48 42 49 43 50
REMARK SMILES IDX 44 51 49 52 45 53 48 54 46 55 47 56 50 58 51 59 52 60
REMARK H PARENT 14 8 11 11 9 14 9 15 28 33 35 43 40 47 47 57 52 61
ROOT
ATOM      1  O   UNL     1     -10.371  -3.881   3.929  1.00  0.00    -0.272 OA
ATOM      2  C   UNL     1      -9.571  -3.670   3.006  1.00  0.00     0.245 C 
ENDROOT
BRANCH   2   3
ATOM      3  C   UNL     1      -9.414  -2.223   2.477  1.00  0.00     0.168 C 
ATOM      4  C   UNL     1     -10.092  -1.228   3.412  1.00  0.00     0.041 C 
BRANCH   3   5
ATOM      5  N   UNL     1      -8.048  -1.831   2.166  1.00  0.00    -0.342 N 
ATOM      6  C   UNL     1      -7.752  -0.995   1.111  1.00  0.00     0.251 C 
ATOM      7  O   UNL     1      -8.598  -0.556   0.338  1.00  0.00    -0.272 OA
ATOM      8  H   UNL     1      -7.257  -2.160   2.716  1.00  0.00     0.164 HD
BRANCH   6   9
ATOM      9  C   UNL     1      -6.267  -0.604   1.059  1.00  0.00     0.219 C 
BRANCH   9  10
ATOM     10  O   UNL     1      -6.069   0.815   1.038  1.00  0.00    -0.382 OA
ATOM     11  H   UNL     1      -5.130   0.914   0.768  1.00  0.00     0.211 HD
ENDBRANCH   9  10
BRANCH   9  12
ATOM     12  C   UNL     1      -5.425  -1.259   2.185  1.00  0.00     0.089 C 
BRANCH  12  13
ATOM     13  N   UNL     1      -5.245  -2.693   1.860  1.00  0.00    -0.325 NA
ATOM     14  H   UNL     1      -4.258  -2.938   1.956  1.00  0.00     0.119 HD
ATOM     15  H   UNL     1      -5.461  -2.837   0.870  1.00  0.00     0.119 HD
ENDBRANCH  12  13
BRANCH  12  16
ATOM     16  C   UNL     1      -4.054  -0.604   2.476  1.00  0.00     0.022 C 
BRANCH  16  17
ATOM     17  C   UNL     1      -3.672  -0.284   3.928  1.00  0.00     0.002 C 
BRANCH  17  18
ATOM     18  C   UNL     1      -4.186   1.056   4.449  1.00  0.00     0.000 C 
BRANCH  18  19
ATOM     19  C   UNL     1      -5.188   0.934   5.605  1.00  0.00    -0.000 C 
BRANCH  19  20
ATOM     20  C   UNL     1      -6.387   0.020   5.333  1.00  0.00    -0.000 C 
BRANCH  20  21
ATOM     21  C   UNL     1      -6.474  -1.160   6.305  1.00  0.00    -0.003 C 
ATOM     22  C   UNL     1      -7.303  -2.295   5.725  1.00  0.00     0.004 C 
ENDBRANCH  20  21
ENDBRANCH  19  20
ENDBRANCH  18  19
ENDBRANCH  17  18
ENDBRANCH  16  17
ENDBRANCH  12  16
ENDBRANCH   9  12
ENDBRANCH   6   9
ENDBRANCH   3   5
ENDBRANCH   2   3
BRANCH   2  23
ATOM     23  N   UNL     1      -8.750  -4.697   2.550  1.00  0.00    -0.332 N 
ATOM     24  C   UNL     1      -7.933  -5.543   3.407  1.00  0.00     0.147 C 
BRANCH  23  25
ATOM     25  C   UNL     1      -8.760  -5.083   1.112  1.00  0.00     0.174 C 
BRANCH  25  26
ATOM     26  C   UNL     1      -9.443  -6.448   0.861  1.00  0.00     0.038 C 
BRANCH  26  27
ATOM     27  C   UNL     1     -10.833  -6.422   0.186  1.00  0.00    -0.015 C 
ATOM     28  C   UNL     1     -11.126  -7.700  -0.598  1.00  0.00     0.007 C 
ATOM     29  C   UNL     1     -11.972  -6.112   1.155  1.00  0.00     0.007 C 
ENDBRANCH  26  27
ENDBRANCH  25  26
BRANCH  25  30
ATOM     30  C   UNL     1      -7.333  -4.985   0.525  1.00  0.00     0.243 C 
ATOM     31  O   UNL     1      -6.922  -3.959  -0.015  1.00  0.00    -0.273 OA
ATOM     32  N   UNL     1      -6.564  -6.114   0.642  1.00  0.00    -0.342 N 
ATOM     33  H   UNL     1      -6.924  -6.874   1.226  1.00  0.00     0.164 HD
BRANCH  32  34
ATOM     34  C   UNL     1      -5.198  -6.212   0.119  1.00  0.00     0.175 C 
BRANCH  34  35
ATOM     35  C   UNL     1      -4.384  -7.270   0.879  1.00  0.00     0.070 C 
BRANCH  35  36
ATOM     36  C   UNL     1      -5.055  -8.625   0.894  1.00  0.00    -0.045 A 
ATOM     37  C   UNL     1      -5.644  -9.103   2.074  1.00  0.00     0.007 A 
ATOM     38  C   UNL     1      -5.078  -9.428  -0.254  1.00  0.00     0.007 A 
ATOM     39  C   UNL     1      -6.253 -10.358   2.102  1.00  0.00     0.046 A 
ATOM     40  C   UNL     1      -5.687 -10.685  -0.227  1.00  0.00     0.046 A 
ATOM     41  C   UNL     1      -6.270 -11.138   0.952  1.00  0.00     0.115 A 
BRANCH  41  42
ATOM     42  O   UNL     1      -6.873 -12.359   1.021  1.00  0.00    -0.508 OA
ATOM     43  H   UNL     1      -6.183 -13.033   1.141  1.00  0.00     0.293 HD
ENDBRANCH  41  42
ENDBRANCH  35  36
ENDBRANCH  34  35
BRANCH  34  44
ATOM     44  C   UNL     1      -5.285  -6.525  -1.391  1.00  0.00     0.243 C 
ATOM     45  O   UNL     1      -6.317  -6.843  -1.976  1.00  0.00    -0.273 OA
ATOM     46  N   UNL     1      -4.057  -6.545  -2.019  1.00  0.00    -0.341 N 
ATOM     47  H   UNL     1      -3.218  -6.390  -1.466  1.00  0.00     0.164 HD
BRANCH  46  48
ATOM     48  C   UNL     1      -3.881  -6.884  -3.433  1.00  0.00     0.196 C 
BRANCH  48  49
ATOM     49  C   UNL     1      -2.631  -6.206  -4.019  1.00  0.00     0.072 C 
BRANCH  49  50
ATOM     50  C   UNL     1      -2.954  -5.295  -5.182  1.00  0.00    -0.045 A 
ATOM     51  C   UNL     1      -3.949  -4.316  -5.047  1.00  0.00     0.007 A 
ATOM     52  C   UNL     1      -2.288  -5.426  -6.407  1.00  0.00     0.007 A 
ATOM     53  C   UNL     1      -4.266  -3.479  -6.117  1.00  0.00     0.046 A 
ATOM     54  C   UNL     1      -2.606  -4.589  -7.479  1.00  0.00     0.046 A 
ATOM     55  C   UNL     1      -3.592  -3.621  -7.324  1.00  0.00     0.115 A 
BRANCH  55  56
ATOM     56  O   UNL     1      -3.932  -2.785  -8.346  1.00  0.00    -0.508 OA
ATOM     57  H   UNL     1      -4.770  -3.092  -8.727  1.00  0.00     0.293 HD
ENDBRANCH  55  56
ENDBRANCH  49  50
ENDBRANCH  48  49
BRANCH  48  58
ATOM     58  C   UNL     1      -3.751  -8.407  -3.568  1.00  0.00     0.326 C 
ATOM     59  O   UNL     1      -2.897  -9.123  -3.072  1.00  0.00    -0.250 OA
BRANCH  58  60
ATOM     60  O   UNL     1      -4.729  -8.968  -4.324  1.00  0.00    -0.480 OA
ATOM     61  H   UNL     1      -4.942  -9.795  -3.840  1.00  0.00     0.296 HD
ENDBRANCH  58  60
ENDBRANCH  48  58
ENDBRANCH  46  48
ENDBRANCH  34  44
ENDBRANCH  32  34
ENDBRANCH  25  30
ENDBRANCH  23  25
ENDBRANCH   2  23
TORSDOF 28
ENDMDL
MODEL 32
REMARK VINA RESULT:    -6.959     14.994     20.281
REMARK INTER + INTRA:         -22.639
REMARK INTER:                 -16.067
REMARK INTRA:                  -6.571
REMARK UNBOUND:                -5.306
REMARK SMILES CCCCCCC[C@H](N)[C@H](O)C(=O)N[C@H](C)C(=O)N(C)[C@H](CC(C)C)C(=O)N[C@@H](Cc1ccc(O)cc1)C(=O)N[C@@H](Cc1ccc(O)cc1)C(=O)O
REMARK SMILES IDX 18 1 17 2 15 3 16 4 14 5 12 6 13 7 10 9 11 10 8 12 9 13 7 16
REMARK SMILES IDX 6 17 5 18 4 19 3 20 2 21 1 22 19 23 20 24 21 25 22 26 23 27
REMARK SMILES IDX 24 28 25 29 26 30 27 31 28 32 29 34 30 35 31 36 32 37 37 38
REMARK SMILES IDX 33 39 36 40 34 41 35 42 38 44 39 45 40 46 41 48 42 49 43 50
REMARK SMILES IDX 44 51 49 52 45 53 48 54 46 55 47 56 50 58 51 59 52 60
REMARK H PARENT 14 8 11 11 9 14 9 15 28 33 35 43 40 47 47 57 52 61
ROOT
ATOM      1  O   UNL     1       7.543  -8.394 -12.056  1.00  0.00    -0.272 OA
ATOM      2  C   UNL     1       7.216  -7.375 -11.429  1.00  0.00     0.245 C 
ENDROOT
BRANCH   2   3
ATOM      3  C   UNL     1       6.210  -7.515 -10.260  1.00  0.00     0.168 C 
ATOM      4  C   UNL     1       4.816  -7.070 -10.688  1.00  0.00     0.041 C 
BRANCH   3   5
ATOM      5  N   UNL     1       6.190  -8.823  -9.624  1.00  0.00    -0.342 N 
ATOM      6  C   UNL     1       6.220  -8.967  -8.253  1.00  0.00     0.251 C 
ATOM      7  O   UNL     1       6.306  -8.022  -7.476  1.00  0.00    -0.272 OA
ATOM      8  H   UNL     1       6.155  -9.682 -10.167  1.00  0.00     0.164 HD
BRANCH   6   9
ATOM      9  C   UNL     1       6.046 -10.427  -7.805  1.00  0.00     0.219 C 
BRANCH   9  10
ATOM     10  O   UNL     1       6.526 -10.657  -6.474  1.00  0.00    -0.382 OA
ATOM     11  H   UNL     1       7.265 -11.292  -6.602  1.00  0.00     0.211 HD
ENDBRANCH   9  10
BRANCH   9  12
ATOM     12  C   UNL     1       4.593 -10.944  -7.963  1.00  0.00     0.089 C 
BRANCH  12  13
ATOM     13  N   UNL     1       3.692  -9.775  -8.090  1.00  0.00    -0.325 NA
ATOM     14  H   UNL     1       3.133  -9.873  -8.939  1.00  0.00     0.119 HD
ATOM     15  H   UNL     1       4.258  -8.936  -8.239  1.00  0.00     0.119 HD
ENDBRANCH  12  13
BRANCH  12  16
ATOM     16  C   UNL     1       4.348 -11.933  -9.127  1.00  0.00     0.022 C 
BRANCH  16  17
ATOM     17  C   UNL     1       5.434 -12.959  -9.476  1.00  0.00     0.002 C 
BRANCH  17  18
ATOM     18  C   UNL     1       6.377 -12.542 -10.603  1.00  0.00     0.000 C 
BRANCH  18  19
ATOM     19  C   UNL     1       5.670 -11.898 -11.803  1.00  0.00    -0.000 C 
BRANCH  19  20
ATOM     20  C   UNL     1       5.119 -12.883 -12.838  1.00  0.00    -0.000 C 
BRANCH  20  21
ATOM     21  C   UNL     1       4.374 -12.193 -13.984  1.00  0.00    -0.003 C 
ATOM     22  C   UNL     1       5.306 -11.884 -15.145  1.00  0.00     0.004 C 
ENDBRANCH  20  21
ENDBRANCH  19  20
ENDBRANCH  18  19
ENDBRANCH  17  18
ENDBRANCH  16  17
ENDBRANCH  12  16
ENDBRANCH   9  12
ENDBRANCH   6   9
ENDBRANCH   3   5
ENDBRANCH   2   3
BRANCH   2  23
ATOM     23  N   UNL     1       7.840  -6.162 -11.700  1.00  0.00    -0.332 N 
ATOM     24  C   UNL     1       7.370  -5.192 -12.678  1.00  0.00     0.147 C 
BRANCH  23  25
ATOM     25  C   UNL     1       9.001  -5.714 -10.882  1.00  0.00     0.174 C 
BRANCH  25  26
ATOM     26  C   UNL     1       8.916  -4.223 -10.482  1.00  0.00     0.038 C 
BRANCH  26  27
ATOM     27  C   UNL     1       9.258  -3.870  -9.017  1.00  0.00    -0.015 C 
ATOM     28  C   UNL     1      10.762  -3.892  -8.747  1.00  0.00     0.007 C 
ATOM     29  C   UNL     1       8.648  -2.550  -8.552  1.00  0.00     0.007 C 
ENDBRANCH  26  27
ENDBRANCH  25  26
BRANCH  25  30
ATOM     30  C   UNL     1      10.325  -6.096 -11.582  1.00  0.00     0.243 C 
ATOM     31  O   UNL     1      11.045  -5.253 -12.114  1.00  0.00    -0.273 OA
ATOM     32  N   UNL     1      10.636  -7.432 -11.576  1.00  0.00    -0.342 N 
ATOM     33  H   UNL     1      10.063  -8.049 -10.994  1.00  0.00     0.164 HD
BRANCH  32  34
ATOM     34  C   UNL     1      11.836  -7.979 -12.215  1.00  0.00     0.175 C 
BRANCH  34  35
ATOM     35  C   UNL     1      12.585  -8.933 -11.272  1.00  0.00     0.070 C 
BRANCH  35  36
ATOM     36  C   UNL     1      11.702  -9.484 -10.175  1.00  0.00    -0.045 A 
ATOM     37  C   UNL     1      11.716  -8.896  -8.901  1.00  0.00     0.007 A 
ATOM     38  C   UNL     1      10.880 -10.596 -10.404  1.00  0.00     0.007 A 
ATOM     39  C   UNL     1      10.915  -9.405  -7.879  1.00  0.00     0.046 A 
ATOM     40  C   UNL     1      10.079 -11.107  -9.380  1.00  0.00     0.046 A 
ATOM     41  C   UNL     1      10.103 -10.506  -8.126  1.00  0.00     0.115 A 
BRANCH  41  42
ATOM     42  O   UNL     1       9.338 -10.975  -7.099  1.00  0.00    -0.508 OA
ATOM     43  H   UNL     1       9.203 -11.928  -7.231  1.00  0.00     0.293 HD
ENDBRANCH  41  42
ENDBRANCH  35  36
ENDBRANCH  34  35
BRANCH  34  44
ATOM     44  C   UNL     1      11.405  -8.679 -13.523  1.00  0.00     0.243 C 
ATOM     45  O   UNL     1      11.982  -8.554 -14.599  1.00  0.00    -0.273 OA
ATOM     46  N   UNL     1      10.217  -9.370 -13.410  1.00  0.00    -0.341 N 
ATOM     47  H   UNL     1       9.714  -9.347 -12.526  1.00  0.00     0.164 HD
BRANCH  46  48
ATOM     48  C   UNL     1       9.574 -10.057 -14.532  1.00  0.00     0.196 C 
BRANCH  48  49
ATOM     49  C   UNL     1       8.703 -11.228 -14.048  1.00  0.00     0.072 C 
BRANCH  49  50
ATOM     50  C   UNL     1       9.523 -12.420 -13.609  1.00  0.00    -0.045 A 
ATOM     51  C   UNL     1       9.142 -13.151 -12.474  1.00  0.00     0.007 A 
ATOM     52  C   UNL     1      10.677 -12.798 -14.307  1.00  0.00     0.007 A 
ATOM     53  C   UNL     1       9.898 -14.244 -12.052  1.00  0.00     0.046 A 
ATOM     54  C   UNL     1      11.435 -13.892 -13.884  1.00  0.00     0.046 A 
ATOM     55  C   UNL     1      11.037 -14.607 -12.759  1.00  0.00     0.115 A 
BRANCH  55  56
ATOM     56  O   UNL     1      11.750 -15.681 -12.313  1.00  0.00    -0.508 OA
ATOM     57  H   UNL     1      11.658 -15.728 -11.348  1.00  0.00     0.293 HD
ENDBRANCH  55  56
ENDBRANCH  49  50
ENDBRANCH  48  49
BRANCH  48  58
ATOM     58  C   UNL     1       8.705  -9.052 -15.301  1.00  0.00     0.326 C 
ATOM     59  O   UNL     1       9.074  -8.238 -16.132  1.00  0.00    -0.250 OA
BRANCH  58  60
ATOM     60  O   UNL     1       7.386  -9.131 -14.992  1.00  0.00    -0.480 OA
ATOM     61  H   UNL     1       7.169  -8.221 -14.695  1.00  0.00     0.296 HD
ENDBRANCH  58  60
ENDBRANCH  48  58
ENDBRANCH  46  48
ENDBRANCH  34  44
ENDBRANCH  32  34
ENDBRANCH  25  30
ENDBRANCH  23  25
ENDBRANCH   2  23
TORSDOF 28
ENDMDL
MODEL 33
REMARK VINA RESULT:    -6.952     11.395     16.759
REMARK INTER + INTRA:         -22.623
REMARK INTER:                 -17.088
REMARK INTRA:                  -5.535
REMARK UNBOUND:                -5.306
REMARK SMILES CCCCCCC[C@H](N)[C@H](O)C(=O)N[C@H](C)C(=O)N(C)[C@H](CC(C)C)C(=O)N[C@@H](Cc1ccc(O)cc1)C(=O)N[C@@H](Cc1ccc(O)cc1)C(=O)O
REMARK SMILES IDX 18 1 17 2 15 3 16 4 14 5 12 6 13 7 10 9 11 10 8 12 9 13 7 16
REMARK SMILES IDX 6 17 5 18 4 19 3 20 2 21 1 22 19 23 20 24 21 25 22 26 23 27
REMARK SMILES IDX 24 28 25 29 26 30 27 31 28 32 29 34 30 35 31 36 32 37 37 38
REMARK SMILES IDX 33 39 36 40 34 41 35 42 38 44 39 45 40 46 41 48 42 49 43 50
REMARK SMILES IDX 44 51 49 52 45 53 48 54 46 55 47 56 50 58 51 59 52 60
REMARK H PARENT 14 8 11 11 9 14 9 15 28 33 35 43 40 47 47 57 52 61
ROOT
ATOM      1  O   UNL     1       6.509  -4.239 -14.965  1.00  0.00    -0.272 OA
ATOM      2  C   UNL     1       5.435  -4.132 -14.355  1.00  0.00     0.245 C 
ENDROOT
BRANCH   2   3
ATOM      3  C   UNL     1       4.188  -3.641 -15.131  1.00  0.00     0.168 C 
ATOM      4  C   UNL     1       3.376  -4.822 -15.652  1.00  0.00     0.041 C 
BRANCH   3   5
ATOM      5  N   UNL     1       3.357  -2.687 -14.413  1.00  0.00    -0.342 N 
ATOM      6  C   UNL     1       3.441  -1.330 -14.643  1.00  0.00     0.251 C 
ATOM      7  O   UNL     1       4.238  -0.826 -15.428  1.00  0.00    -0.272 OA
ATOM      8  H   UNL     1       2.683  -2.985 -13.712  1.00  0.00     0.164 HD
BRANCH   6   9
ATOM      9  C   UNL     1       2.375  -0.530 -13.879  1.00  0.00     0.219 C 
BRANCH   9  10
ATOM     10  O   UNL     1       1.183  -0.323 -14.647  1.00  0.00    -0.382 OA
ATOM     11  H   UNL     1       1.400   0.456 -15.205  1.00  0.00     0.211 HD
ENDBRANCH   9  10
BRANCH   9  12
ATOM     12  C   UNL     1       2.037  -1.135 -12.491  1.00  0.00     0.089 C 
BRANCH  12  13
ATOM     13  N   UNL     1       2.720  -0.332 -11.452  1.00  0.00    -0.325 NA
ATOM     14  H   UNL     1       3.362  -0.932 -10.931  1.00  0.00     0.119 HD
ATOM     15  H   UNL     1       2.028  -0.021 -10.766  1.00  0.00     0.119 HD
ENDBRANCH  12  13
BRANCH  12  16
ATOM     16  C   UNL     1       0.532  -1.268 -12.157  1.00  0.00     0.022 C 
BRANCH  16  17
ATOM     17  C   UNL     1      -0.048  -2.658 -11.862  1.00  0.00     0.002 C 
BRANCH  17  18
ATOM     18  C   UNL     1      -0.630  -2.829 -10.460  1.00  0.00     0.000 C 
BRANCH  18  19
ATOM     19  C   UNL     1       0.309  -2.375  -9.335  1.00  0.00    -0.000 C 
BRANCH  19  20
ATOM     20  C   UNL     1       0.660  -3.454  -8.306  1.00  0.00    -0.000 C 
BRANCH  20  21
ATOM     21  C   UNL     1       1.847  -4.324  -8.730  1.00  0.00    -0.003 C 
ATOM     22  C   UNL     1       2.788  -3.565  -9.653  1.00  0.00     0.004 C 
ENDBRANCH  20  21
ENDBRANCH  19  20
ENDBRANCH  18  19
ENDBRANCH  17  18
ENDBRANCH  16  17
ENDBRANCH  12  16
ENDBRANCH   9  12
ENDBRANCH   6   9
ENDBRANCH   3   5
ENDBRANCH   2   3
BRANCH   2  23
ATOM     23  N   UNL     1       5.339  -4.563 -13.036  1.00  0.00    -0.332 N 
ATOM     24  C   UNL     1       4.294  -5.440 -12.528  1.00  0.00     0.147 C 
BRANCH  23  25
ATOM     25  C   UNL     1       6.414  -4.239 -12.059  1.00  0.00     0.174 C 
BRANCH  25  26
ATOM     26  C   UNL     1       6.765  -5.428 -11.134  1.00  0.00     0.038 C 
BRANCH  26  27
ATOM     27  C   UNL     1       8.176  -6.040 -11.285  1.00  0.00    -0.015 C 
ATOM     28  C   UNL     1       9.285  -5.036 -10.973  1.00  0.00     0.007 C 
ATOM     29  C   UNL     1       8.370  -7.323 -10.480  1.00  0.00     0.007 C 
ENDBRANCH  26  27
ENDBRANCH  25  26
BRANCH  25  30
ATOM     30  C   UNL     1       6.067  -2.940 -11.297  1.00  0.00     0.243 C 
ATOM     31  O   UNL     1       5.461  -2.014 -11.833  1.00  0.00    -0.273 OA
ATOM     32  N   UNL     1       6.486  -2.887  -9.992  1.00  0.00    -0.342 N 
ATOM     33  H   UNL     1       6.856  -3.747  -9.579  1.00  0.00     0.164 HD
BRANCH  32  34
ATOM     34  C   UNL     1       6.269  -1.725  -9.127  1.00  0.00     0.175 C 
BRANCH  34  35
ATOM     35  C   UNL     1       5.895  -2.153  -7.699  1.00  0.00     0.070 C 
BRANCH  35  36
ATOM     36  C   UNL     1       4.554  -1.612  -7.259  1.00  0.00    -0.045 A 
ATOM     37  C   UNL     1       3.915  -2.153  -6.132  1.00  0.00     0.007 A 
ATOM     38  C   UNL     1       3.921  -0.587  -7.975  1.00  0.00     0.007 A 
ATOM     39  C   UNL     1       2.670  -1.670  -5.726  1.00  0.00     0.046 A 
ATOM     40  C   UNL     1       2.675  -0.104  -7.569  1.00  0.00     0.046 A 
ATOM     41  C   UNL     1       2.061  -0.650  -6.447  1.00  0.00     0.115 A 
BRANCH  41  42
ATOM     42  O   UNL     1       0.844  -0.208  -6.019  1.00  0.00    -0.508 OA
ATOM     43  H   UNL     1       0.181  -0.884  -6.237  1.00  0.00     0.293 HD
ENDBRANCH  41  42
ENDBRANCH  35  36
ENDBRANCH  34  35
BRANCH  34  44
ATOM     44  C   UNL     1       7.551  -0.862  -9.154  1.00  0.00     0.243 C 
ATOM     45  O   UNL     1       8.432  -0.902  -8.300  1.00  0.00    -0.273 OA
ATOM     46  N   UNL     1       7.563   0.070 -10.171  1.00  0.00    -0.341 N 
ATOM     47  H   UNL     1       6.755   0.143 -10.784  1.00  0.00     0.164 HD
BRANCH  46  48
ATOM     48  C   UNL     1       8.641   1.044 -10.357  1.00  0.00     0.196 C 
BRANCH  48  49
ATOM     49  C   UNL     1       9.107   1.089 -11.822  1.00  0.00     0.072 C 
BRANCH  49  50
ATOM     50  C   UNL     1      10.605   0.940 -11.961  1.00  0.00    -0.045 A 
ATOM     51  C   UNL     1      11.455   1.491 -10.992  1.00  0.00     0.007 A 
ATOM     52  C   UNL     1      11.164   0.273 -13.059  1.00  0.00     0.007 A 
ATOM     53  C   UNL     1      12.840   1.371 -11.117  1.00  0.00     0.046 A 
ATOM     54  C   UNL     1      12.550   0.153 -13.184  1.00  0.00     0.046 A 
ATOM     55  C   UNL     1      13.376   0.703 -12.211  1.00  0.00     0.115 A 
BRANCH  55  56
ATOM     56  O   UNL     1      14.734   0.609 -12.296  1.00  0.00    -0.508 OA
ATOM     57  H   UNL     1      14.967   0.360 -13.205  1.00  0.00     0.293 HD
ENDBRANCH  55  56
ENDBRANCH  49  50
ENDBRANCH  48  49
BRANCH  48  58
ATOM     58  C   UNL     1       8.139   2.431  -9.933  1.00  0.00     0.326 C 
ATOM     59  O   UNL     1       8.813   3.418  -9.690  1.00  0.00    -0.250 OA
BRANCH  58  60
ATOM     60  O   UNL     1       6.787   2.515  -9.848  1.00  0.00    -0.480 OA
ATOM     61  H   UNL     1       6.483   2.131 -10.700  1.00  0.00     0.296 HD
ENDBRANCH  58  60
ENDBRANCH  48  58
ENDBRANCH  46  48
ENDBRANCH  34  44
ENDBRANCH  32  34
ENDBRANCH  25  30
ENDBRANCH  23  25
ENDBRANCH   2  23
TORSDOF 28
ENDMDL
MODEL 34
REMARK VINA RESULT:    -6.943     10.541     15.661
REMARK INTER + INTRA:         -22.599
REMARK INTER:                 -19.011
REMARK INTRA:                  -3.588
REMARK UNBOUND:                -5.306
REMARK SMILES CCCCCCC[C@H](N)[C@H](O)C(=O)N[C@H](C)C(=O)N(C)[C@H](CC(C)C)C(=O)N[C@@H](Cc1ccc(O)cc1)C(=O)N[C@@H](Cc1ccc(O)cc1)C(=O)O
REMARK SMILES IDX 18 1 17 2 15 3 16 4 14 5 12 6 13 7 10 9 11 10 8 12 9 13 7 16
REMARK SMILES IDX 6 17 5 18 4 19 3 20 2 21 1 22 19 23 20 24 21 25 22 26 23 27
REMARK SMILES IDX 24 28 25 29 26 30 27 31 28 32 29 34 30 35 31 36 32 37 37 38
REMARK SMILES IDX 33 39 36 40 34 41 35 42 38 44 39 45 40 46 41 48 42 49 43 50
REMARK SMILES IDX 44 51 49 52 45 53 48 54 46 55 47 56 50 58 51 59 52 60
REMARK H PARENT 14 8 11 11 9 14 9 15 28 33 35 43 40 47 47 57 52 61
ROOT
ATOM      1  O   UNL     1       4.007  -1.141 -14.873  1.00  0.00    -0.272 OA
ATOM      2  C   UNL     1       3.367  -1.826 -14.062  1.00  0.00     0.245 C 
ENDROOT
BRANCH   2   3
ATOM      3  C   UNL     1       3.713  -3.330 -13.925  1.00  0.00     0.168 C 
ATOM      4  C   UNL     1       2.687  -4.190 -14.653  1.00  0.00     0.041 C 
BRANCH   3   5
ATOM      5  N   UNL     1       5.075  -3.679 -14.298  1.00  0.00    -0.342 N 
ATOM      6  C   UNL     1       6.152  -3.372 -13.493  1.00  0.00     0.251 C 
ATOM      7  O   UNL     1       6.053  -2.754 -12.438  1.00  0.00    -0.272 OA
ATOM      8  H   UNL     1       5.286  -4.163 -15.167  1.00  0.00     0.164 HD
BRANCH   6   9
ATOM      9  C   UNL     1       7.472  -3.961 -14.015  1.00  0.00     0.219 C 
BRANCH   9  10
ATOM     10  O   UNL     1       7.386  -5.368 -14.270  1.00  0.00    -0.382 OA
ATOM     11  H   UNL     1       7.043  -5.736 -13.427  1.00  0.00     0.211 HD
ENDBRANCH   9  10
BRANCH   9  12
ATOM     12  C   UNL     1       8.027  -3.209 -15.253  1.00  0.00     0.089 C 
BRANCH  12  13
ATOM     13  N   UNL     1       7.333  -1.905 -15.357  1.00  0.00    -0.325 NA
ATOM     14  H   UNL     1       8.020  -1.173 -15.549  1.00  0.00     0.119 HD
ATOM     15  H   UNL     1       6.936  -1.667 -14.445  1.00  0.00     0.119 HD
ENDBRANCH  12  13
BRANCH  12  16
ATOM     16  C   UNL     1       9.560  -3.000 -15.288  1.00  0.00     0.022 C 
BRANCH  16  17
ATOM     17  C   UNL     1      10.223  -2.557 -16.599  1.00  0.00     0.002 C 
BRANCH  17  18
ATOM     18  C   UNL     1      11.505  -1.745 -16.431  1.00  0.00     0.000 C 
BRANCH  18  19
ATOM     19  C   UNL     1      11.312  -0.421 -15.680  1.00  0.00    -0.000 C 
BRANCH  19  20
ATOM     20  C   UNL     1      10.090   0.397 -16.108  1.00  0.00    -0.000 C 
BRANCH  20  21
ATOM     21  C   UNL     1       9.412   1.117 -14.940  1.00  0.00    -0.003 C 
ATOM     22  C   UNL     1       9.818   0.513 -13.605  1.00  0.00     0.004 C 
ENDBRANCH  20  21
ENDBRANCH  19  20
ENDBRANCH  18  19
ENDBRANCH  17  18
ENDBRANCH  16  17
ENDBRANCH  12  16
ENDBRANCH   9  12
ENDBRANCH   6   9
ENDBRANCH   3   5
ENDBRANCH   2   3
BRANCH   2  23
ATOM     23  N   UNL     1       2.446  -1.220 -13.214  1.00  0.00    -0.332 N 
ATOM     24  C   UNL     1       1.892   0.111 -13.412  1.00  0.00     0.147 C 
BRANCH  23  25
ATOM     25  C   UNL     1       1.859  -1.980 -12.077  1.00  0.00     0.174 C 
BRANCH  25  26
ATOM     26  C   UNL     1       0.313  -2.014 -12.110  1.00  0.00     0.038 C 
BRANCH  26  27
ATOM     27  C   UNL     1      -0.356  -3.403 -12.208  1.00  0.00    -0.015 C 
ATOM     28  C   UNL     1      -0.763  -3.954 -10.842  1.00  0.00     0.007 C 
ATOM     29  C   UNL     1      -1.535  -3.443 -13.177  1.00  0.00     0.007 C 
ENDBRANCH  26  27
ENDBRANCH  25  26
BRANCH  25  30
ATOM     30  C   UNL     1       2.441  -1.470 -10.738  1.00  0.00     0.243 C 
ATOM     31  O   UNL     1       1.909  -0.562 -10.102  1.00  0.00    -0.273 OA
ATOM     32  N   UNL     1       3.587  -2.092 -10.314  1.00  0.00    -0.342 N 
ATOM     33  H   UNL     1       3.887  -2.929 -10.822  1.00  0.00     0.164 HD
BRANCH  32  34
ATOM     34  C   UNL     1       4.292  -1.722  -9.084  1.00  0.00     0.175 C 
BRANCH  34  35
ATOM     35  C   UNL     1       4.411  -0.197  -8.946  1.00  0.00     0.070 C 
BRANCH  35  36
ATOM     36  C   UNL     1       5.785   0.319  -9.310  1.00  0.00    -0.045 A 
ATOM     37  C   UNL     1       6.840  -0.583  -9.519  1.00  0.00     0.007 A 
ATOM     38  C   UNL     1       6.031   1.693  -9.420  1.00  0.00     0.007 A 
ATOM     39  C   UNL     1       8.114  -0.116  -9.841  1.00  0.00     0.046 A 
ATOM     40  C   UNL     1       7.307   2.161  -9.742  1.00  0.00     0.046 A 
ATOM     41  C   UNL     1       8.338   1.251  -9.951  1.00  0.00     0.115 A 
BRANCH  41  42
ATOM     42  O   UNL     1       9.598   1.666 -10.265  1.00  0.00    -0.508 OA
ATOM     43  H   UNL     1      10.137   1.640  -9.457  1.00  0.00     0.293 HD
ENDBRANCH  41  42
ENDBRANCH  35  36
ENDBRANCH  34  35
BRANCH  34  44
ATOM     44  C   UNL     1       3.539  -2.354  -7.892  1.00  0.00     0.243 C 
ATOM     45  O   UNL     1       3.617  -3.536  -7.569  1.00  0.00    -0.273 OA
ATOM     46  N   UNL     1       2.651  -1.491  -7.285  1.00  0.00    -0.341 N 
ATOM     47  H   UNL     1       2.536  -0.554  -7.663  1.00  0.00     0.164 HD
BRANCH  46  48
ATOM     48  C   UNL     1       1.776  -1.883  -6.178  1.00  0.00     0.196 C 
BRANCH  48  49
ATOM     49  C   UNL     1       1.238  -3.311  -6.367  1.00  0.00     0.072 C 
BRANCH  49  50
ATOM     50  C   UNL     1      -0.182  -3.334  -6.885  1.00  0.00    -0.045 A 
ATOM     51  C   UNL     1      -0.788  -2.145  -7.316  1.00  0.00     0.007 A 
ATOM     52  C   UNL     1      -0.916  -4.526  -6.924  1.00  0.00     0.007 A 
ATOM     53  C   UNL     1      -2.102  -2.152  -7.784  1.00  0.00     0.046 A 
ATOM     54  C   UNL     1      -2.232  -4.533  -7.391  1.00  0.00     0.046 A 
ATOM     55  C   UNL     1      -2.814  -3.345  -7.818  1.00  0.00     0.115 A 
BRANCH  55  56
ATOM     56  O   UNL     1      -4.096  -3.308  -8.281  1.00  0.00    -0.508 OA
ATOM     57  H   UNL     1      -4.250  -4.100  -8.820  1.00  0.00     0.293 HD
ENDBRANCH  55  56
ENDBRANCH  49  50
ENDBRANCH  48  49
BRANCH  48  58
ATOM     58  C   UNL     1       2.566  -1.800  -4.864  1.00  0.00     0.326 C 
ATOM     59  O   UNL     1       3.762  -1.595  -4.732  1.00  0.00    -0.250 OA
BRANCH  58  60
ATOM     60  O   UNL     1       1.797  -1.967  -3.759  1.00  0.00    -0.480 OA
ATOM     61  H   UNL     1       1.157  -1.225  -3.814  1.00  0.00     0.296 HD
ENDBRANCH  58  60
ENDBRANCH  48  58
ENDBRANCH  46  48
ENDBRANCH  34  44
ENDBRANCH  32  34
ENDBRANCH  25  30
ENDBRANCH  23  25
ENDBRANCH   2  23
TORSDOF 28
ENDMDL
MODEL 35
REMARK VINA RESULT:    -6.931      3.263      8.149
REMARK INTER + INTRA:         -22.570
REMARK INTER:                 -18.318
REMARK INTRA:                  -4.252
REMARK UNBOUND:                -5.306
REMARK SMILES CCCCCCC[C@H](N)[C@H](O)C(=O)N[C@H](C)C(=O)N(C)[C@H](CC(C)C)C(=O)N[C@@H](Cc1ccc(O)cc1)C(=O)N[C@@H](Cc1ccc(O)cc1)C(=O)O
REMARK SMILES IDX 18 1 17 2 15 3 16 4 14 5 12 6 13 7 10 9 11 10 8 12 9 13 7 16
REMARK SMILES IDX 6 17 5 18 4 19 3 20 2 21 1 22 19 23 20 24 21 25 22 26 23 27
REMARK SMILES IDX 24 28 25 29 26 30 27 31 28 32 29 34 30 35 31 36 32 37 37 38
REMARK SMILES IDX 33 39 36 40 34 41 35 42 38 44 39 45 40 46 41 48 42 49 43 50
REMARK SMILES IDX 44 51 49 52 45 53 48 54 46 55 47 56 50 58 51 59 52 60
REMARK H PARENT 14 8 11 11 9 14 9 15 28 33 35 43 40 47 47 57 52 61
ROOT
ATOM      1  O   UNL     1      -6.765   0.409   2.605  1.00  0.00    -0.272 OA
ATOM      2  C   UNL     1      -7.576  -0.525   2.701  1.00  0.00     0.245 C 
ENDROOT
BRANCH   2   3
ATOM      3  C   UNL     1      -8.199  -1.101   1.406  1.00  0.00     0.168 C 
ATOM      4  C   UNL     1      -9.019  -0.040   0.681  1.00  0.00     0.041 C 
BRANCH   3   5
ATOM      5  N   UNL     1      -7.257  -1.760   0.515  1.00  0.00    -0.342 N 
ATOM      6  C   UNL     1      -7.363  -3.100   0.205  1.00  0.00     0.251 C 
ATOM      7  O   UNL     1      -8.219  -3.838   0.680  1.00  0.00    -0.272 OA
ATOM      8  H   UNL     1      -6.483  -1.258   0.087  1.00  0.00     0.164 HD
BRANCH   6   9
ATOM      9  C   UNL     1      -6.350  -3.545  -0.862  1.00  0.00     0.219 C 
BRANCH   9  10
ATOM     10  O   UNL     1      -6.563  -2.907  -2.127  1.00  0.00    -0.382 OA
ATOM     11  H   UNL     1      -6.291  -1.977  -1.965  1.00  0.00     0.211 HD
ENDBRANCH   9  10
BRANCH   9  12
ATOM     12  C   UNL     1      -4.876  -3.386  -0.406  1.00  0.00     0.089 C 
BRANCH  12  13
ATOM     13  N   UNL     1      -4.488  -1.965  -0.565  1.00  0.00    -0.325 NA
ATOM     14  H   UNL     1      -3.520  -1.915  -0.886  1.00  0.00     0.119 HD
ATOM     15  H   UNL     1      -4.488  -1.518   0.355  1.00  0.00     0.119 HD
ENDBRANCH  12  13
BRANCH  12  16
ATOM     16  C   UNL     1      -4.554  -3.867   1.029  1.00  0.00     0.022 C 
BRANCH  16  17
ATOM     17  C   UNL     1      -3.121  -3.729   1.560  1.00  0.00     0.002 C 
BRANCH  17  18
ATOM     18  C   UNL     1      -3.010  -3.179   2.980  1.00  0.00     0.000 C 
BRANCH  18  19
ATOM     19  C   UNL     1      -3.914  -1.970   3.255  1.00  0.00    -0.000 C 
BRANCH  19  20
ATOM     20  C   UNL     1      -3.413  -0.641   2.683  1.00  0.00    -0.000 C 
BRANCH  20  21
ATOM     21  C   UNL     1      -3.355   0.477   3.728  1.00  0.00    -0.003 C 
ATOM     22  C   UNL     1      -2.927   1.796   3.105  1.00  0.00     0.004 C 
ENDBRANCH  20  21
ENDBRANCH  19  20
ENDBRANCH  18  19
ENDBRANCH  17  18
ENDBRANCH  16  17
ENDBRANCH  12  16
ENDBRANCH   9  12
ENDBRANCH   6   9
ENDBRANCH   3   5
ENDBRANCH   2   3
BRANCH   2  23
ATOM     23  N   UNL     1      -7.816  -1.113   3.939  1.00  0.00    -0.332 N 
ATOM     24  C   UNL     1      -6.963  -0.955   5.107  1.00  0.00     0.147 C 
BRANCH  23  25
ATOM     25  C   UNL     1      -9.078  -1.865   4.181  1.00  0.00     0.174 C 
BRANCH  25  26
ATOM     26  C   UNL     1      -9.693  -1.577   5.571  1.00  0.00     0.038 C 
BRANCH  26  27
ATOM     27  C   UNL     1     -11.044  -0.829   5.597  1.00  0.00    -0.015 C 
ATOM     28  C   UNL     1     -11.978  -1.270   4.470  1.00  0.00     0.007 C 
ATOM     29  C   UNL     1     -11.756  -0.908   6.945  1.00  0.00     0.007 C 
ENDBRANCH  26  27
ENDBRANCH  25  26
BRANCH  25  30
ATOM     30  C   UNL     1      -8.864  -3.369   3.895  1.00  0.00     0.243 C 
ATOM     31  O   UNL     1      -7.744  -3.878   3.896  1.00  0.00    -0.273 OA
ATOM     32  N   UNL     1     -10.000  -4.091   3.634  1.00  0.00    -0.342 N 
ATOM     33  H   UNL     1     -10.900  -3.630   3.791  1.00  0.00     0.164 HD
BRANCH  32  34
ATOM     34  C   UNL     1      -9.986  -5.521   3.316  1.00  0.00     0.175 C 
BRANCH  34  35
ATOM     35  C   UNL     1     -10.739  -6.337   4.378  1.00  0.00     0.070 C 
BRANCH  35  36
ATOM     36  C   UNL     1     -10.654  -5.722   5.757  1.00  0.00    -0.045 A 
ATOM     37  C   UNL     1     -11.689  -4.897   6.222  1.00  0.00     0.007 A 
ATOM     38  C   UNL     1      -9.540  -5.946   6.576  1.00  0.00     0.007 A 
ATOM     39  C   UNL     1     -11.613  -4.314   7.487  1.00  0.00     0.046 A 
ATOM     40  C   UNL     1      -9.463  -5.362   7.843  1.00  0.00     0.046 A 
ATOM     41  C   UNL     1     -10.502  -4.551   8.287  1.00  0.00     0.115 A 
BRANCH  41  42
ATOM     42  O   UNL     1     -10.465  -3.960   9.516  1.00  0.00    -0.508 OA
ATOM     43  H   UNL     1     -10.036  -4.572  10.136  1.00  0.00     0.293 HD
ENDBRANCH  41  42
ENDBRANCH  35  36
ENDBRANCH  34  35
BRANCH  34  44
ATOM     44  C   UNL     1     -10.597  -5.704   1.908  1.00  0.00     0.243 C 
ATOM     45  O   UNL     1     -11.671  -5.228   1.550  1.00  0.00    -0.273 OA
ATOM     46  N   UNL     1      -9.882  -6.571   1.109  1.00  0.00    -0.341 N 
ATOM     47  H   UNL     1      -9.060  -7.032   1.491  1.00  0.00     0.164 HD
BRANCH  46  48
ATOM     48  C   UNL     1     -10.302  -6.953  -0.242  1.00  0.00     0.196 C 
BRANCH  48  49
ATOM     49  C   UNL     1      -9.090  -7.194  -1.157  1.00  0.00     0.072 C 
BRANCH  49  50
ATOM     50  C   UNL     1      -7.834  -7.527  -0.384  1.00  0.00    -0.045 A 
ATOM     51  C   UNL     1      -7.869  -8.507   0.618  1.00  0.00     0.007 A 
ATOM     52  C   UNL     1      -6.632  -6.854  -0.638  1.00  0.00     0.007 A 
ATOM     53  C   UNL     1      -6.720  -8.814   1.347  1.00  0.00     0.046 A 
ATOM     54  C   UNL     1      -5.481  -7.160   0.093  1.00  0.00     0.046 A 
ATOM     55  C   UNL     1      -5.535  -8.139   1.079  1.00  0.00     0.115 A 
BRANCH  55  56
ATOM     56  O   UNL     1      -4.435  -8.466   1.815  1.00  0.00    -0.508 OA
ATOM     57  H   UNL     1      -3.682  -8.568   1.211  1.00  0.00     0.293 HD
ENDBRANCH  55  56
ENDBRANCH  49  50
ENDBRANCH  48  49
BRANCH  48  58
ATOM     58  C   UNL     1     -11.147  -8.231  -0.159  1.00  0.00     0.326 C 
ATOM     59  O   UNL     1     -11.972  -8.518   0.693  1.00  0.00    -0.250 OA
BRANCH  58  60
ATOM     60  O   UNL     1     -10.920  -9.097  -1.179  1.00  0.00    -0.480 OA
ATOM     61  H   UNL     1     -10.247  -8.634  -1.723  1.00  0.00     0.296 HD
ENDBRANCH  58  60
ENDBRANCH  48  58
ENDBRANCH  46  48
ENDBRANCH  34  44
ENDBRANCH  32  34
ENDBRANCH  25  30
ENDBRANCH  23  25
ENDBRANCH   2  23
TORSDOF 28
ENDMDL
MODEL 36
REMARK VINA RESULT:    -6.926      2.947      9.718
REMARK INTER + INTRA:         -22.558
REMARK INTER:                 -18.997
REMARK INTRA:                  -3.561
REMARK UNBOUND:                -5.306
REMARK SMILES CCCCCCC[C@H](N)[C@H](O)C(=O)N[C@H](C)C(=O)N(C)[C@H](CC(C)C)C(=O)N[C@@H](Cc1ccc(O)cc1)C(=O)N[C@@H](Cc1ccc(O)cc1)C(=O)O
REMARK SMILES IDX 18 1 17 2 15 3 16 4 14 5 12 6 13 7 10 9 11 10 8 12 9 13 7 16
REMARK SMILES IDX 6 17 5 18 4 19 3 20 2 21 1 22 19 23 20 24 21 25 22 26 23 27
REMARK SMILES IDX 24 28 25 29 26 30 27 31 28 32 29 34 30 35 31 36 32 37 37 38
REMARK SMILES IDX 33 39 36 40 34 41 35 42 38 44 39 45 40 46 41 48 42 49 43 50
REMARK SMILES IDX 44 51 49 52 45 53 48 54 46 55 47 56 50 58 51 59 52 60
REMARK H PARENT 14 8 11 11 9 14 9 15 28 33 35 43 40 47 47 57 52 61
ROOT
ATOM      1  O   UNL     1      -6.319  -4.540   3.441  1.00  0.00    -0.272 OA
ATOM      2  C   UNL     1      -6.896  -3.588   2.894  1.00  0.00     0.245 C 
ENDROOT
BRANCH   2   3
ATOM      3  C   UNL     1      -8.369  -3.296   3.274  1.00  0.00     0.168 C 
ATOM      4  C   UNL     1      -9.310  -4.288   2.599  1.00  0.00     0.041 C 
BRANCH   3   5
ATOM      5  N   UNL     1      -8.622  -3.195   4.703  1.00  0.00    -0.342 N 
ATOM      6  C   UNL     1      -9.842  -2.785   5.199  1.00  0.00     0.251 C 
ATOM      7  O   UNL     1     -10.779  -2.440   4.488  1.00  0.00    -0.272 OA
ATOM      8  H   UNL     1      -7.908  -3.422   5.392  1.00  0.00     0.164 HD
BRANCH   6   9
ATOM      9  C   UNL     1      -9.927  -2.891   6.730  1.00  0.00     0.219 C 
BRANCH   9  10
ATOM     10  O   UNL     1     -10.508  -1.729   7.333  1.00  0.00    -0.382 OA
ATOM     11  H   UNL     1     -11.390  -1.663   6.905  1.00  0.00     0.211 HD
ENDBRANCH   9  10
BRANCH   9  12
ATOM     12  C   UNL     1     -10.644  -4.179   7.213  1.00  0.00     0.089 C 
BRANCH  12  13
ATOM     13  N   UNL     1     -11.937  -4.289   6.500  1.00  0.00    -0.325 NA
ATOM     14  H   UNL     1     -11.838  -4.944   5.722  1.00  0.00     0.119 HD
ATOM     15  H   UNL     1     -12.153  -3.389   6.065  1.00  0.00     0.119 HD
ENDBRANCH  12  13
BRANCH  12  16
ATOM     16  C   UNL     1      -9.844  -5.496   7.067  1.00  0.00     0.022 C 
BRANCH  16  17
ATOM     17  C   UNL     1     -10.604  -6.826   6.975  1.00  0.00     0.002 C 
BRANCH  17  18
ATOM     18  C   UNL     1     -10.151  -7.751   5.848  1.00  0.00     0.000 C 
BRANCH  18  19
ATOM     19  C   UNL     1      -8.661  -8.113   5.898  1.00  0.00    -0.000 C 
BRANCH  19  20
ATOM     20  C   UNL     1      -7.804  -7.493   4.790  1.00  0.00    -0.000 C 
BRANCH  20  21
ATOM     21  C   UNL     1      -7.771  -8.339   3.514  1.00  0.00    -0.003 C 
ATOM     22  C   UNL     1      -8.706  -7.778   2.453  1.00  0.00     0.004 C 
ENDBRANCH  20  21
ENDBRANCH  19  20
ENDBRANCH  18  19
ENDBRANCH  17  18
ENDBRANCH  16  17
ENDBRANCH  12  16
ENDBRANCH   9  12
ENDBRANCH   6   9
ENDBRANCH   3   5
ENDBRANCH   2   3
BRANCH   2  23
ATOM     23  N   UNL     1      -6.188  -2.736   2.053  1.00  0.00    -0.332 N 
ATOM     24  C   UNL     1      -6.792  -1.706   1.222  1.00  0.00     0.147 C 
BRANCH  23  25
ATOM     25  C   UNL     1      -4.699  -2.750   2.051  1.00  0.00     0.174 C 
BRANCH  25  26
ATOM     26  C   UNL     1      -4.085  -1.339   1.897  1.00  0.00     0.038 C 
BRANCH  26  27
ATOM     27  C   UNL     1      -3.517  -0.679   3.174  1.00  0.00    -0.015 C 
ATOM     28  C   UNL     1      -2.803   0.640   2.882  1.00  0.00     0.007 C 
ATOM     29  C   UNL     1      -4.557  -0.495   4.276  1.00  0.00     0.007 C 
ENDBRANCH  26  27
ENDBRANCH  25  26
BRANCH  25  30
ATOM     30  C   UNL     1      -4.177  -3.771   1.014  1.00  0.00     0.243 C 
ATOM     31  O   UNL     1      -3.353  -4.634   1.311  1.00  0.00    -0.273 OA
ATOM     32  N   UNL     1      -4.689  -3.646  -0.252  1.00  0.00    -0.342 N 
ATOM     33  H   UNL     1      -5.471  -2.999  -0.385  1.00  0.00     0.164 HD
BRANCH  32  34
ATOM     34  C   UNL     1      -4.289  -4.508  -1.367  1.00  0.00     0.175 C 
BRANCH  34  35
ATOM     35  C   UNL     1      -5.468  -5.358  -1.866  1.00  0.00     0.070 C 
BRANCH  35  36
ATOM     36  C   UNL     1      -5.395  -6.793  -1.394  1.00  0.00    -0.045 A 
ATOM     37  C   UNL     1      -4.861  -7.782  -2.234  1.00  0.00     0.007 A 
ATOM     38  C   UNL     1      -5.877  -7.159  -0.130  1.00  0.00     0.007 A 
ATOM     39  C   UNL     1      -4.803  -9.111  -1.812  1.00  0.00     0.046 A 
ATOM     40  C   UNL     1      -5.820  -8.489   0.292  1.00  0.00     0.046 A 
ATOM     41  C   UNL     1      -5.282  -9.454  -0.553  1.00  0.00     0.115 A 
BRANCH  41  42
ATOM     42  O   UNL     1      -5.209 -10.763  -0.181  1.00  0.00    -0.508 OA
ATOM     43  H   UNL     1      -4.914 -10.801   0.744  1.00  0.00     0.293 HD
ENDBRANCH  41  42
ENDBRANCH  35  36
ENDBRANCH  34  35
BRANCH  34  44
ATOM     44  C   UNL     1      -3.712  -3.610  -2.484  1.00  0.00     0.243 C 
ATOM     45  O   UNL     1      -3.702  -2.382  -2.451  1.00  0.00    -0.273 OA
ATOM     46  N   UNL     1      -3.316  -4.311  -3.603  1.00  0.00    -0.341 N 
ATOM     47  H   UNL     1      -3.452  -5.319  -3.628  1.00  0.00     0.164 HD
BRANCH  46  48
ATOM     48  C   UNL     1      -2.800  -3.671  -4.815  1.00  0.00     0.196 C 
BRANCH  48  49
ATOM     49  C   UNL     1      -1.714  -4.530  -5.484  1.00  0.00     0.072 C 
BRANCH  49  50
ATOM     50  C   UNL     1      -1.820  -5.993  -5.114  1.00  0.00    -0.045 A 
ATOM     51  C   UNL     1      -2.778  -6.804  -5.739  1.00  0.00     0.007 A 
ATOM     52  C   UNL     1      -0.987  -6.551  -4.136  1.00  0.00     0.007 A 
ATOM     53  C   UNL     1      -2.894  -8.152  -5.396  1.00  0.00     0.046 A 
ATOM     54  C   UNL     1      -1.103  -7.900  -3.792  1.00  0.00     0.046 A 
ATOM     55  C   UNL     1      -2.056  -8.689  -4.427  1.00  0.00     0.115 A 
BRANCH  55  56
ATOM     56  O   UNL     1      -2.203 -10.009  -4.119  1.00  0.00    -0.508 OA
ATOM     57  H   UNL     1      -3.146 -10.189  -3.982  1.00  0.00     0.293 HD
ENDBRANCH  55  56
ENDBRANCH  49  50
ENDBRANCH  48  49
BRANCH  48  58
ATOM     58  C   UNL     1      -3.960  -3.451  -5.796  1.00  0.00     0.326 C 
ATOM     59  O   UNL     1      -3.915  -2.894  -6.881  1.00  0.00    -0.250 OA
BRANCH  58  60
ATOM     60  O   UNL     1      -5.139  -3.965  -5.364  1.00  0.00    -0.480 OA
ATOM     61  H   UNL     1      -4.958  -4.928  -5.306  1.00  0.00     0.296 HD
ENDBRANCH  58  60
ENDBRANCH  48  58
ENDBRANCH  46  48
ENDBRANCH  34  44
ENDBRANCH  32  34
ENDBRANCH  25  30
ENDBRANCH  23  25
ENDBRANCH   2  23
TORSDOF 28
ENDMDL
MODEL 37
REMARK VINA RESULT:    -6.923     14.119     18.952
REMARK INTER + INTRA:         -22.549
REMARK INTER:                 -17.452
REMARK INTRA:                  -5.097
REMARK UNBOUND:                -5.306
REMARK SMILES CCCCCCC[C@H](N)[C@H](O)C(=O)N[C@H](C)C(=O)N(C)[C@H](CC(C)C)C(=O)N[C@@H](Cc1ccc(O)cc1)C(=O)N[C@@H](Cc1ccc(O)cc1)C(=O)O
REMARK SMILES IDX 18 1 17 2 15 3 16 4 14 5 12 6 13 7 10 9 11 10 8 12 9 13 7 16
REMARK SMILES IDX 6 17 5 18 4 19 3 20 2 21 1 22 19 23 20 24 21 25 22 26 23 27
REMARK SMILES IDX 24 28 25 29 26 30 27 31 28 32 29 34 30 35 31 36 32 37 37 38
REMARK SMILES IDX 33 39 36 40 34 41 35 42 38 44 39 45 40 46 41 48 42 49 43 50
REMARK SMILES IDX 44 51 49 52 45 53 48 54 46 55 47 56 50 58 51 59 52 60
REMARK H PARENT 14 8 11 11 9 14 9 15 28 33 35 43 40 47 47 57 52 61
ROOT
ATOM      1  O   UNL     1       6.557 -11.186 -12.515  1.00  0.00    -0.272 OA
ATOM      2  C   UNL     1       5.318 -11.207 -12.463  1.00  0.00     0.245 C 
ENDROOT
BRANCH   2   3
ATOM      3  C   UNL     1       4.561 -12.300 -13.258  1.00  0.00     0.168 C 
ATOM      4  C   UNL     1       4.908 -12.230 -14.741  1.00  0.00     0.041 C 
BRANCH   3   5
ATOM      5  N   UNL     1       4.704 -13.648 -12.731  1.00  0.00    -0.342 N 
ATOM      6  C   UNL     1       3.618 -14.381 -12.301  1.00  0.00     0.251 C 
ATOM      7  O   UNL     1       2.471 -13.947 -12.289  1.00  0.00    -0.272 OA
ATOM      8  H   UNL     1       5.611 -14.102 -12.659  1.00  0.00     0.164 HD
BRANCH   6   9
ATOM      9  C   UNL     1       3.987 -15.824 -11.921  1.00  0.00     0.219 C 
BRANCH   9  10
ATOM     10  O   UNL     1       4.629 -16.530 -12.990  1.00  0.00    -0.382 OA
ATOM     11  H   UNL     1       5.384 -16.979 -12.550  1.00  0.00     0.211 HD
ENDBRANCH   9  10
BRANCH   9  12
ATOM     12  C   UNL     1       4.825 -15.915 -10.619  1.00  0.00     0.089 C 
BRANCH  12  13
ATOM     13  N   UNL     1       6.229 -15.572 -10.942  1.00  0.00    -0.325 NA
ATOM     14  H   UNL     1       6.287 -14.579 -11.177  1.00  0.00     0.119 HD
ATOM     15  H   UNL     1       6.502 -16.064 -11.796  1.00  0.00     0.119 HD
ENDBRANCH  12  13
BRANCH  12  16
ATOM     16  C   UNL     1       4.328 -15.058  -9.431  1.00  0.00     0.022 C 
BRANCH  16  17
ATOM     17  C   UNL     1       3.525 -15.730  -8.309  1.00  0.00     0.002 C 
BRANCH  17  18
ATOM     18  C   UNL     1       2.071 -15.278  -8.197  1.00  0.00     0.000 C 
BRANCH  18  19
ATOM     19  C   UNL     1       1.198 -15.681  -9.394  1.00  0.00    -0.000 C 
BRANCH  19  20
ATOM     20  C   UNL     1      -0.159 -14.977  -9.475  1.00  0.00    -0.000 C 
BRANCH  20  21
ATOM     21  C   UNL     1      -1.023 -15.195  -8.231  1.00  0.00    -0.003 C 
ATOM     22  C   UNL     1      -1.276 -13.888  -7.495  1.00  0.00     0.004 C 
ENDBRANCH  20  21
ENDBRANCH  19  20
ENDBRANCH  18  19
ENDBRANCH  17  18
ENDBRANCH  16  17
ENDBRANCH  12  16
ENDBRANCH   9  12
ENDBRANCH   6   9
ENDBRANCH   3   5
ENDBRANCH   2   3
BRANCH   2  23
ATOM     23  N   UNL     1       4.643 -10.341 -11.609  1.00  0.00    -0.332 N 
ATOM     24  C   UNL     1       3.581  -9.435 -12.022  1.00  0.00     0.147 C 
BRANCH  23  25
ATOM     25  C   UNL     1       4.895 -10.385 -10.142  1.00  0.00     0.174 C 
BRANCH  25  26
ATOM     26  C   UNL     1       3.600 -10.259  -9.305  1.00  0.00     0.038 C 
BRANCH  26  27
ATOM     27  C   UNL     1       2.818 -11.562  -9.026  1.00  0.00    -0.015 C 
ATOM     28  C   UNL     1       2.512 -11.753  -7.540  1.00  0.00     0.007 C 
ATOM     29  C   UNL     1       1.546 -11.697  -9.858  1.00  0.00     0.007 C 
ENDBRANCH  26  27
ENDBRANCH  25  26
BRANCH  25  30
ATOM     30  C   UNL     1       5.985  -9.358  -9.759  1.00  0.00     0.243 C 
ATOM     31  O   UNL     1       5.704  -8.258  -9.285  1.00  0.00    -0.273 OA
ATOM     32  N   UNL     1       7.278  -9.753  -9.987  1.00  0.00    -0.342 N 
ATOM     33  H   UNL     1       7.436 -10.730 -10.248  1.00  0.00     0.164 HD
BRANCH  32  34
ATOM     34  C   UNL     1       8.438  -8.901  -9.710  1.00  0.00     0.175 C 
BRANCH  34  35
ATOM     35  C   UNL     1       8.746  -8.849  -8.206  1.00  0.00     0.070 C 
BRANCH  35  36
ATOM     36  C   UNL     1       8.792  -7.438  -7.666  1.00  0.00    -0.045 A 
ATOM     37  C   UNL     1       9.508  -6.446  -8.354  1.00  0.00     0.007 A 
ATOM     38  C   UNL     1       8.146  -7.105  -6.468  1.00  0.00     0.007 A 
ATOM     39  C   UNL     1       9.568  -5.144  -7.856  1.00  0.00     0.046 A 
ATOM     40  C   UNL     1       8.206  -5.801  -5.969  1.00  0.00     0.046 A 
ATOM     41  C   UNL     1       8.917  -4.832  -6.669  1.00  0.00     0.115 A 
BRANCH  41  42
ATOM     42  O   UNL     1       9.002  -3.549  -6.216  1.00  0.00    -0.508 OA
ATOM     43  H   UNL     1       8.984  -3.567  -5.244  1.00  0.00     0.293 HD
ENDBRANCH  41  42
ENDBRANCH  35  36
ENDBRANCH  34  35
BRANCH  34  44
ATOM     44  C   UNL     1       9.634  -9.439 -10.527  1.00  0.00     0.243 C 
ATOM     45  O   UNL     1      10.749  -9.657 -10.062  1.00  0.00    -0.273 OA
ATOM     46  N   UNL     1       9.377  -9.534 -11.878  1.00  0.00    -0.341 N 
ATOM     47  H   UNL     1       8.473  -9.231 -12.232  1.00  0.00     0.164 HD
BRANCH  46  48
ATOM     48  C   UNL     1      10.378  -9.955 -12.861  1.00  0.00     0.196 C 
BRANCH  48  49
ATOM     49  C   UNL     1       9.847 -11.093 -13.749  1.00  0.00     0.072 C 
BRANCH  49  50
ATOM     50  C   UNL     1      10.194 -12.462 -13.208  1.00  0.00    -0.045 A 
ATOM     51  C   UNL     1       9.458 -13.000 -12.142  1.00  0.00     0.007 A 
ATOM     52  C   UNL     1      11.258 -13.200 -13.743  1.00  0.00     0.007 A 
ATOM     53  C   UNL     1       9.777 -14.256 -11.627  1.00  0.00     0.046 A 
ATOM     54  C   UNL     1      11.578 -14.457 -13.226  1.00  0.00     0.046 A 
ATOM     55  C   UNL     1      10.834 -14.975 -12.172  1.00  0.00     0.115 A 
BRANCH  55  56
ATOM     56  O   UNL     1      11.114 -16.198 -11.638  1.00  0.00    -0.508 OA
ATOM     57  H   UNL     1      11.879 -16.106 -11.048  1.00  0.00     0.293 HD
ENDBRANCH  55  56
ENDBRANCH  49  50
ENDBRANCH  48  49
BRANCH  48  58
ATOM     58  C   UNL     1      10.754  -8.752 -13.737  1.00  0.00     0.326 C 
ATOM     59  O   UNL     1      10.795  -7.579 -13.403  1.00  0.00    -0.250 OA
BRANCH  58  60
ATOM     60  O   UNL     1      11.079  -9.089 -15.010  1.00  0.00    -0.480 OA
ATOM     61  H   UNL     1      11.100 -10.071 -14.985  1.00  0.00     0.296 HD
ENDBRANCH  58  60
ENDBRANCH  48  58
ENDBRANCH  46  48
ENDBRANCH  34  44
ENDBRANCH  32  34
ENDBRANCH  25  30
ENDBRANCH  23  25
ENDBRANCH   2  23
TORSDOF 28
ENDMDL
MODEL 38
REMARK VINA RESULT:    -6.893      8.068     11.826
REMARK INTER + INTRA:         -22.475
REMARK INTER:                 -18.171
REMARK INTRA:                  -4.304
REMARK UNBOUND:                -5.306
REMARK SMILES CCCCCCC[C@H](N)[C@H](O)C(=O)N[C@H](C)C(=O)N(C)[C@H](CC(C)C)C(=O)N[C@@H](Cc1ccc(O)cc1)C(=O)N[C@@H](Cc1ccc(O)cc1)C(=O)O
REMARK SMILES IDX 18 1 17 2 15 3 16 4 14 5 12 6 13 7 10 9 11 10 8 12 9 13 7 16
REMARK SMILES IDX 6 17 5 18 4 19 3 20 2 21 1 22 19 23 20 24 21 25 22 26 23 27
REMARK SMILES IDX 24 28 25 29 26 30 27 31 28 32 29 34 30 35 31 36 32 37 37 38
REMARK SMILES IDX 33 39 36 40 34 41 35 42 38 44 39 45 40 46 41 48 42 49 43 50
REMARK SMILES IDX 44 51 49 52 45 53 48 54 46 55 47 56 50 58 51 59 52 60
REMARK H PARENT 14 8 11 11 9 14 9 15 28 33 35 43 40 47 47 57 52 61
ROOT
ATOM      1  O   UNL     1       3.159  -9.459 -11.006  1.00  0.00    -0.272 OA
ATOM      2  C   UNL     1       2.036  -9.093 -10.629  1.00  0.00     0.245 C 
ENDROOT
BRANCH   2   3
ATOM      3  C   UNL     1       0.810  -9.966 -10.994  1.00  0.00     0.168 C 
ATOM      4  C   UNL     1       1.148 -10.926 -12.129  1.00  0.00     0.041 C 
BRANCH   3   5
ATOM      5  N   UNL     1       0.192 -10.652  -9.870  1.00  0.00    -0.342 N 
ATOM      6  C   UNL     1      -1.045 -11.253  -9.974  1.00  0.00     0.251 C 
ATOM      7  O   UNL     1      -1.728 -11.221 -10.992  1.00  0.00    -0.272 OA
ATOM      8  H   UNL     1       0.649 -10.714  -8.963  1.00  0.00     0.164 HD
BRANCH   6   9
ATOM      9  C   UNL     1      -1.434 -12.036  -8.710  1.00  0.00     0.219 C 
BRANCH   9  10
ATOM     10  O   UNL     1      -2.844 -12.012  -8.457  1.00  0.00    -0.382 OA
ATOM     11  H   UNL     1      -3.236 -11.883  -9.349  1.00  0.00     0.211 HD
ENDBRANCH   9  10
BRANCH   9  12
ATOM     12  C   UNL     1      -0.898 -13.492  -8.707  1.00  0.00     0.089 C 
BRANCH  12  13
ATOM     13  N   UNL     1      -0.472 -13.836 -10.083  1.00  0.00    -0.325 NA
ATOM     14  H   UNL     1      -1.108 -13.398 -10.752  1.00  0.00     0.119 HD
ATOM     15  H   UNL     1      -0.588 -14.842 -10.224  1.00  0.00     0.119 HD
ENDBRANCH  12  13
BRANCH  12  16
ATOM     16  C   UNL     1       0.243 -13.793  -7.706  1.00  0.00     0.022 C 
BRANCH  16  17
ATOM     17  C   UNL     1       1.675 -13.366  -8.056  1.00  0.00     0.002 C 
BRANCH  17  18
ATOM     18  C   UNL     1       2.773 -14.252  -7.471  1.00  0.00     0.000 C 
BRANCH  18  19
ATOM     19  C   UNL     1       2.667 -15.728  -7.877  1.00  0.00    -0.000 C 
BRANCH  19  20
ATOM     20  C   UNL     1       2.791 -16.000  -9.379  1.00  0.00    -0.000 C 
BRANCH  20  21
ATOM     21  C   UNL     1       3.995 -16.877  -9.733  1.00  0.00    -0.003 C 
ATOM     22  C   UNL     1       5.118 -16.056 -10.347  1.00  0.00     0.004 C 
ENDBRANCH  20  21
ENDBRANCH  19  20
ENDBRANCH  18  19
ENDBRANCH  17  18
ENDBRANCH  16  17
ENDBRANCH  12  16
ENDBRANCH   9  12
ENDBRANCH   6   9
ENDBRANCH   3   5
ENDBRANCH   2   3
BRANCH   2  23
ATOM     23  N   UNL     1       1.909  -7.988  -9.793  1.00  0.00    -0.332 N 
ATOM     24  C   UNL     1       1.539  -6.653 -10.239  1.00  0.00     0.147 C 
BRANCH  23  25
ATOM     25  C   UNL     1       2.028  -8.146  -8.317  1.00  0.00     0.174 C 
BRANCH  25  26
ATOM     26  C   UNL     1       2.659  -9.496  -7.905  1.00  0.00     0.038 C 
BRANCH  26  27
ATOM     27  C   UNL     1       4.152  -9.480  -7.510  1.00  0.00    -0.015 C 
ATOM     28  C   UNL     1       4.953 -10.580  -8.206  1.00  0.00     0.007 C 
ATOM     29  C   UNL     1       4.819  -8.121  -7.710  1.00  0.00     0.007 C 
ENDBRANCH  26  27
ENDBRANCH  25  26
BRANCH  25  30
ATOM     30  C   UNL     1       0.667  -7.863  -7.641  1.00  0.00     0.243 C 
ATOM     31  O   UNL     1      -0.331  -8.541  -7.879  1.00  0.00    -0.273 OA
ATOM     32  N   UNL     1       0.647  -6.806  -6.767  1.00  0.00    -0.342 N 
ATOM     33  H   UNL     1       1.544  -6.383  -6.515  1.00  0.00     0.164 HD
BRANCH  32  34
ATOM     34  C   UNL     1      -0.560  -6.376  -6.056  1.00  0.00     0.175 C 
BRANCH  34  35
ATOM     35  C   UNL     1      -0.673  -7.058  -4.684  1.00  0.00     0.070 C 
BRANCH  35  36
ATOM     36  C   UNL     1      -1.839  -8.018  -4.602  1.00  0.00    -0.045 A 
ATOM     37  C   UNL     1      -2.764  -8.089  -5.655  1.00  0.00     0.007 A 
ATOM     38  C   UNL     1      -2.026  -8.828  -3.474  1.00  0.00     0.007 A 
ATOM     39  C   UNL     1      -3.851  -8.961  -5.582  1.00  0.00     0.046 A 
ATOM     40  C   UNL     1      -3.114  -9.700  -3.401  1.00  0.00     0.046 A 
ATOM     41  C   UNL     1      -4.017  -9.760  -4.457  1.00  0.00     0.115 A 
BRANCH  41  42
ATOM     42  O   UNL     1      -5.093 -10.596  -4.425  1.00  0.00    -0.508 OA
ATOM     43  H   UNL     1      -5.131 -11.077  -5.268  1.00  0.00     0.293 HD
ENDBRANCH  41  42
ENDBRANCH  35  36
ENDBRANCH  34  35
BRANCH  34  44
ATOM     44  C   UNL     1      -0.520  -4.836  -5.934  1.00  0.00     0.243 C 
ATOM     45  O   UNL     1      -0.743  -4.217  -4.897  1.00  0.00    -0.273 OA
ATOM     46  N   UNL     1      -0.337  -4.195  -7.140  1.00  0.00    -0.341 N 
ATOM     47  H   UNL     1      -0.274  -4.750  -7.990  1.00  0.00     0.164 HD
BRANCH  46  48
ATOM     48  C   UNL     1      -0.333  -2.737  -7.285  1.00  0.00     0.196 C 
BRANCH  48  49
ATOM     49  C   UNL     1       1.018  -2.232  -7.820  1.00  0.00     0.072 C 
BRANCH  49  50
ATOM     50  C   UNL     1       2.105  -2.254  -6.770  1.00  0.00    -0.045 A 
ATOM     51  C   UNL     1       3.416  -2.601  -7.127  1.00  0.00     0.007 A 
ATOM     52  C   UNL     1       1.820  -1.953  -5.432  1.00  0.00     0.007 A 
ATOM     53  C   UNL     1       4.424  -2.638  -6.164  1.00  0.00     0.046 A 
ATOM     54  C   UNL     1       2.830  -1.991  -4.467  1.00  0.00     0.046 A 
ATOM     55  C   UNL     1       4.125  -2.332  -4.843  1.00  0.00     0.115 A 
BRANCH  55  56
ATOM     56  O   UNL     1       5.138  -2.382  -3.932  1.00  0.00    -0.508 OA
ATOM     57  H   UNL     1       4.763  -2.624  -3.070  1.00  0.00     0.293 HD
ENDBRANCH  55  56
ENDBRANCH  49  50
ENDBRANCH  48  49
BRANCH  48  58
ATOM     58  C   UNL     1      -1.454  -2.328  -8.250  1.00  0.00     0.326 C 
ATOM     59  O   UNL     1      -2.651  -2.287  -8.017  1.00  0.00    -0.250 OA
BRANCH  58  60
ATOM     60  O   UNL     1      -1.006  -1.970  -9.480  1.00  0.00    -0.480 OA
ATOM     61  H   UNL     1      -0.285  -1.335  -9.282  1.00  0.00     0.296 HD
ENDBRANCH  58  60
ENDBRANCH  48  58
ENDBRANCH  46  48
ENDBRANCH  34  44
ENDBRANCH  32  34
ENDBRANCH  25  30
ENDBRANCH  23  25
ENDBRANCH   2  23
TORSDOF 28
ENDMDL
MODEL 39
REMARK VINA RESULT:    -6.861      3.812      8.689
REMARK INTER + INTRA:         -22.394
REMARK INTER:                 -18.953
REMARK INTRA:                  -3.441
REMARK UNBOUND:                -5.306
REMARK SMILES CCCCCCC[C@H](N)[C@H](O)C(=O)N[C@H](C)C(=O)N(C)[C@H](CC(C)C)C(=O)N[C@@H](Cc1ccc(O)cc1)C(=O)N[C@@H](Cc1ccc(O)cc1)C(=O)O
REMARK SMILES IDX 18 1 17 2 15 3 16 4 14 5 12 6 13 7 10 9 11 10 8 12 9 13 7 16
REMARK SMILES IDX 6 17 5 18 4 19 3 20 2 21 1 22 19 23 20 24 21 25 22 26 23 27
REMARK SMILES IDX 24 28 25 29 26 30 27 31 28 32 29 34 30 35 31 36 32 37 37 38
REMARK SMILES IDX 33 39 36 40 34 41 35 42 38 44 39 45 40 46 41 48 42 49 43 50
REMARK SMILES IDX 44 51 49 52 45 53 48 54 46 55 47 56 50 58 51 59 52 60
REMARK H PARENT 14 8 11 11 9 14 9 15 28 33 35 43 40 47 47 57 52 61
ROOT
ATOM      1  O   UNL     1      -7.971   0.306   3.516  1.00  0.00    -0.272 OA
ATOM      2  C   UNL     1      -8.104  -0.926   3.574  1.00  0.00     0.245 C 
ENDROOT
BRANCH   2   3
ATOM      3  C   UNL     1      -7.663  -1.777   2.358  1.00  0.00     0.168 C 
ATOM      4  C   UNL     1      -8.829  -2.000   1.402  1.00  0.00     0.041 C 
BRANCH   3   5
ATOM      5  N   UNL     1      -6.481  -1.288   1.666  1.00  0.00    -0.342 N 
ATOM      6  C   UNL     1      -5.228  -1.340   2.239  1.00  0.00     0.251 C 
ATOM      7  O   UNL     1      -5.020  -1.757   3.373  1.00  0.00    -0.272 OA
ATOM      8  H   UNL     1      -6.533  -0.888   0.732  1.00  0.00     0.164 HD
BRANCH   6   9
ATOM      9  C   UNL     1      -4.114  -0.902   1.274  1.00  0.00     0.219 C 
BRANCH   9  10
ATOM     10  O   UNL     1      -4.149  -1.613   0.031  1.00  0.00    -0.382 OA
ATOM     11  H   UNL     1      -4.233  -2.553   0.304  1.00  0.00     0.211 HD
ENDBRANCH   9  10
BRANCH   9  12
ATOM     12  C   UNL     1      -4.085   0.629   1.032  1.00  0.00     0.089 C 
BRANCH  12  13
ATOM     13  N   UNL     1      -5.115   1.258   1.891  1.00  0.00    -0.325 NA
ATOM     14  H   UNL     1      -4.832   1.176   2.869  1.00  0.00     0.119 HD
ATOM     15  H   UNL     1      -5.981   0.718   1.817  1.00  0.00     0.119 HD
ENDBRANCH  12  13
BRANCH  12  16
ATOM     16  C   UNL     1      -2.719   1.324   1.246  1.00  0.00     0.022 C 
BRANCH  16  17
ATOM     17  C   UNL     1      -2.618   2.480   2.250  1.00  0.00     0.002 C 
BRANCH  17  18
ATOM     18  C   UNL     1      -2.615   2.061   3.719  1.00  0.00     0.000 C 
BRANCH  18  19
ATOM     19  C   UNL     1      -3.367   3.025   4.646  1.00  0.00    -0.000 C 
BRANCH  19  20
ATOM     20  C   UNL     1      -4.131   2.360   5.794  1.00  0.00    -0.000 C 
BRANCH  20  21
ATOM     21  C   UNL     1      -5.066   1.243   5.324  1.00  0.00    -0.003 C 
ATOM     22  C   UNL     1      -5.233   0.173   6.392  1.00  0.00     0.004 C 
ENDBRANCH  20  21
ENDBRANCH  19  20
ENDBRANCH  18  19
ENDBRANCH  17  18
ENDBRANCH  16  17
ENDBRANCH  12  16
ENDBRANCH   9  12
ENDBRANCH   6   9
ENDBRANCH   3   5
ENDBRANCH   2   3
BRANCH   2  23
ATOM     23  N   UNL     1      -8.524  -1.525   4.757  1.00  0.00    -0.332 N 
ATOM     24  C   UNL     1      -7.890  -1.329   6.053  1.00  0.00     0.147 C 
BRANCH  23  25
ATOM     25  C   UNL     1      -9.773  -2.334   4.787  1.00  0.00     0.174 C 
BRANCH  25  26
ATOM     26  C   UNL     1     -10.560  -2.179   6.109  1.00  0.00     0.038 C 
BRANCH  26  27
ATOM     27  C   UNL     1     -11.968  -1.551   6.017  1.00  0.00    -0.015 C 
ATOM     28  C   UNL     1     -12.205  -0.485   7.086  1.00  0.00     0.007 C 
ATOM     29  C   UNL     1     -12.299  -1.004   4.631  1.00  0.00     0.007 C 
ENDBRANCH  26  27
ENDBRANCH  25  26
BRANCH  25  30
ATOM     30  C   UNL     1      -9.465  -3.803   4.415  1.00  0.00     0.243 C 
ATOM     31  O   UNL     1      -8.407  -4.345   4.732  1.00  0.00    -0.273 OA
ATOM     32  N   UNL     1     -10.442  -4.454   3.708  1.00  0.00    -0.342 N 
ATOM     33  H   UNL     1     -11.346  -3.984   3.607  1.00  0.00     0.164 HD
BRANCH  32  34
ATOM     34  C   UNL     1     -10.311  -5.839   3.248  1.00  0.00     0.175 C 
BRANCH  34  35
ATOM     35  C   UNL     1     -11.269  -6.772   4.005  1.00  0.00     0.070 C 
BRANCH  35  36
ATOM     36  C   UNL     1     -10.569  -7.598   5.060  1.00  0.00    -0.045 A 
ATOM     37  C   UNL     1      -9.802  -8.711   4.685  1.00  0.00     0.007 A 
ATOM     38  C   UNL     1     -10.692  -7.281   6.419  1.00  0.00     0.007 A 
ATOM     39  C   UNL     1      -9.164  -9.488   5.652  1.00  0.00     0.046 A 
ATOM     40  C   UNL     1     -10.054  -8.059   7.388  1.00  0.00     0.046 A 
ATOM     41  C   UNL     1      -9.294  -9.156   6.995  1.00  0.00     0.115 A 
BRANCH  41  42
ATOM     42  O   UNL     1      -8.657  -9.942   7.909  1.00  0.00    -0.508 OA
ATOM     43  H   UNL     1      -9.097 -10.808   7.926  1.00  0.00     0.293 HD
ENDBRANCH  41  42
ENDBRANCH  35  36
ENDBRANCH  34  35
BRANCH  34  44
ATOM     44  C   UNL     1     -10.566  -5.863   1.724  1.00  0.00     0.243 C 
ATOM     45  O   UNL     1     -11.668  -5.717   1.202  1.00  0.00    -0.273 OA
ATOM     46  N   UNL     1      -9.450  -6.197   0.986  1.00  0.00    -0.341 N 
ATOM     47  H   UNL     1      -8.586  -6.424   1.473  1.00  0.00     0.164 HD
BRANCH  46  48
ATOM     48  C   UNL     1      -9.462  -6.350  -0.470  1.00  0.00     0.196 C 
BRANCH  48  49
ATOM     49  C   UNL     1      -8.049  -6.209  -1.060  1.00  0.00     0.072 C 
BRANCH  49  50
ATOM     50  C   UNL     1      -6.982  -6.102   0.006  1.00  0.00    -0.045 A 
ATOM     51  C   UNL     1      -6.518  -4.840   0.406  1.00  0.00     0.007 A 
ATOM     52  C   UNL     1      -6.428  -7.248   0.590  1.00  0.00     0.007 A 
ATOM     53  C   UNL     1      -5.525  -4.729   1.379  1.00  0.00     0.046 A 
ATOM     54  C   UNL     1      -5.433  -7.137   1.563  1.00  0.00     0.046 A 
ATOM     55  C   UNL     1      -4.990  -5.877   1.950  1.00  0.00     0.115 A 
BRANCH  55  56
ATOM     56  O   UNL     1      -4.019  -5.725   2.896  1.00  0.00    -0.508 OA
ATOM     57  H   UNL     1      -3.661  -6.601   3.110  1.00  0.00     0.293 HD
ENDBRANCH  55  56
ENDBRANCH  49  50
ENDBRANCH  48  49
BRANCH  48  58
ATOM     58  C   UNL     1     -10.032  -7.730  -0.823  1.00  0.00     0.326 C 
ATOM     59  O   UNL     1     -10.862  -7.990  -1.679  1.00  0.00    -0.250 OA
BRANCH  58  60
ATOM     60  O   UNL     1      -9.510  -8.738  -0.079  1.00  0.00    -0.480 OA
ATOM     61  H   UNL     1      -9.552  -9.510  -0.683  1.00  0.00     0.296 HD
ENDBRANCH  58  60
ENDBRANCH  48  58
ENDBRANCH  46  48
ENDBRANCH  34  44
ENDBRANCH  32  34
ENDBRANCH  25  30
ENDBRANCH  23  25
ENDBRANCH   2  23
TORSDOF 28
ENDMDL
MODEL 40
REMARK VINA RESULT:    -6.856     13.891     18.782
REMARK INTER + INTRA:         -22.382
REMARK INTER:                 -18.182
REMARK INTRA:                  -4.200
REMARK UNBOUND:                -5.306
REMARK SMILES CCCCCCC[C@H](N)[C@H](O)C(=O)N[C@H](C)C(=O)N(C)[C@H](CC(C)C)C(=O)N[C@@H](Cc1ccc(O)cc1)C(=O)N[C@@H](Cc1ccc(O)cc1)C(=O)O
REMARK SMILES IDX 18 1 17 2 15 3 16 4 14 5 12 6 13 7 10 9 11 10 8 12 9 13 7 16
REMARK SMILES IDX 6 17 5 18 4 19 3 20 2 21 1 22 19 23 20 24 21 25 22 26 23 27
REMARK SMILES IDX 24 28 25 29 26 30 27 31 28 32 29 34 30 35 31 36 32 37 37 38
REMARK SMILES IDX 33 39 36 40 34 41 35 42 38 44 39 45 40 46 41 48 42 49 43 50
REMARK SMILES IDX 44 51 49 52 45 53 48 54 46 55 47 56 50 58 51 59 52 60
REMARK H PARENT 14 8 11 11 9 14 9 15 28 33 35 43 40 47 47 57 52 61
ROOT
ATOM      1  O   UNL     1       7.668 -11.405 -13.417  1.00  0.00    -0.272 OA
ATOM      2  C   UNL     1       7.020 -11.713 -12.406  1.00  0.00     0.245 C 
ENDROOT
BRANCH   2   3
ATOM      3  C   UNL     1       5.497 -11.961 -12.547  1.00  0.00     0.168 C 
ATOM      4  C   UNL     1       4.944 -11.246 -13.775  1.00  0.00     0.041 C 
BRANCH   3   5
ATOM      5  N   UNL     1       5.100 -13.359 -12.510  1.00  0.00    -0.342 N 
ATOM      6  C   UNL     1       4.252 -13.849 -11.539  1.00  0.00     0.251 C 
ATOM      7  O   UNL     1       3.807 -13.167 -10.623  1.00  0.00    -0.272 OA
ATOM      8  H   UNL     1       5.433 -14.030 -13.198  1.00  0.00     0.164 HD
BRANCH   6   9
ATOM      9  C   UNL     1       3.858 -15.316 -11.779  1.00  0.00     0.219 C 
BRANCH   9  10
ATOM     10  O   UNL     1       3.775 -15.645 -13.171  1.00  0.00    -0.382 OA
ATOM     11  H   UNL     1       2.814 -15.788 -13.317  1.00  0.00     0.211 HD
ENDBRANCH   9  10
BRANCH   9  12
ATOM     12  C   UNL     1       4.769 -16.322 -11.029  1.00  0.00     0.089 C 
BRANCH  12  13
ATOM     13  N   UNL     1       6.018 -15.624 -10.644  1.00  0.00    -0.325 NA
ATOM     14  H   UNL     1       6.756 -16.315 -10.494  1.00  0.00     0.119 HD
ATOM     15  H   UNL     1       5.880 -15.179  -9.734  1.00  0.00     0.119 HD
ENDBRANCH  12  13
BRANCH  12  16
ATOM     16  C   UNL     1       4.144 -17.013  -9.794  1.00  0.00     0.022 C 
BRANCH  16  17
ATOM     17  C   UNL     1       3.063 -16.274  -8.992  1.00  0.00     0.002 C 
BRANCH  17  18
ATOM     18  C   UNL     1       3.571 -15.528  -7.761  1.00  0.00     0.000 C 
BRANCH  18  19
ATOM     19  C   UNL     1       2.655 -14.386  -7.300  1.00  0.00    -0.000 C 
BRANCH  19  20
ATOM     20  C   UNL     1       1.156 -14.641  -7.485  1.00  0.00    -0.000 C 
BRANCH  20  21
ATOM     21  C   UNL     1       0.317 -13.362  -7.408  1.00  0.00    -0.003 C 
ATOM     22  C   UNL     1      -1.148 -13.642  -7.704  1.00  0.00     0.004 C 
ENDBRANCH  20  21
ENDBRANCH  19  20
ENDBRANCH  18  19
ENDBRANCH  17  18
ENDBRANCH  16  17
ENDBRANCH  12  16
ENDBRANCH   9  12
ENDBRANCH   6   9
ENDBRANCH   3   5
ENDBRANCH   2   3
BRANCH   2  23
ATOM     23  N   UNL     1       7.678 -11.947 -11.203  1.00  0.00    -0.332 N 
ATOM     24  C   UNL     1       7.019 -12.065  -9.911  1.00  0.00     0.147 C 
BRANCH  23  25
ATOM     25  C   UNL     1       9.140 -12.226 -11.189  1.00  0.00     0.174 C 
BRANCH  25  26
ATOM     26  C   UNL     1       9.474 -13.706 -11.490  1.00  0.00     0.038 C 
BRANCH  26  27
ATOM     27  C   UNL     1      10.325 -13.990 -12.747  1.00  0.00    -0.015 C 
ATOM     28  C   UNL     1      10.984 -12.729 -13.304  1.00  0.00     0.007 C 
ATOM     29  C   UNL     1      11.361 -15.092 -12.543  1.00  0.00     0.007 C 
ENDBRANCH  26  27
ENDBRANCH  25  26
BRANCH  25  30
ATOM     30  C   UNL     1       9.770 -11.701  -9.878  1.00  0.00     0.243 C 
ATOM     31  O   UNL     1      10.351 -12.447  -9.092  1.00  0.00    -0.273 OA
ATOM     32  N   UNL     1       9.631 -10.356  -9.650  1.00  0.00    -0.342 N 
ATOM     33  H   UNL     1       9.262  -9.782 -10.413  1.00  0.00     0.164 HD
BRANCH  32  34
ATOM     34  C   UNL     1      10.139  -9.690  -8.448  1.00  0.00     0.175 C 
BRANCH  34  35
ATOM     35  C   UNL     1      10.599  -8.256  -8.757  1.00  0.00     0.070 C 
BRANCH  35  36
ATOM     36  C   UNL     1      11.063  -8.085 -10.186  1.00  0.00    -0.045 A 
ATOM     37  C   UNL     1      12.246  -8.703 -10.618  1.00  0.00     0.007 A 
ATOM     38  C   UNL     1      10.338  -7.296 -11.087  1.00  0.00     0.007 A 
ATOM     39  C   UNL     1      12.690  -8.540 -11.931  1.00  0.00     0.046 A 
ATOM     40  C   UNL     1      10.781  -7.131 -12.402  1.00  0.00     0.046 A 
ATOM     41  C   UNL     1      11.954  -7.756 -12.812  1.00  0.00     0.115 A 
BRANCH  41  42
ATOM     42  O   UNL     1      12.423  -7.620 -14.085  1.00  0.00    -0.508 OA
ATOM     43  H   UNL     1      12.565  -6.674 -14.258  1.00  0.00     0.293 HD
ENDBRANCH  41  42
ENDBRANCH  35  36
ENDBRANCH  34  35
BRANCH  34  44
ATOM     44  C   UNL     1       9.027  -9.721  -7.376  1.00  0.00     0.243 C 
ATOM     45  O   UNL     1       8.841 -10.651  -6.597  1.00  0.00    -0.273 OA
ATOM     46  N   UNL     1       8.161  -8.651  -7.453  1.00  0.00    -0.341 N 
ATOM     47  H   UNL     1       8.288  -7.964  -8.192  1.00  0.00     0.164 HD
BRANCH  46  48
ATOM     48  C   UNL     1       6.990  -8.499  -6.586  1.00  0.00     0.196 C 
BRANCH  48  49
ATOM     49  C   UNL     1       6.659  -7.016  -6.347  1.00  0.00     0.072 C 
BRANCH  49  50
ATOM     50  C   UNL     1       7.563  -6.086  -7.124  1.00  0.00    -0.045 A 
ATOM     51  C   UNL     1       8.599  -5.406  -6.467  1.00  0.00     0.007 A 
ATOM     52  C   UNL     1       7.371  -5.872  -8.495  1.00  0.00     0.007 A 
ATOM     53  C   UNL     1       9.431  -4.536  -7.170  1.00  0.00     0.046 A 
ATOM     54  C   UNL     1       8.203  -4.999  -9.200  1.00  0.00     0.046 A 
ATOM     55  C   UNL     1       9.228  -4.339  -8.531  1.00  0.00     0.115 A 
BRANCH  55  56
ATOM     56  O   UNL     1      10.061  -3.478  -9.181  1.00  0.00    -0.508 OA
ATOM     57  H   UNL     1      10.228  -2.717  -8.603  1.00  0.00     0.293 HD
ENDBRANCH  55  56
ENDBRANCH  49  50
ENDBRANCH  48  49
BRANCH  48  58
ATOM     58  C   UNL     1       5.789  -9.195  -7.242  1.00  0.00     0.326 C 
ATOM     59  O   UNL     1       5.463  -9.154  -8.417  1.00  0.00    -0.250 OA
BRANCH  58  60
ATOM     60  O   UNL     1       5.051  -9.933  -6.375  1.00  0.00    -0.480 OA
ATOM     61  H   UNL     1       4.706 -10.662  -6.935  1.00  0.00     0.296 HD
ENDBRANCH  58  60
ENDBRANCH  48  58
ENDBRANCH  46  48
ENDBRANCH  34  44
ENDBRANCH  32  34
ENDBRANCH  25  30
ENDBRANCH  23  25
ENDBRANCH   2  23
TORSDOF 28
ENDMDL
MODEL 41
REMARK VINA RESULT:    -6.846     14.832     19.352
REMARK INTER + INTRA:         -22.357
REMARK INTER:                 -15.400
REMARK INTRA:                  -6.957
REMARK UNBOUND:                -5.306
REMARK SMILES CCCCCCC[C@H](N)[C@H](O)C(=O)N[C@H](C)C(=O)N(C)[C@H](CC(C)C)C(=O)N[C@@H](Cc1ccc(O)cc1)C(=O)N[C@@H](Cc1ccc(O)cc1)C(=O)O
REMARK SMILES IDX 18 1 17 2 15 3 16 4 14 5 12 6 13 7 10 9 11 10 8 12 9 13 7 16
REMARK SMILES IDX 6 17 5 18 4 19 3 20 2 21 1 22 19 23 20 24 21 25 22 26 23 27
REMARK SMILES IDX 24 28 25 29 26 30 27 31 28 32 29 34 30 35 31 36 32 37 37 38
REMARK SMILES IDX 33 39 36 40 34 41 35 42 38 44 39 45 40 46 41 48 42 49 43 50
REMARK SMILES IDX 44 51 49 52 45 53 48 54 46 55 47 56 50 58 51 59 52 60
REMARK H PARENT 14 8 11 11 9 14 9 15 28 33 35 43 40 47 47 57 52 61
ROOT
ATOM      1  O   UNL     1      10.722  -9.318 -10.531  1.00  0.00    -0.272 OA
ATOM      2  C   UNL     1      10.096 -10.314 -10.926  1.00  0.00     0.245 C 
ENDROOT
BRANCH   2   3
ATOM      3  C   UNL     1       9.291 -11.140  -9.893  1.00  0.00     0.168 C 
ATOM      4  C   UNL     1      10.219 -12.012  -9.054  1.00  0.00     0.041 C 
BRANCH   3   5
ATOM      5  N   UNL     1       8.382 -10.363  -9.064  1.00  0.00    -0.342 N 
ATOM      6  C   UNL     1       7.233  -9.798  -9.576  1.00  0.00     0.251 C 
ATOM      7  O   UNL     1       6.914  -9.868 -10.758  1.00  0.00    -0.272 OA
ATOM      8  H   UNL     1       8.559 -10.207  -8.075  1.00  0.00     0.164 HD
BRANCH   6   9
ATOM      9  C   UNL     1       6.357  -9.147  -8.494  1.00  0.00     0.219 C 
BRANCH   9  10
ATOM     10  O   UNL     1       5.575  -8.058  -8.997  1.00  0.00    -0.382 OA
ATOM     11  H   UNL     1       4.812  -8.501  -9.430  1.00  0.00     0.211 HD
ENDBRANCH   9  10
BRANCH   9  12
ATOM     12  C   UNL     1       5.462 -10.166  -7.741  1.00  0.00     0.089 C 
BRANCH  12  13
ATOM     13  N   UNL     1       5.391  -9.764  -6.318  1.00  0.00    -0.325 NA
ATOM     14  H   UNL     1       6.193 -10.153  -5.818  1.00  0.00     0.119 HD
ATOM     15  H   UNL     1       4.572 -10.203  -5.890  1.00  0.00     0.119 HD
ENDBRANCH  12  13
BRANCH  12  16
ATOM     16  C   UNL     1       4.036 -10.366  -8.309  1.00  0.00     0.022 C 
BRANCH  16  17
ATOM     17  C   UNL     1       3.298 -11.682  -8.028  1.00  0.00     0.002 C 
BRANCH  17  18
ATOM     18  C   UNL     1       3.455 -12.752  -9.105  1.00  0.00     0.000 C 
BRANCH  18  19
ATOM     19  C   UNL     1       2.162 -13.516  -9.421  1.00  0.00    -0.000 C 
BRANCH  19  20
ATOM     20  C   UNL     1       2.192 -15.010  -9.088  1.00  0.00    -0.000 C 
BRANCH  20  21
ATOM     21  C   UNL     1       3.428 -15.420  -8.282  1.00  0.00    -0.003 C 
ATOM     22  C   UNL     1       3.173 -15.319  -6.787  1.00  0.00     0.004 C 
ENDBRANCH  20  21
ENDBRANCH  19  20
ENDBRANCH  18  19
ENDBRANCH  17  18
ENDBRANCH  16  17
ENDBRANCH  12  16
ENDBRANCH   9  12
ENDBRANCH   6   9
ENDBRANCH   3   5
ENDBRANCH   2   3
BRANCH   2  23
ATOM     23  N   UNL     1      10.028 -10.598 -12.286  1.00  0.00    -0.332 N 
ATOM     24  C   UNL     1      10.308  -9.640 -13.345  1.00  0.00     0.147 C 
BRANCH  23  25
ATOM     25  C   UNL     1       9.775 -11.990 -12.750  1.00  0.00     0.174 C 
BRANCH  25  26
ATOM     26  C   UNL     1      11.007 -12.630 -13.431  1.00  0.00     0.038 C 
BRANCH  26  27
ATOM     27  C   UNL     1      11.326 -14.097 -13.066  1.00  0.00    -0.015 C 
ATOM     28  C   UNL     1      10.505 -14.594 -11.876  1.00  0.00     0.007 C 
ATOM     29  C   UNL     1      11.199 -15.058 -14.245  1.00  0.00     0.007 C 
ENDBRANCH  26  27
ENDBRANCH  25  26
BRANCH  25  30
ATOM     30  C   UNL     1       8.493 -12.038 -13.612  1.00  0.00     0.243 C 
ATOM     31  O   UNL     1       8.536 -12.161 -14.835  1.00  0.00    -0.273 OA
ATOM     32  N   UNL     1       7.311 -11.929 -12.925  1.00  0.00    -0.342 N 
ATOM     33  H   UNL     1       7.352 -11.973 -11.904  1.00  0.00     0.164 HD
BRANCH  32  34
ATOM     34  C   UNL     1       6.000 -11.928 -13.580  1.00  0.00     0.175 C 
BRANCH  34  35
ATOM     35  C   UNL     1       4.879 -12.269 -12.586  1.00  0.00     0.070 C 
BRANCH  35  36
ATOM     36  C   UNL     1       4.850 -13.735 -12.217  1.00  0.00    -0.045 A 
ATOM     37  C   UNL     1       5.878 -14.283 -11.435  1.00  0.00     0.007 A 
ATOM     38  C   UNL     1       3.818 -14.569 -12.666  1.00  0.00     0.007 A 
ATOM     39  C   UNL     1       5.867 -15.637 -11.101  1.00  0.00     0.046 A 
ATOM     40  C   UNL     1       3.807 -15.926 -12.333  1.00  0.00     0.046 A 
ATOM     41  C   UNL     1       4.832 -16.447 -11.552  1.00  0.00     0.115 A 
BRANCH  41  42
ATOM     42  O   UNL     1       4.861 -17.766 -11.206  1.00  0.00    -0.508 OA
ATOM     43  H   UNL     1       5.518 -18.213 -11.764  1.00  0.00     0.293 HD
ENDBRANCH  41  42
ENDBRANCH  35  36
ENDBRANCH  34  35
BRANCH  34  44
ATOM     44  C   UNL     1       5.792 -10.543 -14.232  1.00  0.00     0.243 C 
ATOM     45  O   UNL     1       5.874 -10.325 -15.438  1.00  0.00    -0.273 OA
ATOM     46  N   UNL     1       5.630  -9.524 -13.317  1.00  0.00    -0.341 N 
ATOM     47  H   UNL     1       5.686  -9.738 -12.325  1.00  0.00     0.164 HD
BRANCH  46  48
ATOM     48  C   UNL     1       5.484  -8.117 -13.696  1.00  0.00     0.196 C 
BRANCH  48  49
ATOM     49  C   UNL     1       4.055  -7.613 -13.436  1.00  0.00     0.072 C 
BRANCH  49  50
ATOM     50  C   UNL     1       3.111  -8.722 -13.029  1.00  0.00    -0.045 A 
ATOM     51  C   UNL     1       2.423  -9.449 -14.010  1.00  0.00     0.007 A 
ATOM     52  C   UNL     1       2.895  -9.024 -11.679  1.00  0.00     0.007 A 
ATOM     53  C   UNL     1       1.540 -10.466 -13.646  1.00  0.00     0.046 A 
ATOM     54  C   UNL     1       2.010 -10.042 -11.314  1.00  0.00     0.046 A 
ATOM     55  C   UNL     1       1.340 -10.755 -12.302  1.00  0.00     0.115 A 
BRANCH  55  56
ATOM     56  O   UNL     1       0.468 -11.755 -11.988  1.00  0.00    -0.508 OA
ATOM     57  H   UNL     1       0.712 -12.544 -12.496  1.00  0.00     0.293 HD
ENDBRANCH  55  56
ENDBRANCH  49  50
ENDBRANCH  48  49
BRANCH  48  58
ATOM     58  C   UNL     1       6.481  -7.276 -12.887  1.00  0.00     0.326 C 
ATOM     59  O   UNL     1       7.533  -6.797 -13.279  1.00  0.00    -0.250 OA
BRANCH  58  60
ATOM     60  O   UNL     1       6.094  -7.063 -11.604  1.00  0.00    -0.480 OA
ATOM     61  H   UNL     1       5.365  -6.412 -11.693  1.00  0.00     0.296 HD
ENDBRANCH  58  60
ENDBRANCH  48  58
ENDBRANCH  46  48
ENDBRANCH  34  44
ENDBRANCH  32  34
ENDBRANCH  25  30
ENDBRANCH  23  25
ENDBRANCH   2  23
TORSDOF 28
ENDMDL
MODEL 42
REMARK VINA RESULT:    -6.844      6.189     11.486
REMARK INTER + INTRA:         -22.353
REMARK INTER:                 -17.053
REMARK INTRA:                  -5.300
REMARK UNBOUND:                -5.306
REMARK SMILES CCCCCCC[C@H](N)[C@H](O)C(=O)N[C@H](C)C(=O)N(C)[C@H](CC(C)C)C(=O)N[C@@H](Cc1ccc(O)cc1)C(=O)N[C@@H](Cc1ccc(O)cc1)C(=O)O
REMARK SMILES IDX 18 1 17 2 15 3 16 4 14 5 12 6 13 7 10 9 11 10 8 12 9 13 7 16
REMARK SMILES IDX 6 17 5 18 4 19 3 20 2 21 1 22 19 23 20 24 21 25 22 26 23 27
REMARK SMILES IDX 24 28 25 29 26 30 27 31 28 32 29 34 30 35 31 36 32 37 37 38
REMARK SMILES IDX 33 39 36 40 34 41 35 42 38 44 39 45 40 46 41 48 42 49 43 50
REMARK SMILES IDX 44 51 49 52 45 53 48 54 46 55 47 56 50 58 51 59 52 60
REMARK H PARENT 14 8 11 11 9 14 9 15 28 33 35 43 40 47 47 57 52 61
ROOT
ATOM      1  O   UNL     1      -0.728  -6.091  -3.559  1.00  0.00    -0.272 OA
ATOM      2  C   UNL     1      -1.805  -6.665  -3.778  1.00  0.00     0.245 C 
ENDROOT
BRANCH   2   3
ATOM      3  C   UNL     1      -3.101  -5.818  -3.823  1.00  0.00     0.168 C 
ATOM      4  C   UNL     1      -3.648  -5.589  -2.419  1.00  0.00     0.041 C 
BRANCH   3   5
ATOM      5  N   UNL     1      -2.993  -4.575  -4.572  1.00  0.00    -0.342 N 
ATOM      6  C   UNL     1      -2.968  -4.556  -5.950  1.00  0.00     0.251 C 
ATOM      7  O   UNL     1      -2.993  -5.568  -6.642  1.00  0.00    -0.272 OA
ATOM      8  H   UNL     1      -2.930  -3.673  -4.107  1.00  0.00     0.164 HD
BRANCH   6   9
ATOM      9  C   UNL     1      -2.994  -3.130  -6.525  1.00  0.00     0.219 C 
BRANCH   9  10
ATOM     10  O   UNL     1      -2.203  -2.212  -5.761  1.00  0.00    -0.382 OA
ATOM     11  H   UNL     1      -1.372  -2.708  -5.593  1.00  0.00     0.211 HD
ENDBRANCH   9  10
BRANCH   9  12
ATOM     12  C   UNL     1      -2.609  -3.072  -8.027  1.00  0.00     0.089 C 
BRANCH  12  13
ATOM     13  N   UNL     1      -3.712  -2.417  -8.766  1.00  0.00    -0.325 NA
ATOM     14  H   UNL     1      -3.563  -2.539  -9.770  1.00  0.00     0.119 HD
ATOM     15  H   UNL     1      -3.661  -1.407  -8.611  1.00  0.00     0.119 HD
ENDBRANCH  12  13
BRANCH  12  16
ATOM     16  C   UNL     1      -1.264  -2.381  -8.355  1.00  0.00     0.022 C 
BRANCH  16  17
ATOM     17  C   UNL     1      -0.358  -2.987  -9.437  1.00  0.00     0.002 C 
BRANCH  17  18
ATOM     18  C   UNL     1      -0.173  -2.121 -10.681  1.00  0.00     0.000 C 
BRANCH  18  19
ATOM     19  C   UNL     1       0.994  -1.129 -10.584  1.00  0.00    -0.000 C 
BRANCH  19  20
ATOM     20  C   UNL     1       2.365  -1.700 -10.956  1.00  0.00    -0.000 C 
BRANCH  20  21
ATOM     21  C   UNL     1       2.703  -1.529 -12.440  1.00  0.00    -0.003 C 
ATOM     22  C   UNL     1       1.954  -0.353 -13.046  1.00  0.00     0.004 C 
ENDBRANCH  20  21
ENDBRANCH  19  20
ENDBRANCH  18  19
ENDBRANCH  17  18
ENDBRANCH  16  17
ENDBRANCH  12  16
ENDBRANCH   9  12
ENDBRANCH   6   9
ENDBRANCH   3   5
ENDBRANCH   2   3
BRANCH   2  23
ATOM     23  N   UNL     1      -1.819  -8.019  -4.095  1.00  0.00    -0.332 N 
ATOM     24  C   UNL     1      -1.798  -9.097  -3.118  1.00  0.00     0.147 C 
BRANCH  23  25
ATOM     25  C   UNL     1      -1.990  -8.457  -5.508  1.00  0.00     0.174 C 
BRANCH  25  26
ATOM     26  C   UNL     1      -2.713  -9.820  -5.632  1.00  0.00     0.038 C 
BRANCH  26  27
ATOM     27  C   UNL     1      -1.890 -11.000  -6.195  1.00  0.00    -0.015 C 
ATOM     28  C   UNL     1      -1.899 -12.214  -5.266  1.00  0.00     0.007 C 
ATOM     29  C   UNL     1      -2.295 -11.403  -7.610  1.00  0.00     0.007 C 
ENDBRANCH  26  27
ENDBRANCH  25  26
BRANCH  25  30
ATOM     30  C   UNL     1      -0.635  -8.403  -6.250  1.00  0.00     0.243 C 
ATOM     31  O   UNL     1       0.327  -9.082  -5.897  1.00  0.00    -0.273 OA
ATOM     32  N   UNL     1      -0.579  -7.545  -7.318  1.00  0.00    -0.342 N 
ATOM     33  H   UNL     1      -1.456  -7.123  -7.635  1.00  0.00     0.164 HD
BRANCH  32  34
ATOM     34  C   UNL     1       0.630  -7.343  -8.121  1.00  0.00     0.175 C 
BRANCH  34  35
ATOM     35  C   UNL     1       0.294  -6.751  -9.499  1.00  0.00     0.070 C 
BRANCH  35  36
ATOM     36  C   UNL     1       1.503  -6.646 -10.401  1.00  0.00    -0.045 A 
ATOM     37  C   UNL     1       1.904  -5.395 -10.893  1.00  0.00     0.007 A 
ATOM     38  C   UNL     1       2.223  -7.788 -10.775  1.00  0.00     0.007 A 
ATOM     39  C   UNL     1       3.010  -5.289 -11.737  1.00  0.00     0.046 A 
ATOM     40  C   UNL     1       3.330  -7.683 -11.621  1.00  0.00     0.046 A 
ATOM     41  C   UNL     1       3.714  -6.433 -12.094  1.00  0.00     0.115 A 
BRANCH  41  42
ATOM     42  O   UNL     1       4.787  -6.287 -12.923  1.00  0.00    -0.508 OA
ATOM     43  H   UNL     1       4.869  -7.092 -13.459  1.00  0.00     0.293 HD
ENDBRANCH  41  42
ENDBRANCH  35  36
ENDBRANCH  34  35
BRANCH  34  44
ATOM     44  C   UNL     1       1.590  -6.434  -7.321  1.00  0.00     0.243 C 
ATOM     45  O   UNL     1       2.613  -6.824  -6.764  1.00  0.00    -0.273 OA
ATOM     46  N   UNL     1       1.127  -5.144  -7.172  1.00  0.00    -0.341 N 
ATOM     47  H   UNL     1       0.217  -4.899  -7.553  1.00  0.00     0.164 HD
BRANCH  46  48
ATOM     48  C   UNL     1       1.831  -4.120  -6.396  1.00  0.00     0.196 C 
BRANCH  48  49
ATOM     49  C   UNL     1       2.533  -3.106  -7.314  1.00  0.00     0.072 C 
BRANCH  49  50
ATOM     50  C   UNL     1       4.006  -2.965  -7.006  1.00  0.00    -0.045 A 
ATOM     51  C   UNL     1       4.846  -2.288  -7.903  1.00  0.00     0.007 A 
ATOM     52  C   UNL     1       4.556  -3.520  -5.844  1.00  0.00     0.007 A 
ATOM     53  C   UNL     1       6.210  -2.164  -7.636  1.00  0.00     0.046 A 
ATOM     54  C   UNL     1       5.922  -3.396  -5.577  1.00  0.00     0.046 A 
ATOM     55  C   UNL     1       6.737  -2.718  -6.476  1.00  0.00     0.115 A 
BRANCH  55  56
ATOM     56  O   UNL     1       8.075  -2.576  -6.253  1.00  0.00    -0.508 OA
ATOM     57  H   UNL     1       8.311  -1.645  -6.393  1.00  0.00     0.293 HD
ENDBRANCH  55  56
ENDBRANCH  49  50
ENDBRANCH  48  49
BRANCH  48  58
ATOM     58  C   UNL     1       0.820  -3.390  -5.500  1.00  0.00     0.326 C 
ATOM     59  O   UNL     1       0.052  -3.889  -4.694  1.00  0.00    -0.250 OA
BRANCH  58  60
ATOM     60  O   UNL     1       0.836  -2.042  -5.653  1.00  0.00    -0.480 OA
ATOM     61  H   UNL     1       0.352  -1.719  -4.863  1.00  0.00     0.296 HD
ENDBRANCH  58  60
ENDBRANCH  48  58
ENDBRANCH  46  48
ENDBRANCH  34  44
ENDBRANCH  32  34
ENDBRANCH  25  30
ENDBRANCH  23  25
ENDBRANCH   2  23
TORSDOF 28
ENDMDL
MODEL 43
REMARK VINA RESULT:    -6.820     11.558     16.949
REMARK INTER + INTRA:         -22.292
REMARK INTER:                 -17.926
REMARK INTRA:                  -4.366
REMARK UNBOUND:                -5.306
REMARK SMILES CCCCCCC[C@H](N)[C@H](O)C(=O)N[C@H](C)C(=O)N(C)[C@H](CC(C)C)C(=O)N[C@@H](Cc1ccc(O)cc1)C(=O)N[C@@H](Cc1ccc(O)cc1)C(=O)O
REMARK SMILES IDX 18 1 17 2 15 3 16 4 14 5 12 6 13 7 10 9 11 10 8 12 9 13 7 16
REMARK SMILES IDX 6 17 5 18 4 19 3 20 2 21 1 22 19 23 20 24 21 25 22 26 23 27
REMARK SMILES IDX 24 28 25 29 26 30 27 31 28 32 29 34 30 35 31 36 32 37 37 38
REMARK SMILES IDX 33 39 36 40 34 41 35 42 38 44 39 45 40 46 41 48 42 49 43 50
REMARK SMILES IDX 44 51 49 52 45 53 48 54 46 55 47 56 50 58 51 59 52 60
REMARK H PARENT 14 8 11 11 9 14 9 15 28 33 35 43 40 47 47 57 52 61
ROOT
ATOM      1  O   UNL     1       4.586  -2.049  -6.935  1.00  0.00    -0.272 OA
ATOM      2  C   UNL     1       3.712  -1.536  -7.649  1.00  0.00     0.245 C 
ENDROOT
BRANCH   2   3
ATOM      3  C   UNL     1       2.245  -1.557  -7.154  1.00  0.00     0.168 C 
ATOM      4  C   UNL     1       2.020  -0.499  -6.078  1.00  0.00     0.041 C 
BRANCH   3   5
ATOM      5  N   UNL     1       1.244  -1.480  -8.206  1.00  0.00    -0.342 N 
ATOM      6  C   UNL     1       0.665  -2.610  -8.744  1.00  0.00     0.251 C 
ATOM      7  O   UNL     1       0.972  -3.750  -8.413  1.00  0.00    -0.272 OA
ATOM      8  H   UNL     1       0.933  -0.589  -8.587  1.00  0.00     0.164 HD
BRANCH   6   9
ATOM      9  C   UNL     1      -0.464  -2.285  -9.735  1.00  0.00     0.219 C 
BRANCH   9  10
ATOM     10  O   UNL     1      -1.474  -1.444  -9.166  1.00  0.00    -0.382 OA
ATOM     11  H   UNL     1      -2.209  -1.492  -9.817  1.00  0.00     0.211 HD
ENDBRANCH   9  10
BRANCH   9  12
ATOM     12  C   UNL     1       0.052  -1.698 -11.075  1.00  0.00     0.089 C 
BRANCH  12  13
ATOM     13  N   UNL     1       0.619  -0.356 -10.809  1.00  0.00    -0.325 NA
ATOM     14  H   UNL     1       1.366  -0.438 -10.116  1.00  0.00     0.119 HD
ATOM     15  H   UNL     1      -0.096   0.223 -10.363  1.00  0.00     0.119 HD
ENDBRANCH  12  13
BRANCH  12  16
ATOM     16  C   UNL     1       1.076  -2.565 -11.846  1.00  0.00     0.022 C 
BRANCH  16  17
ATOM     17  C   UNL     1       0.936  -2.710 -13.367  1.00  0.00     0.002 C 
BRANCH  17  18
ATOM     18  C   UNL     1       1.379  -1.493 -14.175  1.00  0.00     0.000 C 
BRANCH  18  19
ATOM     19  C   UNL     1       2.884  -1.204 -14.095  1.00  0.00    -0.000 C 
BRANCH  19  20
ATOM     20  C   UNL     1       3.775  -2.438 -13.929  1.00  0.00    -0.000 C 
BRANCH  20  21
ATOM     21  C   UNL     1       4.088  -3.134 -15.256  1.00  0.00    -0.003 C 
ATOM     22  C   UNL     1       3.495  -4.534 -15.301  1.00  0.00     0.004 C 
ENDBRANCH  20  21
ENDBRANCH  19  20
ENDBRANCH  18  19
ENDBRANCH  17  18
ENDBRANCH  16  17
ENDBRANCH  12  16
ENDBRANCH   9  12
ENDBRANCH   6   9
ENDBRANCH   3   5
ENDBRANCH   2   3
BRANCH   2  23
ATOM     23  N   UNL     1       4.072  -0.851  -8.805  1.00  0.00    -0.332 N 
ATOM     24  C   UNL     1       4.144   0.598  -8.918  1.00  0.00     0.147 C 
BRANCH  23  25
ATOM     25  C   UNL     1       4.544  -1.597 -10.003  1.00  0.00     0.174 C 
BRANCH  25  26
ATOM     26  C   UNL     1       3.920  -3.008 -10.119  1.00  0.00     0.038 C 
BRANCH  26  27
ATOM     27  C   UNL     1       4.897  -4.202 -10.190  1.00  0.00    -0.015 C 
ATOM     28  C   UNL     1       4.867  -5.058  -8.925  1.00  0.00     0.007 C 
ATOM     29  C   UNL     1       4.705  -5.070 -11.431  1.00  0.00     0.007 C 
ENDBRANCH  26  27
ENDBRANCH  25  26
BRANCH  25  30
ATOM     30  C   UNL     1       6.089  -1.595 -10.057  1.00  0.00     0.243 C 
ATOM     31  O   UNL     1       6.702  -1.559 -11.123  1.00  0.00    -0.273 OA
ATOM     32  N   UNL     1       6.725  -1.642  -8.843  1.00  0.00    -0.342 N 
ATOM     33  H   UNL     1       6.152  -1.527  -8.003  1.00  0.00     0.164 HD
BRANCH  32  34
ATOM     34  C   UNL     1       8.183  -1.675  -8.703  1.00  0.00     0.175 C 
BRANCH  34  35
ATOM     35  C   UNL     1       8.760  -3.018  -9.176  1.00  0.00     0.070 C 
BRANCH  35  36
ATOM     36  C   UNL     1       8.558  -4.128  -8.170  1.00  0.00    -0.045 A 
ATOM     37  C   UNL     1       8.521  -5.464  -8.597  1.00  0.00     0.007 A 
ATOM     38  C   UNL     1       8.383  -3.843  -6.809  1.00  0.00     0.007 A 
ATOM     39  C   UNL     1       8.321  -6.495  -7.678  1.00  0.00     0.046 A 
ATOM     40  C   UNL     1       8.182  -4.874  -5.889  1.00  0.00     0.046 A 
ATOM     41  C   UNL     1       8.154  -6.192  -6.332  1.00  0.00     0.115 A 
BRANCH  41  42
ATOM     42  O   UNL     1       7.958  -7.228  -5.467  1.00  0.00    -0.508 OA
ATOM     43  H   UNL     1       7.026  -7.497  -5.521  1.00  0.00     0.293 HD
ENDBRANCH  41  42
ENDBRANCH  35  36
ENDBRANCH  34  35
BRANCH  34  44
ATOM     44  C   UNL     1       8.767  -0.484  -9.496  1.00  0.00     0.243 C 
ATOM     45  O   UNL     1       8.402   0.681  -9.367  1.00  0.00    -0.273 OA
ATOM     46  N   UNL     1       9.662  -0.862 -10.474  1.00  0.00    -0.341 N 
ATOM     47  H   UNL     1       9.845  -1.852 -10.620  1.00  0.00     0.164 HD
BRANCH  46  48
ATOM     48  C   UNL     1      10.295   0.083 -11.397  1.00  0.00     0.196 C 
BRANCH  48  49
ATOM     49  C   UNL     1      11.699  -0.391 -11.809  1.00  0.00     0.072 C 
BRANCH  49  50
ATOM     50  C   UNL     1      12.790   0.544 -11.337  1.00  0.00    -0.045 A 
ATOM     51  C   UNL     1      12.570   1.929 -11.332  1.00  0.00     0.007 A 
ATOM     52  C   UNL     1      14.033   0.049 -10.922  1.00  0.00     0.007 A 
ATOM     53  C   UNL     1      13.574   2.802 -10.912  1.00  0.00     0.046 A 
ATOM     54  C   UNL     1      15.038   0.923 -10.502  1.00  0.00     0.046 A 
ATOM     55  C   UNL     1      14.799   2.293 -10.500  1.00  0.00     0.115 A 
BRANCH  55  56
ATOM     56  O   UNL     1      15.754   3.180 -10.099  1.00  0.00    -0.508 OA
ATOM     57  H   UNL     1      15.747   3.934 -10.709  1.00  0.00     0.293 HD
ENDBRANCH  55  56
ENDBRANCH  49  50
ENDBRANCH  48  49
BRANCH  48  58
ATOM     58  C   UNL     1       9.413   0.228 -12.645  1.00  0.00     0.326 C 
ATOM     59  O   UNL     1       8.927  -0.669 -13.314  1.00  0.00    -0.250 OA
BRANCH  58  60
ATOM     60  O   UNL     1       9.169   1.518 -12.989  1.00  0.00    -0.480 OA
ATOM     61  H   UNL     1      10.068   1.909 -13.052  1.00  0.00     0.296 HD
ENDBRANCH  58  60
ENDBRANCH  48  58
ENDBRANCH  46  48
ENDBRANCH  34  44
ENDBRANCH  32  34
ENDBRANCH  25  30
ENDBRANCH  23  25
ENDBRANCH   2  23
TORSDOF 28
ENDMDL
MODEL 44
REMARK VINA RESULT:    -6.816     12.970     18.237
REMARK INTER + INTRA:         -22.282
REMARK INTER:                 -18.114
REMARK INTRA:                  -4.168
REMARK UNBOUND:                -5.306
REMARK SMILES CCCCCCC[C@H](N)[C@H](O)C(=O)N[C@H](C)C(=O)N(C)[C@H](CC(C)C)C(=O)N[C@@H](Cc1ccc(O)cc1)C(=O)N[C@@H](Cc1ccc(O)cc1)C(=O)O
REMARK SMILES IDX 18 1 17 2 15 3 16 4 14 5 12 6 13 7 10 9 11 10 8 12 9 13 7 16
REMARK SMILES IDX 6 17 5 18 4 19 3 20 2 21 1 22 19 23 20 24 21 25 22 26 23 27
REMARK SMILES IDX 24 28 25 29 26 30 27 31 28 32 29 34 30 35 31 36 32 37 37 38
REMARK SMILES IDX 33 39 36 40 34 41 35 42 38 44 39 45 40 46 41 48 42 49 43 50
REMARK SMILES IDX 44 51 49 52 45 53 48 54 46 55 47 56 50 58 51 59 52 60
REMARK H PARENT 14 8 11 11 9 14 9 15 28 33 35 43 40 47 47 57 52 61
ROOT
ATOM      1  O   UNL     1       9.960  -4.950 -14.701  1.00  0.00    -0.272 OA
ATOM      2  C   UNL     1       8.937  -4.357 -14.328  1.00  0.00     0.245 C 
ENDROOT
BRANCH   2   3
ATOM      3  C   UNL     1       8.237  -3.393 -15.318  1.00  0.00     0.168 C 
ATOM      4  C   UNL     1       8.813  -3.545 -16.721  1.00  0.00     0.041 C 
BRANCH   3   5
ATOM      5  N   UNL     1       6.784  -3.466 -15.318  1.00  0.00    -0.342 N 
ATOM      6  C   UNL     1       6.000  -2.364 -15.583  1.00  0.00     0.251 C 
ATOM      7  O   UNL     1       6.455  -1.245 -15.795  1.00  0.00    -0.272 OA
ATOM      8  H   UNL     1       6.291  -4.334 -15.121  1.00  0.00     0.164 HD
BRANCH   6   9
ATOM      9  C   UNL     1       4.504  -2.706 -15.670  1.00  0.00     0.219 C 
BRANCH   9  10
ATOM     10  O   UNL     1       4.269  -4.074 -16.025  1.00  0.00    -0.382 OA
ATOM     11  H   UNL     1       3.466  -4.312 -15.511  1.00  0.00     0.211 HD
ENDBRANCH   9  10
BRANCH   9  12
ATOM     12  C   UNL     1       3.717  -2.327 -14.387  1.00  0.00     0.089 C 
BRANCH  12  13
ATOM     13  N   UNL     1       4.647  -2.378 -13.236  1.00  0.00    -0.325 NA
ATOM     14  H   UNL     1       5.542  -1.968 -13.509  1.00  0.00     0.119 HD
ATOM     15  H   UNL     1       4.857  -3.356 -13.023  1.00  0.00     0.119 HD
ENDBRANCH  12  13
BRANCH  12  16
ATOM     16  C   UNL     1       2.985  -0.964 -14.419  1.00  0.00     0.022 C 
BRANCH  16  17
ATOM     17  C   UNL     1       1.479  -0.932 -14.716  1.00  0.00     0.002 C 
BRANCH  17  18
ATOM     18  C   UNL     1       0.588  -1.437 -13.584  1.00  0.00     0.000 C 
BRANCH  18  19
ATOM     19  C   UNL     1      -0.590  -2.301 -14.054  1.00  0.00    -0.000 C 
BRANCH  19  20
ATOM     20  C   UNL     1      -1.116  -3.301 -13.021  1.00  0.00    -0.000 C 
BRANCH  20  21
ATOM     21  C   UNL     1      -0.559  -3.060 -11.615  1.00  0.00    -0.003 C 
ATOM     22  C   UNL     1       0.296  -4.229 -11.149  1.00  0.00     0.004 C 
ENDBRANCH  20  21
ENDBRANCH  19  20
ENDBRANCH  18  19
ENDBRANCH  17  18
ENDBRANCH  16  17
ENDBRANCH  12  16
ENDBRANCH   9  12
ENDBRANCH   6   9
ENDBRANCH   3   5
ENDBRANCH   2   3
BRANCH   2  23
ATOM     23  N   UNL     1       8.373  -4.654 -13.092  1.00  0.00    -0.332 N 
ATOM     24  C   UNL     1       7.426  -5.733 -12.854  1.00  0.00     0.147 C 
BRANCH  23  25
ATOM     25  C   UNL     1       8.821  -3.933 -11.869  1.00  0.00     0.174 C 
BRANCH  25  26
ATOM     26  C   UNL     1       8.914  -4.852 -10.628  1.00  0.00     0.038 C 
BRANCH  26  27
ATOM     27  C   UNL     1      10.324  -5.101 -10.046  1.00  0.00    -0.015 C 
ATOM     28  C   UNL     1      10.795  -3.957  -9.148  1.00  0.00     0.007 C 
ATOM     29  C   UNL     1      10.455  -6.439  -9.324  1.00  0.00     0.007 C 
ENDBRANCH  26  27
ENDBRANCH  25  26
BRANCH  25  30
ATOM     30  C   UNL     1       7.953  -2.673 -11.645  1.00  0.00     0.243 C 
ATOM     31  O   UNL     1       7.424  -2.074 -12.580  1.00  0.00    -0.273 OA
ATOM     32  N   UNL     1       7.819  -2.269 -10.342  1.00  0.00    -0.342 N 
ATOM     33  H   UNL     1       8.168  -2.897  -9.613  1.00  0.00     0.164 HD
BRANCH  32  34
ATOM     34  C   UNL     1       7.056  -1.083  -9.945  1.00  0.00     0.175 C 
BRANCH  34  35
ATOM     35  C   UNL     1       6.414  -1.268  -8.561  1.00  0.00     0.070 C 
BRANCH  35  36
ATOM     36  C   UNL     1       4.905  -1.331  -8.620  1.00  0.00    -0.045 A 
ATOM     37  C   UNL     1       4.152  -0.147  -8.605  1.00  0.00     0.007 A 
ATOM     38  C   UNL     1       4.238  -2.562  -8.666  1.00  0.00     0.007 A 
ATOM     39  C   UNL     1       2.758  -0.196  -8.645  1.00  0.00     0.046 A 
ATOM     40  C   UNL     1       2.843  -2.612  -8.705  1.00  0.00     0.046 A 
ATOM     41  C   UNL     1       2.115  -1.427  -8.695  1.00  0.00     0.115 A 
BRANCH  41  42
ATOM     42  O   UNL     1       0.752  -1.431  -8.730  1.00  0.00    -0.508 OA
ATOM     43  H   UNL     1       0.441  -2.282  -8.380  1.00  0.00     0.293 HD
ENDBRANCH  41  42
ENDBRANCH  35  36
ENDBRANCH  34  35
BRANCH  34  44
ATOM     44  C   UNL     1       8.009   0.133  -9.982  1.00  0.00     0.243 C 
ATOM     45  O   UNL     1       7.960   1.077  -9.198  1.00  0.00    -0.273 OA
ATOM     46  N   UNL     1       8.855   0.134 -11.070  1.00  0.00    -0.341 N 
ATOM     47  H   UNL     1       8.778  -0.612 -11.757  1.00  0.00     0.164 HD
BRANCH  46  48
ATOM     48  C   UNL     1       9.801   1.216 -11.355  1.00  0.00     0.196 C 
BRANCH  48  49
ATOM     49  C   UNL     1      10.880   0.768 -12.354  1.00  0.00     0.072 C 
BRANCH  49  50
ATOM     50  C   UNL     1      12.265   0.752 -11.746  1.00  0.00    -0.045 A 
ATOM     51  C   UNL     1      12.787   1.917 -11.166  1.00  0.00     0.007 A 
ATOM     52  C   UNL     1      13.049  -0.408 -11.770  1.00  0.00     0.007 A 
ATOM     53  C   UNL     1      14.068   1.918 -10.614  1.00  0.00     0.046 A 
ATOM     54  C   UNL     1      14.332  -0.407 -11.218  1.00  0.00     0.046 A 
ATOM     55  C   UNL     1      14.830   0.757 -10.643  1.00  0.00     0.115 A 
BRANCH  55  56
ATOM     56  O   UNL     1      16.078   0.800 -10.095  1.00  0.00    -0.508 OA
ATOM     57  H   UNL     1      16.058   1.404  -9.336  1.00  0.00     0.293 HD
ENDBRANCH  55  56
ENDBRANCH  49  50
ENDBRANCH  48  49
BRANCH  48  58
ATOM     58  C   UNL     1       9.031   2.413 -11.931  1.00  0.00     0.326 C 
ATOM     59  O   UNL     1       8.611   2.543 -13.070  1.00  0.00    -0.250 OA
BRANCH  58  60
ATOM     60  O   UNL     1       8.809   3.400 -11.027  1.00  0.00    -0.480 OA
ATOM     61  H   UNL     1       9.048   2.981 -10.172  1.00  0.00     0.296 HD
ENDBRANCH  58  60
ENDBRANCH  48  58
ENDBRANCH  46  48
ENDBRANCH  34  44
ENDBRANCH  32  34
ENDBRANCH  25  30
ENDBRANCH  23  25
ENDBRANCH   2  23
TORSDOF 28
ENDMDL
MODEL 45
REMARK VINA RESULT:    -6.784     14.578     19.786
REMARK INTER + INTRA:         -22.204
REMARK INTER:                 -18.883
REMARK INTRA:                  -3.321
REMARK UNBOUND:                -5.306
REMARK SMILES CCCCCCC[C@H](N)[C@H](O)C(=O)N[C@H](C)C(=O)N(C)[C@H](CC(C)C)C(=O)N[C@@H](Cc1ccc(O)cc1)C(=O)N[C@@H](Cc1ccc(O)cc1)C(=O)O
REMARK SMILES IDX 18 1 17 2 15 3 16 4 14 5 12 6 13 7 10 9 11 10 8 12 9 13 7 16
REMARK SMILES IDX 6 17 5 18 4 19 3 20 2 21 1 22 19 23 20 24 21 25 22 26 23 27
REMARK SMILES IDX 24 28 25 29 26 30 27 31 28 32 29 34 30 35 31 36 32 37 37 38
REMARK SMILES IDX 33 39 36 40 34 41 35 42 38 44 39 45 40 46 41 48 42 49 43 50
REMARK SMILES IDX 44 51 49 52 45 53 48 54 46 55 47 56 50 58 51 59 52 60
REMARK H PARENT 14 8 11 11 9 14 9 15 28 33 35 43 40 47 47 57 52 61
ROOT
ATOM      1  O   UNL     1       8.540  -5.165 -15.551  1.00  0.00    -0.272 OA
ATOM      2  C   UNL     1       9.717  -4.788 -15.454  1.00  0.00     0.245 C 
ENDROOT
BRANCH   2   3
ATOM      3  C   UNL     1      10.780  -5.798 -14.954  1.00  0.00     0.168 C 
ATOM      4  C   UNL     1      11.717  -5.142 -13.946  1.00  0.00     0.041 C 
BRANCH   3   5
ATOM      5  N   UNL     1      10.242  -7.055 -14.456  1.00  0.00    -0.342 N 
ATOM      6  C   UNL     1      10.959  -8.230 -14.523  1.00  0.00     0.251 C 
ATOM      7  O   UNL     1      12.071  -8.317 -15.035  1.00  0.00    -0.272 OA
ATOM      8  H   UNL     1       9.315  -7.114 -14.041  1.00  0.00     0.164 HD
BRANCH   6   9
ATOM      9  C   UNL     1      10.256  -9.397 -13.811  1.00  0.00     0.219 C 
BRANCH   9  10
ATOM     10  O   UNL     1       9.486  -8.971 -12.680  1.00  0.00    -0.382 OA
ATOM     11  H   UNL     1       9.878  -8.100 -12.448  1.00  0.00     0.211 HD
ENDBRANCH   9  10
BRANCH   9  12
ATOM     12  C   UNL     1       9.397 -10.264 -14.767  1.00  0.00     0.089 C 
BRANCH  12  13
ATOM     13  N   UNL     1       9.196  -9.512 -16.027  1.00  0.00    -0.325 NA
ATOM     14  H   UNL     1       9.450 -10.108 -16.817  1.00  0.00     0.119 HD
ATOM     15  H   UNL     1       9.857  -8.733 -16.056  1.00  0.00     0.119 HD
ENDBRANCH  12  13
BRANCH  12  16
ATOM     16  C   UNL     1       9.943 -11.679 -15.074  1.00  0.00     0.022 C 
BRANCH  16  17
ATOM     17  C   UNL     1      10.016 -12.714 -13.942  1.00  0.00     0.002 C 
BRANCH  17  18
ATOM     18  C   UNL     1      11.369 -12.807 -13.240  1.00  0.00     0.000 C 
BRANCH  18  19
ATOM     19  C   UNL     1      12.165 -14.073 -13.585  1.00  0.00    -0.000 C 
BRANCH  19  20
ATOM     20  C   UNL     1      11.345 -15.365 -13.629  1.00  0.00    -0.000 C 
BRANCH  20  21
ATOM     21  C   UNL     1      11.340 -16.025 -15.010  1.00  0.00    -0.003 C 
ATOM     22  C   UNL     1      10.439 -17.250 -15.036  1.00  0.00     0.004 C 
ENDBRANCH  20  21
ENDBRANCH  19  20
ENDBRANCH  18  19
ENDBRANCH  17  18
ENDBRANCH  16  17
ENDBRANCH  12  16
ENDBRANCH   9  12
ENDBRANCH   6   9
ENDBRANCH   3   5
ENDBRANCH   2   3
BRANCH   2  23
ATOM     23  N   UNL     1      10.082  -3.524 -15.906  1.00  0.00    -0.332 N 
ATOM     24  C   UNL     1      10.972  -3.274 -17.029  1.00  0.00     0.147 C 
BRANCH  23  25
ATOM     25  C   UNL     1       9.456  -2.308 -15.319  1.00  0.00     0.174 C 
BRANCH  25  26
ATOM     26  C   UNL     1      10.268  -1.020 -15.594  1.00  0.00     0.038 C 
BRANCH  26  27
ATOM     27  C   UNL     1       9.475   0.222 -16.057  1.00  0.00    -0.015 C 
ATOM     28  C   UNL     1       8.134  -0.144 -16.693  1.00  0.00     0.007 C 
ATOM     29  C   UNL     1       9.281   1.264 -14.957  1.00  0.00     0.007 C 
ENDBRANCH  26  27
ENDBRANCH  25  26
BRANCH  25  30
ATOM     30  C   UNL     1       9.146  -2.538 -13.822  1.00  0.00     0.243 C 
ATOM     31  O   UNL     1      10.026  -2.507 -12.963  1.00  0.00    -0.273 OA
ATOM     32  N   UNL     1       7.832  -2.785 -13.519  1.00  0.00    -0.342 N 
ATOM     33  H   UNL     1       7.142  -2.655 -14.264  1.00  0.00     0.164 HD
BRANCH  32  34
ATOM     34  C   UNL     1       7.359  -3.053 -12.158  1.00  0.00     0.175 C 
BRANCH  34  35
ATOM     35  C   UNL     1       7.668  -1.878 -11.218  1.00  0.00     0.070 C 
BRANCH  35  36
ATOM     36  C   UNL     1       8.162  -2.329  -9.862  1.00  0.00    -0.045 A 
ATOM     37  C   UNL     1       9.385  -3.009  -9.751  1.00  0.00     0.007 A 
ATOM     38  C   UNL     1       7.404  -2.097  -8.707  1.00  0.00     0.007 A 
ATOM     39  C   UNL     1       9.843  -3.441  -8.506  1.00  0.00     0.046 A 
ATOM     40  C   UNL     1       7.862  -2.531  -7.460  1.00  0.00     0.046 A 
ATOM     41  C   UNL     1       9.079  -3.198  -7.371  1.00  0.00     0.115 A 
BRANCH  41  42
ATOM     42  O   UNL     1       9.561  -3.640  -6.175  1.00  0.00    -0.508 OA
ATOM     43  H   UNL     1      10.076  -4.448  -6.333  1.00  0.00     0.293 HD
ENDBRANCH  41  42
ENDBRANCH  35  36
ENDBRANCH  34  35
BRANCH  34  44
ATOM     44  C   UNL     1       5.844  -3.353 -12.228  1.00  0.00     0.243 C 
ATOM     45  O   UNL     1       5.088  -3.337 -11.261  1.00  0.00    -0.273 OA
ATOM     46  N   UNL     1       5.426  -3.777 -13.472  1.00  0.00    -0.341 N 
ATOM     47  H   UNL     1       6.113  -3.887 -14.214  1.00  0.00     0.164 HD
BRANCH  46  48
ATOM     48  C   UNL     1       4.049  -4.184 -13.764  1.00  0.00     0.196 C 
BRANCH  48  49
ATOM     49  C   UNL     1       3.299  -3.097 -14.552  1.00  0.00     0.072 C 
BRANCH  49  50
ATOM     50  C   UNL     1       2.480  -2.192 -13.660  1.00  0.00    -0.045 A 
ATOM     51  C   UNL     1       2.472  -0.808 -13.888  1.00  0.00     0.007 A 
ATOM     52  C   UNL     1       1.741  -2.711 -12.590  1.00  0.00     0.007 A 
ATOM     53  C   UNL     1       1.731   0.039 -13.064  1.00  0.00     0.046 A 
ATOM     54  C   UNL     1       1.000  -1.863 -11.764  1.00  0.00     0.046 A 
ATOM     55  C   UNL     1       1.000  -0.495 -12.009  1.00  0.00     0.115 A 
BRANCH  55  56
ATOM     56  O   UNL     1       0.291   0.367 -11.226  1.00  0.00    -0.508 OA
ATOM     57  H   UNL     1      -0.474  -0.108 -10.864  1.00  0.00     0.293 HD
ENDBRANCH  55  56
ENDBRANCH  49  50
ENDBRANCH  48  49
BRANCH  48  58
ATOM     58  C   UNL     1       4.075  -5.485 -14.577  1.00  0.00     0.326 C 
ATOM     59  O   UNL     1       3.371  -5.775 -15.531  1.00  0.00    -0.250 OA
BRANCH  58  60
ATOM     60  O   UNL     1       5.013  -6.370 -14.154  1.00  0.00    -0.480 OA
ATOM     61  H   UNL     1       5.480  -5.881 -13.442  1.00  0.00     0.296 HD
ENDBRANCH  58  60
ENDBRANCH  48  58
ENDBRANCH  46  48
ENDBRANCH  34  44
ENDBRANCH  32  34
ENDBRANCH  25  30
ENDBRANCH  23  25
ENDBRANCH   2  23
TORSDOF 28
ENDMDL
MODEL 46
REMARK VINA RESULT:    -6.766      3.628      6.823
REMARK INTER + INTRA:         -22.158
REMARK INTER:                 -18.472
REMARK INTRA:                  -3.686
REMARK UNBOUND:                -5.306
REMARK SMILES CCCCCCC[C@H](N)[C@H](O)C(=O)N[C@H](C)C(=O)N(C)[C@H](CC(C)C)C(=O)N[C@@H](Cc1ccc(O)cc1)C(=O)N[C@@H](Cc1ccc(O)cc1)C(=O)O
REMARK SMILES IDX 18 1 17 2 15 3 16 4 14 5 12 6 13 7 10 9 11 10 8 12 9 13 7 16
REMARK SMILES IDX 6 17 5 18 4 19 3 20 2 21 1 22 19 23 20 24 21 25 22 26 23 27
REMARK SMILES IDX 24 28 25 29 26 30 27 31 28 32 29 34 30 35 31 36 32 37 37 38
REMARK SMILES IDX 33 39 36 40 34 41 35 42 38 44 39 45 40 46 41 48 42 49 43 50
REMARK SMILES IDX 44 51 49 52 45 53 48 54 46 55 47 56 50 58 51 59 52 60
REMARK H PARENT 14 8 11 11 9 14 9 15 28 33 35 43 40 47 47 57 52 61
ROOT
ATOM      1  O   UNL     1      -5.032  -8.427  -2.766  1.00  0.00    -0.272 OA
ATOM      2  C   UNL     1      -3.917  -8.755  -3.198  1.00  0.00     0.245 C 
ENDROOT
BRANCH   2   3
ATOM      3  C   UNL     1      -3.674 -10.238  -3.573  1.00  0.00     0.168 C 
ATOM      4  C   UNL     1      -4.890 -11.090  -3.227  1.00  0.00     0.041 C 
BRANCH   3   5
ATOM      5  N   UNL     1      -3.229 -10.458  -4.940  1.00  0.00    -0.342 N 
ATOM      6  C   UNL     1      -2.474 -11.557  -5.292  1.00  0.00     0.251 C 
ATOM      7  O   UNL     1      -2.089 -12.399  -4.488  1.00  0.00    -0.272 OA
ATOM      8  H   UNL     1      -3.457  -9.808  -5.689  1.00  0.00     0.164 HD
BRANCH   6   9
ATOM      9  C   UNL     1      -2.242 -11.657  -6.808  1.00  0.00     0.219 C 
BRANCH   9  10
ATOM     10  O   UNL     1      -3.464 -11.647  -7.556  1.00  0.00    -0.382 OA
ATOM     11  H   UNL     1      -4.154 -11.514  -6.870  1.00  0.00     0.211 HD
ENDBRANCH   9  10
BRANCH   9  12
ATOM     12  C   UNL     1      -1.258 -10.585  -7.346  1.00  0.00     0.089 C 
BRANCH  12  13
ATOM     13  N   UNL     1      -1.886  -9.254  -7.188  1.00  0.00    -0.325 NA
ATOM     14  H   UNL     1      -1.240  -8.536  -7.520  1.00  0.00     0.119 HD
ATOM     15  H   UNL     1      -2.009  -9.062  -6.191  1.00  0.00     0.119 HD
ENDBRANCH  12  13
BRANCH  12  16
ATOM     16  C   UNL     1       0.155 -10.585  -6.716  1.00  0.00     0.022 C 
BRANCH  16  17
ATOM     17  C   UNL     1       1.383 -10.643  -7.635  1.00  0.00     0.002 C 
BRANCH  17  18
ATOM     18  C   UNL     1       2.232 -11.905  -7.497  1.00  0.00     0.000 C 
BRANCH  18  19
ATOM     19  C   UNL     1       1.414 -13.190  -7.311  1.00  0.00    -0.000 C 
BRANCH  19  20
ATOM     20  C   UNL     1       0.929 -13.845  -8.607  1.00  0.00    -0.000 C 
BRANCH  20  21
ATOM     21  C   UNL     1       0.014 -15.049  -8.364  1.00  0.00    -0.003 C 
ATOM     22  C   UNL     1      -0.811 -15.376  -9.599  1.00  0.00     0.004 C 
ENDBRANCH  20  21
ENDBRANCH  19  20
ENDBRANCH  18  19
ENDBRANCH  17  18
ENDBRANCH  16  17
ENDBRANCH  12  16
ENDBRANCH   9  12
ENDBRANCH   6   9
ENDBRANCH   3   5
ENDBRANCH   2   3
BRANCH   2  23
ATOM     23  N   UNL     1      -2.957  -7.781  -3.453  1.00  0.00    -0.332 N 
ATOM     24  C   UNL     1      -1.521  -7.988  -3.337  1.00  0.00     0.147 C 
BRANCH  23  25
ATOM     25  C   UNL     1      -3.357  -6.457  -4.002  1.00  0.00     0.174 C 
BRANCH  25  26
ATOM     26  C   UNL     1      -2.400  -5.949  -5.106  1.00  0.00     0.038 C 
BRANCH  26  27
ATOM     27  C   UNL     1      -3.048  -5.422  -6.406  1.00  0.00    -0.015 C 
ATOM     28  C   UNL     1      -3.959  -4.220  -6.159  1.00  0.00     0.007 C 
ATOM     29  C   UNL     1      -2.036  -5.112  -7.506  1.00  0.00     0.007 C 
ENDBRANCH  26  27
ENDBRANCH  25  26
BRANCH  25  30
ATOM     30  C   UNL     1      -3.571  -5.446  -2.852  1.00  0.00     0.243 C 
ATOM     31  O   UNL     1      -2.983  -4.366  -2.818  1.00  0.00    -0.273 OA
ATOM     32  N   UNL     1      -4.450  -5.837  -1.875  1.00  0.00    -0.342 N 
ATOM     33  H   UNL     1      -5.003  -6.681  -2.045  1.00  0.00     0.164 HD
BRANCH  32  34
ATOM     34  C   UNL     1      -4.754  -5.020  -0.697  1.00  0.00     0.175 C 
BRANCH  34  35
ATOM     35  C   UNL     1      -6.019  -4.174  -0.915  1.00  0.00     0.070 C 
BRANCH  35  36
ATOM     36  C   UNL     1      -5.945  -2.826  -0.235  1.00  0.00    -0.045 A 
ATOM     37  C   UNL     1      -4.708  -2.324   0.197  1.00  0.00     0.007 A 
ATOM     38  C   UNL     1      -7.103  -2.072  -0.006  1.00  0.00     0.007 A 
ATOM     39  C   UNL     1      -4.631  -1.088   0.837  1.00  0.00     0.046 A 
ATOM     40  C   UNL     1      -7.028  -0.834   0.637  1.00  0.00     0.046 A 
ATOM     41  C   UNL     1      -5.791  -0.352   1.052  1.00  0.00     0.115 A 
BRANCH  41  42
ATOM     42  O   UNL     1      -5.673   0.850   1.684  1.00  0.00    -0.508 OA
ATOM     43  H   UNL     1      -4.740   0.981   1.918  1.00  0.00     0.293 HD
ENDBRANCH  41  42
ENDBRANCH  35  36
ENDBRANCH  34  35
BRANCH  34  44
ATOM     44  C   UNL     1      -4.894  -5.965   0.518  1.00  0.00     0.243 C 
ATOM     45  O   UNL     1      -4.360  -5.777   1.607  1.00  0.00    -0.273 OA
ATOM     46  N   UNL     1      -5.578  -7.127   0.233  1.00  0.00    -0.341 N 
ATOM     47  H   UNL     1      -5.902  -7.290  -0.718  1.00  0.00     0.164 HD
BRANCH  46  48
ATOM     48  C   UNL     1      -5.778  -8.204   1.206  1.00  0.00     0.196 C 
BRANCH  48  49
ATOM     49  C   UNL     1      -7.266  -8.374   1.554  1.00  0.00     0.072 C 
BRANCH  49  50
ATOM     50  C   UNL     1      -7.625  -7.765   2.890  1.00  0.00    -0.045 A 
ATOM     51  C   UNL     1      -6.631  -7.578   3.863  1.00  0.00     0.007 A 
ATOM     52  C   UNL     1      -8.945  -7.399   3.185  1.00  0.00     0.007 A 
ATOM     53  C   UNL     1      -6.953  -7.028   5.104  1.00  0.00     0.046 A 
ATOM     54  C   UNL     1      -9.267  -6.850   4.428  1.00  0.00     0.046 A 
ATOM     55  C   UNL     1      -8.267  -6.668   5.377  1.00  0.00     0.115 A 
BRANCH  55  56
ATOM     56  O   UNL     1      -8.539  -6.137   6.603  1.00  0.00    -0.508 OA
ATOM     57  H   UNL     1      -7.808  -5.549   6.851  1.00  0.00     0.293 HD
ENDBRANCH  55  56
ENDBRANCH  49  50
ENDBRANCH  48  49
BRANCH  48  58
ATOM     58  C   UNL     1      -5.233  -9.514   0.620  1.00  0.00     0.326 C 
ATOM     59  O   UNL     1      -5.748 -10.619   0.676  1.00  0.00    -0.250 OA
BRANCH  58  60
ATOM     60  O   UNL     1      -4.052  -9.365  -0.031  1.00  0.00    -0.480 OA
ATOM     61  H   UNL     1      -3.539 -10.155   0.247  1.00  0.00     0.296 HD
ENDBRANCH  58  60
ENDBRANCH  48  58
ENDBRANCH  46  48
ENDBRANCH  34  44
ENDBRANCH  32  34
ENDBRANCH  25  30
ENDBRANCH  23  25
ENDBRANCH   2  23
TORSDOF 28
ENDMDL
MODEL 47
REMARK VINA RESULT:    -6.732      2.687      9.476
REMARK INTER + INTRA:         -22.075
REMARK INTER:                 -17.541
REMARK INTRA:                  -4.534
REMARK UNBOUND:                -5.306
REMARK SMILES CCCCCCC[C@H](N)[C@H](O)C(=O)N[C@H](C)C(=O)N(C)[C@H](CC(C)C)C(=O)N[C@@H](Cc1ccc(O)cc1)C(=O)N[C@@H](Cc1ccc(O)cc1)C(=O)O
REMARK SMILES IDX 18 1 17 2 15 3 16 4 14 5 12 6 13 7 10 9 11 10 8 12 9 13 7 16
REMARK SMILES IDX 6 17 5 18 4 19 3 20 2 21 1 22 19 23 20 24 21 25 22 26 23 27
REMARK SMILES IDX 24 28 25 29 26 30 27 31 28 32 29 34 30 35 31 36 32 37 37 38
REMARK SMILES IDX 33 39 36 40 34 41 35 42 38 44 39 45 40 46 41 48 42 49 43 50
REMARK SMILES IDX 44 51 49 52 45 53 48 54 46 55 47 56 50 58 51 59 52 60
REMARK H PARENT 14 8 11 11 9 14 9 15 28 33 35 43 40 47 47 57 52 61
ROOT
ATOM      1  O   UNL     1      -6.776  -4.481   2.221  1.00  0.00    -0.272 OA
ATOM      2  C   UNL     1      -7.357  -3.496   1.742  1.00  0.00     0.245 C 
ENDROOT
BRANCH   2   3
ATOM      3  C   UNL     1      -8.851  -3.275   2.091  1.00  0.00     0.168 C 
ATOM      4  C   UNL     1      -9.645  -4.565   1.912  1.00  0.00     0.041 C 
BRANCH   3   5
ATOM      5  N   UNL     1      -9.091  -2.667   3.390  1.00  0.00    -0.342 N 
ATOM      6  C   UNL     1     -10.043  -1.685   3.569  1.00  0.00     0.251 C 
ATOM      7  O   UNL     1     -10.721  -1.226   2.655  1.00  0.00    -0.272 OA
ATOM      8  H   UNL     1      -8.566  -2.941   4.217  1.00  0.00     0.164 HD
BRANCH   6   9
ATOM      9  C   UNL     1     -10.222  -1.292   5.044  1.00  0.00     0.219 C 
BRANCH   9  10
ATOM     10  O   UNL     1     -10.979  -0.087   5.207  1.00  0.00    -0.382 OA
ATOM     11  H   UNL     1     -10.670   0.482   4.468  1.00  0.00     0.211 HD
ENDBRANCH   9  10
BRANCH   9  12
ATOM     12  C   UNL     1     -10.813  -2.435   5.911  1.00  0.00     0.089 C 
BRANCH  12  13
ATOM     13  N   UNL     1     -11.602  -3.328   5.032  1.00  0.00    -0.325 NA
ATOM     14  H   UNL     1     -10.975  -3.787   4.369  1.00  0.00     0.119 HD
ATOM     15  H   UNL     1     -12.228  -2.759   4.457  1.00  0.00     0.119 HD
ENDBRANCH  12  13
BRANCH  12  16
ATOM     16  C   UNL     1      -9.793  -3.261   6.731  1.00  0.00     0.022 C 
BRANCH  16  17
ATOM     17  C   UNL     1      -9.722  -4.780   6.521  1.00  0.00     0.002 C 
BRANCH  17  18
ATOM     18  C   UNL     1      -8.337  -5.393   6.714  1.00  0.00     0.000 C 
BRANCH  18  19
ATOM     19  C   UNL     1      -7.573  -5.635   5.405  1.00  0.00    -0.000 C 
BRANCH  19  20
ATOM     20  C   UNL     1      -7.461  -7.102   4.980  1.00  0.00    -0.000 C 
BRANCH  20  21
ATOM     21  C   UNL     1      -6.259  -7.372   4.071  1.00  0.00    -0.003 C 
ATOM     22  C   UNL     1      -6.681  -8.074   2.789  1.00  0.00     0.004 C 
ENDBRANCH  20  21
ENDBRANCH  19  20
ENDBRANCH  18  19
ENDBRANCH  17  18
ENDBRANCH  16  17
ENDBRANCH  12  16
ENDBRANCH   9  12
ENDBRANCH   6   9
ENDBRANCH   3   5
ENDBRANCH   2   3
BRANCH   2  23
ATOM     23  N   UNL     1      -6.642  -2.552   1.013  1.00  0.00    -0.332 N 
ATOM     24  C   UNL     1      -7.216  -1.345   0.438  1.00  0.00     0.147 C 
BRANCH  23  25
ATOM     25  C   UNL     1      -5.164  -2.667   0.882  1.00  0.00     0.174 C 
BRANCH  25  26
ATOM     26  C   UNL     1      -4.462  -1.295   0.745  1.00  0.00     0.038 C 
BRANCH  26  27
ATOM     27  C   UNL     1      -3.819  -0.708   2.022  1.00  0.00    -0.015 C 
ATOM     28  C   UNL     1      -4.840  -0.019   2.927  1.00  0.00     0.007 C 
ATOM     29  C   UNL     1      -3.000  -1.725   2.812  1.00  0.00     0.007 C 
ENDBRANCH  26  27
ENDBRANCH  25  26
BRANCH  25  30
ATOM     30  C   UNL     1      -4.805  -3.663  -0.245  1.00  0.00     0.243 C 
ATOM     31  O   UNL     1      -4.013  -4.587  -0.069  1.00  0.00    -0.273 OA
ATOM     32  N   UNL     1      -5.422  -3.443  -1.450  1.00  0.00    -0.342 N 
ATOM     33  H   UNL     1      -6.171  -2.745  -1.478  1.00  0.00     0.164 HD
BRANCH  32  34
ATOM     34  C   UNL     1      -5.183  -4.269  -2.636  1.00  0.00     0.175 C 
BRANCH  34  35
ATOM     35  C   UNL     1      -3.694  -4.279  -3.018  1.00  0.00     0.070 C 
BRANCH  35  36
ATOM     36  C   UNL     1      -3.454  -3.843  -4.446  1.00  0.00    -0.045 A 
ATOM     37  C   UNL     1      -2.167  -3.465  -4.857  1.00  0.00     0.007 A 
ATOM     38  C   UNL     1      -4.508  -3.788  -5.368  1.00  0.00     0.007 A 
ATOM     39  C   UNL     1      -1.938  -3.048  -6.169  1.00  0.00     0.046 A 
ATOM     40  C   UNL     1      -4.279  -3.369  -6.681  1.00  0.00     0.046 A 
ATOM     41  C   UNL     1      -2.995  -3.004  -7.070  1.00  0.00     0.115 A 
BRANCH  41  42
ATOM     42  O   UNL     1      -2.729  -2.588  -8.341  1.00  0.00    -0.508 OA
ATOM     43  H   UNL     1      -3.347  -1.872  -8.562  1.00  0.00     0.293 HD
ENDBRANCH  41  42
ENDBRANCH  35  36
ENDBRANCH  34  35
BRANCH  34  44
ATOM     44  C   UNL     1      -5.714  -5.690  -2.346  1.00  0.00     0.243 C 
ATOM     45  O   UNL     1      -6.830  -5.935  -1.895  1.00  0.00    -0.273 OA
ATOM     46  N   UNL     1      -4.766  -6.676  -2.517  1.00  0.00    -0.341 N 
ATOM     47  H   UNL     1      -3.820  -6.411  -2.780  1.00  0.00     0.164 HD
BRANCH  46  48
ATOM     48  C   UNL     1      -5.016  -8.092  -2.237  1.00  0.00     0.196 C 
BRANCH  48  49
ATOM     49  C   UNL     1      -4.276  -8.999  -3.234  1.00  0.00     0.072 C 
BRANCH  49  50
ATOM     50  C   UNL     1      -3.180  -8.272  -3.980  1.00  0.00    -0.045 A 
ATOM     51  C   UNL     1      -1.933  -8.071  -3.369  1.00  0.00     0.007 A 
ATOM     52  C   UNL     1      -3.395  -7.773  -5.271  1.00  0.00     0.007 A 
ATOM     53  C   UNL     1      -0.919  -7.390  -4.042  1.00  0.00     0.046 A 
ATOM     54  C   UNL     1      -2.380  -7.090  -5.944  1.00  0.00     0.046 A 
ATOM     55  C   UNL     1      -1.149  -6.905  -5.324  1.00  0.00     0.115 A 
BRANCH  55  56
ATOM     56  O   UNL     1      -0.133  -6.243  -5.947  1.00  0.00    -0.508 OA
ATOM     57  H   UNL     1       0.697  -6.710  -5.759  1.00  0.00     0.293 HD
ENDBRANCH  55  56
ENDBRANCH  49  50
ENDBRANCH  48  49
BRANCH  48  58
ATOM     58  C   UNL     1      -4.549  -8.408  -0.809  1.00  0.00     0.326 C 
ATOM     59  O   UNL     1      -4.141  -9.477  -0.385  1.00  0.00    -0.250 OA
BRANCH  58  60
ATOM     60  O   UNL     1      -4.607  -7.342   0.028  1.00  0.00    -0.480 OA
ATOM     61  H   UNL     1      -4.707  -7.755   0.913  1.00  0.00     0.296 HD
ENDBRANCH  58  60
ENDBRANCH  48  58
ENDBRANCH  46  48
ENDBRANCH  34  44
ENDBRANCH  32  34
ENDBRANCH  25  30
ENDBRANCH  23  25
ENDBRANCH   2  23
TORSDOF 28
ENDMDL
MODEL 48
REMARK VINA RESULT:    -6.725      8.261     13.259
REMARK INTER + INTRA:         -22.056
REMARK INTER:                 -17.637
REMARK INTRA:                  -4.419
REMARK UNBOUND:                -5.306
REMARK SMILES CCCCCCC[C@H](N)[C@H](O)C(=O)N[C@H](C)C(=O)N(C)[C@H](CC(C)C)C(=O)N[C@@H](Cc1ccc(O)cc1)C(=O)N[C@@H](Cc1ccc(O)cc1)C(=O)O
REMARK SMILES IDX 18 1 17 2 15 3 16 4 14 5 12 6 13 7 10 9 11 10 8 12 9 13 7 16
REMARK SMILES IDX 6 17 5 18 4 19 3 20 2 21 1 22 19 23 20 24 21 25 22 26 23 27
REMARK SMILES IDX 24 28 25 29 26 30 27 31 28 32 29 34 30 35 31 36 32 37 37 38
REMARK SMILES IDX 33 39 36 40 34 41 35 42 38 44 39 45 40 46 41 48 42 49 43 50
REMARK SMILES IDX 44 51 49 52 45 53 48 54 46 55 47 56 50 58 51 59 52 60
REMARK H PARENT 14 8 11 11 9 14 9 15 28 33 35 43 40 47 47 57 52 61
ROOT
ATOM      1  O   UNL     1       2.089  -7.904 -10.885  1.00  0.00    -0.272 OA
ATOM      2  C   UNL     1       1.974  -7.643  -9.678  1.00  0.00     0.245 C 
ENDROOT
BRANCH   2   3
ATOM      3  C   UNL     1       0.906  -8.405  -8.853  1.00  0.00     0.168 C 
ATOM      4  C   UNL     1      -0.143  -7.444  -8.306  1.00  0.00     0.041 C 
BRANCH   3   5
ATOM      5  N   UNL     1       0.301  -9.538  -9.536  1.00  0.00    -0.342 N 
ATOM      6  C   UNL     1      -0.199 -10.622  -8.846  1.00  0.00     0.251 C 
ATOM      7  O   UNL     1      -0.137 -10.734  -7.626  1.00  0.00    -0.272 OA
ATOM      8  H   UNL     1       0.224  -9.574 -10.550  1.00  0.00     0.164 HD
BRANCH   6   9
ATOM      9  C   UNL     1      -0.918 -11.628  -9.759  1.00  0.00     0.219 C 
BRANCH   9  10
ATOM     10  O   UNL     1      -1.773 -10.992 -10.717  1.00  0.00    -0.382 OA
ATOM     11  H   UNL     1      -1.147 -10.629 -11.381  1.00  0.00     0.211 HD
ENDBRANCH   9  10
BRANCH   9  12
ATOM     12  C   UNL     1       0.052 -12.617 -10.458  1.00  0.00     0.089 C 
BRANCH  12  13
ATOM     13  N   UNL     1       0.590 -11.964 -11.673  1.00  0.00    -0.325 NA
ATOM     14  H   UNL     1       1.584 -11.769 -11.537  1.00  0.00     0.119 HD
ATOM     15  H   UNL     1       0.151 -11.047 -11.778  1.00  0.00     0.119 HD
ENDBRANCH  12  13
BRANCH  12  16
ATOM     16  C   UNL     1       1.211 -13.158  -9.587  1.00  0.00     0.022 C 
BRANCH  16  17
ATOM     17  C   UNL     1       0.935 -14.305  -8.605  1.00  0.00     0.002 C 
BRANCH  17  18
ATOM     18  C   UNL     1      -0.293 -15.151  -8.931  1.00  0.00     0.000 C 
BRANCH  18  19
ATOM     19  C   UNL     1      -1.431 -15.020  -7.910  1.00  0.00    -0.000 C 
BRANCH  19  20
ATOM     20  C   UNL     1      -1.259 -13.895  -6.886  1.00  0.00    -0.000 C 
BRANCH  20  21
ATOM     21  C   UNL     1      -2.589 -13.278  -6.443  1.00  0.00    -0.003 C 
ATOM     22  C   UNL     1      -2.496 -12.710  -5.036  1.00  0.00     0.004 C 
ENDBRANCH  20  21
ENDBRANCH  19  20
ENDBRANCH  18  19
ENDBRANCH  17  18
ENDBRANCH  16  17
ENDBRANCH  12  16
ENDBRANCH   9  12
ENDBRANCH   6   9
ENDBRANCH   3   5
ENDBRANCH   2   3
BRANCH   2  23
ATOM     23  N   UNL     1       2.870  -6.774  -9.066  1.00  0.00    -0.332 N 
ATOM     24  C   UNL     1       3.675  -7.105  -7.899  1.00  0.00     0.147 C 
BRANCH  23  25
ATOM     25  C   UNL     1       3.161  -5.445  -9.671  1.00  0.00     0.174 C 
BRANCH  25  26
ATOM     26  C   UNL     1       4.512  -4.854  -9.204  1.00  0.00     0.038 C 
BRANCH  26  27
ATOM     27  C   UNL     1       4.928  -3.494  -9.810  1.00  0.00    -0.015 C 
ATOM     28  C   UNL     1       6.305  -3.037  -9.330  1.00  0.00     0.007 C 
ATOM     29  C   UNL     1       4.851  -3.460 -11.334  1.00  0.00     0.007 C 
ENDBRANCH  26  27
ENDBRANCH  25  26
BRANCH  25  30
ATOM     30  C   UNL     1       1.961  -4.493  -9.465  1.00  0.00     0.243 C 
ATOM     31  O   UNL     1       1.732  -3.961  -8.380  1.00  0.00    -0.273 OA
ATOM     32  N   UNL     1       1.171  -4.287 -10.566  1.00  0.00    -0.342 N 
ATOM     33  H   UNL     1       1.505  -4.649 -11.463  1.00  0.00     0.164 HD
BRANCH  32  34
ATOM     34  C   UNL     1      -0.023  -3.438 -10.549  1.00  0.00     0.175 C 
BRANCH  34  35
ATOM     35  C   UNL     1      -0.471  -3.075 -11.974  1.00  0.00     0.070 C 
BRANCH  35  36
ATOM     36  C   UNL     1       0.636  -2.454 -12.794  1.00  0.00    -0.045 A 
ATOM     37  C   UNL     1       1.435  -3.260 -13.619  1.00  0.00     0.007 A 
ATOM     38  C   UNL     1       0.896  -1.078 -12.727  1.00  0.00     0.007 A 
ATOM     39  C   UNL     1       2.468  -2.697 -14.370  1.00  0.00     0.046 A 
ATOM     40  C   UNL     1       1.931  -0.515 -13.477  1.00  0.00     0.046 A 
ATOM     41  C   UNL     1       2.708  -1.331 -14.294  1.00  0.00     0.115 A 
BRANCH  41  42
ATOM     42  O   UNL     1       3.728  -0.821 -15.040  1.00  0.00    -0.508 OA
ATOM     43  H   UNL     1       4.561  -0.980 -14.566  1.00  0.00     0.293 HD
ENDBRANCH  41  42
ENDBRANCH  35  36
ENDBRANCH  34  35
BRANCH  34  44
ATOM     44  C   UNL     1      -1.129  -4.183  -9.769  1.00  0.00     0.243 C 
ATOM     45  O   UNL     1      -1.792  -5.113 -10.221  1.00  0.00    -0.273 OA
ATOM     46  N   UNL     1      -1.406  -3.623  -8.540  1.00  0.00    -0.341 N 
ATOM     47  H   UNL     1      -0.909  -2.781  -8.257  1.00  0.00     0.164 HD
BRANCH  46  48
ATOM     48  C   UNL     1      -2.460  -4.114  -7.649  1.00  0.00     0.196 C 
BRANCH  48  49
ATOM     49  C   UNL     1      -1.988  -4.144  -6.186  1.00  0.00     0.072 C 
BRANCH  49  50
ATOM     50  C   UNL     1      -1.895  -5.548  -5.633  1.00  0.00    -0.045 A 
ATOM     51  C   UNL     1      -0.777  -5.929  -4.877  1.00  0.00     0.007 A 
ATOM     52  C   UNL     1      -2.902  -6.489  -5.882  1.00  0.00     0.007 A 
ATOM     53  C   UNL     1      -0.673  -7.226  -4.373  1.00  0.00     0.046 A 
ATOM     54  C   UNL     1      -2.799  -7.787  -5.378  1.00  0.00     0.046 A 
ATOM     55  C   UNL     1      -1.684  -8.144  -4.627  1.00  0.00     0.115 A 
BRANCH  55  56
ATOM     56  O   UNL     1      -1.544  -9.402  -4.118  1.00  0.00    -0.508 OA
ATOM     57  H   UNL     1      -0.604  -9.640  -4.146  1.00  0.00     0.293 HD
ENDBRANCH  55  56
ENDBRANCH  49  50
ENDBRANCH  48  49
BRANCH  48  58
ATOM     58  C   UNL     1      -3.686  -3.199  -7.776  1.00  0.00     0.326 C 
ATOM     59  O   UNL     1      -4.644  -3.138  -7.022  1.00  0.00    -0.250 OA
BRANCH  58  60
ATOM     60  O   UNL     1      -3.641  -2.380  -8.856  1.00  0.00    -0.480 OA
ATOM     61  H   UNL     1      -4.528  -2.492  -9.262  1.00  0.00     0.296 HD
ENDBRANCH  58  60
ENDBRANCH  48  58
ENDBRANCH  46  48
ENDBRANCH  34  44
ENDBRANCH  32  34
ENDBRANCH  25  30
ENDBRANCH  23  25
ENDBRANCH   2  23
TORSDOF 28
ENDMDL
MODEL 49
REMARK VINA RESULT:    -6.708      9.325     13.338
REMARK INTER + INTRA:         -22.015
REMARK INTER:                 -15.784
REMARK INTRA:                  -6.231
REMARK UNBOUND:                -5.306
REMARK SMILES CCCCCCC[C@H](N)[C@H](O)C(=O)N[C@H](C)C(=O)N(C)[C@H](CC(C)C)C(=O)N[C@@H](Cc1ccc(O)cc1)C(=O)N[C@@H](Cc1ccc(O)cc1)C(=O)O
REMARK SMILES IDX 18 1 17 2 15 3 16 4 14 5 12 6 13 7 10 9 11 10 8 12 9 13 7 16
REMARK SMILES IDX 6 17 5 18 4 19 3 20 2 21 1 22 19 23 20 24 21 25 22 26 23 27
REMARK SMILES IDX 24 28 25 29 26 30 27 31 28 32 29 34 30 35 31 36 32 37 37 38
REMARK SMILES IDX 33 39 36 40 34 41 35 42 38 44 39 45 40 46 41 48 42 49 43 50
REMARK SMILES IDX 44 51 49 52 45 53 48 54 46 55 47 56 50 58 51 59 52 60
REMARK H PARENT 14 8 11 11 9 14 9 15 28 33 35 43 40 47 47 57 52 61
ROOT
ATOM      1  O   UNL     1       1.938  -7.469  -7.164  1.00  0.00    -0.272 OA
ATOM      2  C   UNL     1       2.751  -7.996  -7.938  1.00  0.00     0.245 C 
ENDROOT
BRANCH   2   3
ATOM      3  C   UNL     1       4.249  -8.006  -7.545  1.00  0.00     0.168 C 
ATOM      4  C   UNL     1       4.888  -9.350  -7.880  1.00  0.00     0.041 C 
BRANCH   3   5
ATOM      5  N   UNL     1       5.025  -6.892  -8.066  1.00  0.00    -0.342 N 
ATOM      6  C   UNL     1       5.918  -6.196  -7.280  1.00  0.00     0.251 C 
ATOM      7  O   UNL     1       6.094  -6.428  -6.088  1.00  0.00    -0.272 OA
ATOM      8  H   UNL     1       4.939  -6.584  -9.032  1.00  0.00     0.164 HD
BRANCH   6   9
ATOM      9  C   UNL     1       6.727  -5.158  -8.074  1.00  0.00     0.219 C 
BRANCH   9  10
ATOM     10  O   UNL     1       6.837  -5.490  -9.464  1.00  0.00    -0.382 OA
ATOM     11  H   UNL     1       6.727  -6.466  -9.478  1.00  0.00     0.211 HD
ENDBRANCH   9  10
BRANCH   9  12
ATOM     12  C   UNL     1       6.203  -3.709  -7.894  1.00  0.00     0.089 C 
BRANCH  12  13
ATOM     13  N   UNL     1       5.740  -3.550  -6.497  1.00  0.00    -0.325 NA
ATOM     14  H   UNL     1       4.804  -3.141  -6.497  1.00  0.00     0.119 HD
ATOM     15  H   UNL     1       6.332  -2.861  -6.028  1.00  0.00     0.119 HD
ENDBRANCH  12  13
BRANCH  12  16
ATOM     16  C   UNL     1       7.196  -2.579  -8.257  1.00  0.00     0.022 C 
BRANCH  16  17
ATOM     17  C   UNL     1       7.132  -1.949  -9.655  1.00  0.00     0.002 C 
BRANCH  17  18
ATOM     18  C   UNL     1       6.263  -0.698  -9.759  1.00  0.00     0.000 C 
BRANCH  18  19
ATOM     19  C   UNL     1       5.247  -0.546  -8.620  1.00  0.00    -0.000 C 
BRANCH  19  20
ATOM     20  C   UNL     1       3.974   0.223  -8.982  1.00  0.00    -0.000 C 
BRANCH  20  21
ATOM     21  C   UNL     1       2.839  -0.686  -9.460  1.00  0.00    -0.003 C 
ATOM     22  C   UNL     1       3.080  -2.133  -9.056  1.00  0.00     0.004 C 
ENDBRANCH  20  21
ENDBRANCH  19  20
ENDBRANCH  18  19
ENDBRANCH  17  18
ENDBRANCH  16  17
ENDBRANCH  12  16
ENDBRANCH   9  12
ENDBRANCH   6   9
ENDBRANCH   3   5
ENDBRANCH   2   3
BRANCH   2  23
ATOM     23  N   UNL     1       2.299  -8.667  -9.070  1.00  0.00    -0.332 N 
ATOM     24  C   UNL     1       1.594  -9.940  -9.048  1.00  0.00     0.147 C 
BRANCH  23  25
ATOM     25  C   UNL     1       2.406  -8.033 -10.412  1.00  0.00     0.174 C 
BRANCH  25  26
ATOM     26  C   UNL     1       3.669  -8.475 -11.188  1.00  0.00     0.038 C 
BRANCH  26  27
ATOM     27  C   UNL     1       3.534  -8.621 -12.720  1.00  0.00    -0.015 C 
ATOM     28  C   UNL     1       3.994  -7.371 -13.469  1.00  0.00     0.007 C 
ATOM     29  C   UNL     1       4.224  -9.865 -13.275  1.00  0.00     0.007 C 
ENDBRANCH  26  27
ENDBRANCH  25  26
BRANCH  25  30
ATOM     30  C   UNL     1       2.258  -6.499 -10.289  1.00  0.00     0.243 C 
ATOM     31  O   UNL     1       3.233  -5.759 -10.173  1.00  0.00    -0.273 OA
ATOM     32  N   UNL     1       0.972  -6.024 -10.311  1.00  0.00    -0.342 N 
ATOM     33  H   UNL     1       0.227  -6.683 -10.552  1.00  0.00     0.164 HD
BRANCH  32  34
ATOM     34  C   UNL     1       0.640  -4.603 -10.180  1.00  0.00     0.175 C 
BRANCH  34  35
ATOM     35  C   UNL     1      -0.234  -4.122 -11.349  1.00  0.00     0.070 C 
BRANCH  35  36
ATOM     36  C   UNL     1       0.465  -3.103 -12.220  1.00  0.00    -0.045 A 
ATOM     37  C   UNL     1      -0.287  -2.167 -12.946  1.00  0.00     0.007 A 
ATOM     38  C   UNL     1       1.861  -3.092 -12.335  1.00  0.00     0.007 A 
ATOM     39  C   UNL     1       0.348  -1.232 -13.764  1.00  0.00     0.046 A 
ATOM     40  C   UNL     1       2.498  -2.156 -13.155  1.00  0.00     0.046 A 
ATOM     41  C   UNL     1       1.734  -1.233 -13.861  1.00  0.00     0.115 A 
BRANCH  41  42
ATOM     42  O   UNL     1       2.315  -0.305 -14.674  1.00  0.00    -0.508 OA
ATOM     43  H   UNL     1       2.154  -0.564 -15.596  1.00  0.00     0.293 HD
ENDBRANCH  41  42
ENDBRANCH  35  36
ENDBRANCH  34  35
BRANCH  34  44
ATOM     44  C   UNL     1      -0.057  -4.398  -8.816  1.00  0.00     0.243 C 
ATOM     45  O   UNL     1      -0.530  -5.304  -8.135  1.00  0.00    -0.273 OA
ATOM     46  N   UNL     1      -0.223  -3.072  -8.478  1.00  0.00    -0.341 N 
ATOM     47  H   UNL     1       0.081  -2.354  -9.131  1.00  0.00     0.164 HD
BRANCH  46  48
ATOM     48  C   UNL     1      -0.916  -2.630  -7.266  1.00  0.00     0.196 C 
BRANCH  48  49
ATOM     49  C   UNL     1      -0.237  -1.395  -6.650  1.00  0.00     0.072 C 
BRANCH  49  50
ATOM     50  C   UNL     1       1.019  -1.744  -5.883  1.00  0.00    -0.045 A 
ATOM     51  C   UNL     1       2.090  -0.839  -5.846  1.00  0.00     0.007 A 
ATOM     52  C   UNL     1       1.140  -2.972  -5.220  1.00  0.00     0.007 A 
ATOM     53  C   UNL     1       3.258  -1.155  -5.153  1.00  0.00     0.046 A 
ATOM     54  C   UNL     1       2.311  -3.289  -4.527  1.00  0.00     0.046 A 
ATOM     55  C   UNL     1       3.359  -2.377  -4.498  1.00  0.00     0.115 A 
BRANCH  55  56
ATOM     56  O   UNL     1       4.519  -2.648  -3.833  1.00  0.00    -0.508 OA
ATOM     57  H   UNL     1       4.990  -3.348  -4.313  1.00  0.00     0.293 HD
ENDBRANCH  55  56
ENDBRANCH  49  50
ENDBRANCH  48  49
BRANCH  48  58
ATOM     58  C   UNL     1      -2.372  -2.294  -7.617  1.00  0.00     0.326 C 
ATOM     59  O   UNL     1      -3.377  -2.646  -7.021  1.00  0.00    -0.250 OA
BRANCH  58  60
ATOM     60  O   UNL     1      -2.496  -1.505  -8.714  1.00  0.00    -0.480 OA
ATOM     61  H   UNL     1      -1.624  -1.056  -8.769  1.00  0.00     0.296 HD
ENDBRANCH  58  60
ENDBRANCH  48  58
ENDBRANCH  46  48
ENDBRANCH  34  44
ENDBRANCH  32  34
ENDBRANCH  25  30
ENDBRANCH  23  25
ENDBRANCH   2  23
TORSDOF 28
ENDMDL
MODEL 50
REMARK VINA RESULT:    -6.703     14.466     18.899
REMARK INTER + INTRA:         -22.002
REMARK INTER:                 -17.614
REMARK INTRA:                  -4.388
REMARK UNBOUND:                -5.306
REMARK SMILES CCCCCCC[C@H](N)[C@H](O)C(=O)N[C@H](C)C(=O)N(C)[C@H](CC(C)C)C(=O)N[C@@H](Cc1ccc(O)cc1)C(=O)N[C@@H](Cc1ccc(O)cc1)C(=O)O
REMARK SMILES IDX 18 1 17 2 15 3 16 4 14 5 12 6 13 7 10 9 11 10 8 12 9 13 7 16
REMARK SMILES IDX 6 17 5 18 4 19 3 20 2 21 1 22 19 23 20 24 21 25 22 26 23 27
REMARK SMILES IDX 24 28 25 29 26 30 27 31 28 32 29 34 30 35 31 36 32 37 37 38
REMARK SMILES IDX 33 39 36 40 34 41 35 42 38 44 39 45 40 46 41 48 42 49 43 50
REMARK SMILES IDX 44 51 49 52 45 53 48 54 46 55 47 56 50 58 51 59 52 60
REMARK H PARENT 14 8 11 11 9 14 9 15 28 33 35 43 40 47 47 57 52 61
ROOT
ATOM      1  O   UNL     1       7.339 -11.056 -13.330  1.00  0.00    -0.272 OA
ATOM      2  C   UNL     1       6.759 -11.465 -12.313  1.00  0.00     0.245 C 
ENDROOT
BRANCH   2   3
ATOM      3  C   UNL     1       5.251 -11.806 -12.407  1.00  0.00     0.168 C 
ATOM      4  C   UNL     1       4.602 -11.074 -13.577  1.00  0.00     0.041 C 
BRANCH   3   5
ATOM      5  N   UNL     1       4.946 -13.229 -12.421  1.00  0.00    -0.342 N 
ATOM      6  C   UNL     1       4.145 -13.811 -11.462  1.00  0.00     0.251 C 
ATOM      7  O   UNL     1       3.669 -13.196 -10.514  1.00  0.00    -0.272 OA
ATOM      8  H   UNL     1       5.313 -13.849 -13.140  1.00  0.00     0.164 HD
BRANCH   6   9
ATOM      9  C   UNL     1       3.844 -15.289 -11.756  1.00  0.00     0.219 C 
BRANCH   9  10
ATOM     10  O   UNL     1       3.817 -15.579 -13.159  1.00  0.00    -0.382 OA
ATOM     11  H   UNL     1       3.168 -14.934 -13.516  1.00  0.00     0.211 HD
ENDBRANCH   9  10
BRANCH   9  12
ATOM     12  C   UNL     1       4.792 -16.264 -11.011  1.00  0.00     0.089 C 
BRANCH  12  13
ATOM     13  N   UNL     1       5.978 -15.504 -10.553  1.00  0.00    -0.325 NA
ATOM     14  H   UNL     1       5.671 -14.630 -10.122  1.00  0.00     0.119 HD
ATOM     15  H   UNL     1       6.525 -15.221 -11.370  1.00  0.00     0.119 HD
ENDBRANCH  12  13
BRANCH  12  16
ATOM     16  C   UNL     1       4.170 -17.043  -9.827  1.00  0.00     0.022 C 
BRANCH  16  17
ATOM     17  C   UNL     1       3.028 -16.400  -9.029  1.00  0.00     0.002 C 
BRANCH  17  18
ATOM     18  C   UNL     1       3.472 -15.520  -7.862  1.00  0.00     0.000 C 
BRANCH  18  19
ATOM     19  C   UNL     1       2.321 -14.785  -7.161  1.00  0.00    -0.000 C 
BRANCH  19  20
ATOM     20  C   UNL     1       1.322 -14.099  -8.097  1.00  0.00    -0.000 C 
BRANCH  20  21
ATOM     21  C   UNL     1      -0.128 -14.514  -7.834  1.00  0.00    -0.003 C 
ATOM     22  C   UNL     1      -0.607 -15.534  -8.855  1.00  0.00     0.004 C 
ENDBRANCH  20  21
ENDBRANCH  19  20
ENDBRANCH  18  19
ENDBRANCH  17  18
ENDBRANCH  16  17
ENDBRANCH  12  16
ENDBRANCH   9  12
ENDBRANCH   6   9
ENDBRANCH   3   5
ENDBRANCH   2   3
BRANCH   2  23
ATOM     23  N   UNL     1       7.485 -11.725 -11.155  1.00  0.00    -0.332 N 
ATOM     24  C   UNL     1       6.906 -11.830  -9.824  1.00  0.00     0.147 C 
BRANCH  23  25
ATOM     25  C   UNL     1       8.936 -12.046 -11.234  1.00  0.00     0.174 C 
BRANCH  25  26
ATOM     26  C   UNL     1       9.207 -13.540 -11.531  1.00  0.00     0.038 C 
BRANCH  26  27
ATOM     27  C   UNL     1      10.136 -13.860 -12.723  1.00  0.00    -0.015 C 
ATOM     28  C   UNL     1      10.906 -12.633 -13.209  1.00  0.00     0.007 C 
ATOM     29  C   UNL     1      11.089 -15.022 -12.455  1.00  0.00     0.007 C 
ENDBRANCH  26  27
ENDBRANCH  25  26
BRANCH  25  30
ATOM     30  C   UNL     1       9.667 -11.519  -9.978  1.00  0.00     0.243 C 
ATOM     31  O   UNL     1      10.204 -12.278  -9.173  1.00  0.00    -0.273 OA
ATOM     32  N   UNL     1       9.670 -10.157  -9.821  1.00  0.00    -0.342 N 
ATOM     33  H   UNL     1       9.328  -9.590 -10.600  1.00  0.00     0.164 HD
BRANCH  32  34
ATOM     34  C   UNL     1      10.290  -9.484  -8.677  1.00  0.00     0.175 C 
BRANCH  34  35
ATOM     35  C   UNL     1      11.113  -8.266  -9.124  1.00  0.00     0.070 C 
BRANCH  35  36
ATOM     36  C   UNL     1      11.370  -8.250 -10.614  1.00  0.00    -0.045 A 
ATOM     37  C   UNL     1      12.396  -9.038 -11.158  1.00  0.00     0.007 A 
ATOM     38  C   UNL     1      10.611  -7.437 -11.466  1.00  0.00     0.007 A 
ATOM     39  C   UNL     1      12.650  -9.019 -12.530  1.00  0.00     0.046 A 
ATOM     40  C   UNL     1      10.865  -7.417 -12.840  1.00  0.00     0.046 A 
ATOM     41  C   UNL     1      11.883  -8.210 -13.359  1.00  0.00     0.115 A 
BRANCH  41  42
ATOM     42  O   UNL     1      12.165  -8.218 -14.693  1.00  0.00    -0.508 OA
ATOM     43  H   UNL     1      12.360  -9.132 -14.958  1.00  0.00     0.293 HD
ENDBRANCH  41  42
ENDBRANCH  35  36
ENDBRANCH  34  35
BRANCH  34  44
ATOM     44  C   UNL     1       9.170  -9.091  -7.687  1.00  0.00     0.243 C 
ATOM     45  O   UNL     1       8.822  -9.773  -6.728  1.00  0.00    -0.273 OA
ATOM     46  N   UNL     1       8.491  -7.947  -8.052  1.00  0.00    -0.341 N 
ATOM     47  H   UNL     1       8.741  -7.480  -8.920  1.00  0.00     0.164 HD
BRANCH  46  48
ATOM     48  C   UNL     1       7.347  -7.417  -7.307  1.00  0.00     0.196 C 
BRANCH  48  49
ATOM     49  C   UNL     1       6.453  -8.549  -6.774  1.00  0.00     0.072 C 
BRANCH  49  50
ATOM     50  C   UNL     1       5.419  -8.998  -7.781  1.00  0.00    -0.045 A 
ATOM     51  C   UNL     1       4.542 -10.045  -7.463  1.00  0.00     0.007 A 
ATOM     52  C   UNL     1       5.334  -8.396  -9.043  1.00  0.00     0.007 A 
ATOM     53  C   UNL     1       3.592 -10.476  -8.390  1.00  0.00     0.046 A 
ATOM     54  C   UNL     1       4.384  -8.829  -9.972  1.00  0.00     0.046 A 
ATOM     55  C   UNL     1       3.520  -9.865  -9.636  1.00  0.00     0.115 A 
BRANCH  55  56
ATOM     56  O   UNL     1       2.579 -10.317 -10.513  1.00  0.00    -0.508 OA
ATOM     57  H   UNL     1       2.694 -11.275 -10.618  1.00  0.00     0.293 HD
ENDBRANCH  55  56
ENDBRANCH  49  50
ENDBRANCH  48  49
BRANCH  48  58
ATOM     58  C   UNL     1       7.863  -6.573  -6.134  1.00  0.00     0.326 C 
ATOM     59  O   UNL     1       8.172  -5.392  -6.153  1.00  0.00    -0.250 OA
BRANCH  58  60
ATOM     60  O   UNL     1       7.954  -7.262  -4.969  1.00  0.00    -0.480 OA
ATOM     61  H   UNL     1       8.851  -7.660  -5.011  1.00  0.00     0.296 HD
ENDBRANCH  58  60
ENDBRANCH  48  58
ENDBRANCH  46  48
ENDBRANCH  34  44
ENDBRANCH  32  34
ENDBRANCH  25  30
ENDBRANCH  23  25
ENDBRANCH   2  23
TORSDOF 28
ENDMDL
