MODEL 1
REMARK VINA RESULT:    -8.132      0.000      0.000
REMARK INTER + INTRA:         -28.091
REMARK INTER:                 -23.346
REMARK INTRA:                  -4.745
REMARK UNBOUND:                -4.745
REMARK SMILES CCCCCC(=O)N[C@H](CC(=O)O)C(=O)N[C@H]1C(=O)N[C@H](CCCN=C(N)N)C(=O)N[C@@H]2CC[C@H](O)N(C2=O)[C@@H](CC(C)C)C(=O)N(C)[C@@H](Cc2ccccc2)C(=O)N[C@H](C(C)C)C(=O)O[C@@H]1C
REMARK SMILES IDX 30 1 31 2 29 3 32 5 35 6 37 7 34 8 38 9 33 10 39 11 36 12
REMARK SMILES IDX 40 14 41 15 42 16 43 17 44 18 45 19 46 20 47 21 48 22 49 23
REMARK SMILES IDX 50 24 51 25 52 26 56 27 53 28 55 29 54 30 57 31 58 32 59 33
REMARK SMILES IDX 60 35 61 36 62 37 63 38 64 39 65 40 66 41 67 42 68 43 21 45
REMARK SMILES IDX 20 46 18 47 19 48 17 50 16 52 14 53 15 54 9 56 8 57 6 58
REMARK SMILES IDX 7 59 5 61 4 62 3 63 2 64 1 65 10 66 11 67 12 68 13 69 22 71
REMARK SMILES IDX 23 72 24 73 25 74 26 75 27 76 28 77
REMARK H PARENT 31 4 36 13 59 34 20 49 16 55 8 60 13 70 27 78 27 79 28 80
REMARK H PARENT 28 81
REMARK Flexibility Score:  259.900
ROOT
ATOM      1  O   UNL     1     -12.243   6.953   5.382  1.00  0.00    -0.273 OA
ATOM      2  N   UNL     1     -12.706   7.377   7.581  1.00  0.00    -0.343 N 
ATOM      3  C   UNL     1     -11.848   7.247   6.510  1.00  0.00     0.243 C 
ATOM      4  H   UNL     1     -12.347   7.634   8.492  1.00  0.00     0.164 HD
ENDROOT
BRANCH   2   5
ATOM      5  C   UNL     1     -14.121   7.052   7.442  1.00  0.00     0.171 C 
ATOM      6  C   UNL     1     -16.311   6.956   9.340  1.00  0.00     0.214 C 
ATOM      7  N   UNL     1     -15.534   5.764   9.091  1.00  0.00    -0.303 N 
ATOM      8  C   UNL     1     -16.389   7.885   8.140  1.00  0.00     0.057 C 
ATOM      9  C   UNL     1     -14.444   5.753   8.235  1.00  0.00     0.247 C 
ATOM     10  C   UNL     1     -14.994   8.278   7.704  1.00  0.00     0.040 C 
ATOM     11  O   UNL     1     -13.732   4.751   8.093  1.00  0.00    -0.272 OA
BRANCH   6  12
ATOM     12  O   UNL     1     -15.736   7.621  10.441  1.00  0.00    -0.373 OA
ATOM     13  H   UNL     1     -14.769   7.659  10.281  1.00  0.00     0.213 HD
ENDBRANCH   6  12
BRANCH   7  14
ATOM     14  C   UNL     1     -15.857   4.571   9.903  1.00  0.00     0.177 C 
BRANCH  14  15
ATOM     15  C   UNL     1     -15.554   4.701  11.408  1.00  0.00     0.038 C 
BRANCH  15  16
ATOM     16  C   UNL     1     -14.136   4.382  11.930  1.00  0.00    -0.015 C 
ATOM     17  C   UNL     1     -13.169   5.556  11.750  1.00  0.00     0.007 C 
ATOM     18  C   UNL     1     -13.567   3.172  11.178  1.00  0.00     0.007 C 
ENDBRANCH  15  16
ENDBRANCH  14  15
BRANCH  14  19
ATOM     19  C   UNL     1     -17.079   3.808   9.286  1.00  0.00     0.245 C 
ATOM     20  O   UNL     1     -17.850   4.471   8.572  1.00  0.00    -0.272 OA
BRANCH  19  21
ATOM     21  N   UNL     1     -17.397   2.495   9.582  1.00  0.00    -0.332 N 
ATOM     22  C   UNL     1     -17.003   1.783  10.785  1.00  0.00     0.147 C 
BRANCH  21  23
ATOM     23  C   UNL     1     -18.201   1.732   8.587  1.00  0.00     0.178 C 
BRANCH  23  24
ATOM     24  C   UNL     1     -17.398   0.713   7.753  1.00  0.00     0.070 C 
BRANCH  24  25
ATOM     25  C   UNL     1     -16.769   1.215   6.474  1.00  0.00    -0.045 A 
ATOM     26  C   UNL     1     -17.324   2.296   5.777  1.00  0.00     0.004 A 
ATOM     27  C   UNL     1     -15.618   0.597   5.962  1.00  0.00     0.004 A 
ATOM     28  C   UNL     1     -16.746   2.743   4.587  1.00  0.00     0.000 A 
ATOM     29  C   UNL     1     -15.041   1.046   4.772  1.00  0.00     0.000 A 
ATOM     30  C   UNL     1     -15.608   2.116   4.084  1.00  0.00     0.000 A 
ENDBRANCH  24  25
ENDBRANCH  23  24
BRANCH  23  31
ATOM     31  C   UNL     1     -19.530   1.194   9.170  1.00  0.00     0.243 C 
ATOM     32  O   UNL     1     -20.482   1.905   9.480  1.00  0.00    -0.273 OA
ATOM     33  N   UNL     1     -19.488  -0.153   9.488  1.00  0.00    -0.341 N 
ATOM     34  H   UNL     1     -18.665  -0.693   9.210  1.00  0.00     0.164 HD
BRANCH  33  35
ATOM     35  C   UNL     1     -20.589  -0.849  10.160  1.00  0.00     0.194 C 
BRANCH  35  36
ATOM     36  C   UNL     1     -20.562  -0.734  11.710  1.00  0.00     0.017 C 
ATOM     37  C   UNL     1     -19.147  -0.980  12.264  1.00  0.00     0.010 C 
ATOM     38  C   UNL     1     -21.505  -1.722  12.407  1.00  0.00     0.010 C 
ENDBRANCH  35  36
BRANCH  35  39
ATOM     39  C   UNL     1     -20.740  -2.323   9.690  1.00  0.00     0.329 C 
ATOM     40  O   UNL     1     -19.930  -3.208   9.938  1.00  0.00    -0.250 OA
BRANCH  39  41
ATOM     41  O   UNL     1     -21.924  -2.543   9.042  1.00  0.00    -0.458 OA
BRANCH  41  42
ATOM     42  C   UNL     1     -22.355  -3.922   8.946  1.00  0.00     0.205 CG0
ATOM     43  C   UNL     1     -22.097  -4.380   7.512  1.00  0.00     0.056 C 
ATOM     44  G   UNL     1     -23.847  -3.998   9.329  1.00  0.00     0.000 G0
ENDBRANCH  41  42
ENDBRANCH  39  41
ENDBRANCH  35  39
ENDBRANCH  33  35
ENDBRANCH  23  31
ENDBRANCH  21  23
ENDBRANCH  19  21
ENDBRANCH  14  19
ENDBRANCH   7  14
ENDBRANCH   2   5
BRANCH   3  45
ATOM     45  C   UNL     1     -10.369   7.514   6.818  1.00  0.00     0.171 C 
BRANCH  45  46
ATOM     46  N   UNL     1      -9.986   8.635   5.969  1.00  0.00    -0.342 N 
ATOM     47  C   UNL     1     -10.608   9.857   6.039  1.00  0.00     0.247 C 
ATOM     48  O   UNL     1     -11.480  10.117   6.869  1.00  0.00    -0.273 OA
ATOM     49  H   UNL     1      -9.230   8.480   5.306  1.00  0.00     0.164 HD
BRANCH  47  50
ATOM     50  C   UNL     1     -10.157  10.877   4.984  1.00  0.00     0.212 CG0
ATOM     51  G   UNL     1      -9.422  12.016   5.719  1.00  0.00     0.000 G0
BRANCH  50  52
ATOM     52  N   UNL     1      -9.297  10.134   4.066  1.00  0.00    -0.339 N 
ATOM     53  C   UNL     1      -8.105  10.619   3.588  1.00  0.00     0.243 C 
ATOM     54  O   UNL     1      -7.693  11.744   3.856  1.00  0.00    -0.273 OA
ATOM     55  H   UNL     1      -9.638   9.239   3.719  1.00  0.00     0.164 HD
BRANCH  53  56
ATOM     56  C   UNL     1      -7.415   9.693   2.565  1.00  0.00     0.182 C 
BRANCH  56  57
ATOM     57  N   UNL     1      -6.644   8.645   3.241  1.00  0.00    -0.344 N 
ATOM     58  C   UNL     1      -7.203   7.450   3.623  1.00  0.00     0.220 C 
ATOM     59  O   UNL     1      -8.397   7.205   3.494  1.00  0.00    -0.275 OA
ATOM     60  H   UNL     1      -5.635   8.765   3.275  1.00  0.00     0.164 HD
BRANCH  58  61
ATOM     61  C   UNL     1      -6.206   6.493   4.251  1.00  0.00     0.100 C 
BRANCH  61  62
ATOM     62  C   UNL     1      -4.751   6.797   3.894  1.00  0.00     0.010 C 
BRANCH  62  63
ATOM     63  C   UNL     1      -4.204   5.965   2.727  1.00  0.00     0.000 C 
BRANCH  63  64
ATOM     64  C   UNL     1      -3.217   6.713   1.832  1.00  0.00    -0.003 C 
ATOM     65  C   UNL     1      -2.855   5.896   0.600  1.00  0.00     0.004 C 
ENDBRANCH  63  64
ENDBRANCH  62  63
ENDBRANCH  61  62
ENDBRANCH  58  61
ENDBRANCH  56  57
BRANCH  56  66
ATOM     66  C   UNL     1      -6.566  10.487   1.574  1.00  0.00     0.157 C 
BRANCH  66  67
ATOM     67  C   UNL     1      -5.124  10.071   1.638  1.00  0.00     0.305 C 
ATOM     68  O   UNL     1      -4.356  10.232   2.574  1.00  0.00    -0.252 OA
BRANCH  67  69
ATOM     69  O   UNL     1      -4.730   9.417   0.529  1.00  0.00    -0.481 OA
ATOM     70  H   UNL     1      -4.827  10.072  -0.195  1.00  0.00     0.296 HD
ENDBRANCH  67  69
ENDBRANCH  66  67
ENDBRANCH  56  66
ENDBRANCH  53  56
ENDBRANCH  50  52
ENDBRANCH  47  50
ENDBRANCH  45  46
BRANCH  45  71
ATOM     71  C   UNL     1      -9.528   6.268   6.521  1.00  0.00     0.037 C 
BRANCH  71  72
ATOM     72  C   UNL     1      -9.811   5.133   7.508  1.00  0.00     0.026 C 
BRANCH  72  73
ATOM     73  C   UNL     1      -9.660   3.764   6.848  1.00  0.00     0.146 C 
BRANCH  73  74
ATOM     74  N   UNL     1      -9.122   2.844   7.845  1.00  0.00    -0.254 NA
ATOM     75  C   UNL     1      -7.864   2.598   7.816  1.00  0.00     0.185 C 
ATOM     76  N   UNL     1      -7.339   1.757   8.721  1.00  0.00    -0.370 N 
ATOM     77  N   UNL     1      -6.929   3.076   6.977  1.00  0.00    -0.370 N 
ATOM     78  H   UNL     1      -7.977   1.345   9.388  1.00  0.00     0.159 HD
ATOM     79  H   UNL     1      -6.399   1.406   8.672  1.00  0.00     0.159 HD
ATOM     80  H   UNL     1      -7.178   3.724   6.245  1.00  0.00     0.159 HD
ATOM     81  H   UNL     1      -5.948   2.901   7.123  1.00  0.00     0.159 HD
ENDBRANCH  73  74
ENDBRANCH  72  73
ENDBRANCH  71  72
ENDBRANCH  45  71
ENDBRANCH   3  45
TORSDOF 20
ENDMDL
MODEL 2
REMARK VINA RESULT:    -7.815      1.565      2.556
REMARK INTER + INTRA:         -27.179
REMARK INTER:                 -21.265
REMARK INTRA:                  -5.914
REMARK UNBOUND:                -4.745
REMARK SMILES CCCCCC(=O)N[C@H](CC(=O)O)C(=O)N[C@H]1C(=O)N[C@H](CCCN=C(N)N)C(=O)N[C@@H]2CC[C@H](O)N(C2=O)[C@@H](CC(C)C)C(=O)N(C)[C@@H](Cc2ccccc2)C(=O)N[C@H](C(C)C)C(=O)O[C@@H]1C
REMARK SMILES IDX 30 1 31 2 29 3 32 5 35 6 37 7 34 8 38 9 33 10 39 11 36 12
REMARK SMILES IDX 40 14 41 15 42 16 43 17 44 18 45 19 46 20 47 21 48 22 49 23
REMARK SMILES IDX 50 24 51 25 52 26 56 27 53 28 55 29 54 30 57 31 58 32 59 33
REMARK SMILES IDX 60 35 61 36 62 37 63 38 64 39 65 40 66 41 67 42 68 43 21 45
REMARK SMILES IDX 20 46 18 47 19 48 17 50 16 52 14 53 15 54 9 56 8 57 6 58
REMARK SMILES IDX 7 59 5 61 4 62 3 63 2 64 1 65 10 66 11 67 12 68 13 69 22 71
REMARK SMILES IDX 23 72 24 73 25 74 26 75 27 76 28 77
REMARK H PARENT 31 4 36 13 59 34 20 49 16 55 8 60 13 70 27 78 27 79 28 80
REMARK H PARENT 28 81
REMARK Flexibility Score:  259.900
ROOT
ATOM      1  O   UNL     1     -12.375   6.435   5.448  1.00  0.00    -0.273 OA
ATOM      2  N   UNL     1     -12.687   6.959   7.653  1.00  0.00    -0.343 N 
ATOM      3  C   UNL     1     -11.899   6.727   6.546  1.00  0.00     0.243 C 
ATOM      4  H   UNL     1     -12.262   7.211   8.536  1.00  0.00     0.164 HD
ENDROOT
BRANCH   2   5
ATOM      5  C   UNL     1     -14.130   6.748   7.594  1.00  0.00     0.171 C 
ATOM      6  C   UNL     1     -16.209   6.819   9.613  1.00  0.00     0.214 C 
ATOM      7  N   UNL     1     -15.545   5.570   9.321  1.00  0.00    -0.303 N 
ATOM      8  C   UNL     1     -16.281   7.756   8.418  1.00  0.00     0.057 C 
ATOM      9  C   UNL     1     -14.510   5.476   8.405  1.00  0.00     0.247 C 
ATOM     10  C   UNL     1     -14.886   8.039   7.904  1.00  0.00     0.040 C 
ATOM     11  O   UNL     1     -13.889   4.420   8.223  1.00  0.00    -0.272 OA
BRANCH   6  12
ATOM     12  O   UNL     1     -15.522   7.432  10.679  1.00  0.00    -0.373 OA
ATOM     13  H   UNL     1     -14.567   7.413  10.455  1.00  0.00     0.213 HD
ENDBRANCH   6  12
BRANCH   7  14
ATOM     14  C   UNL     1     -15.916   4.403  10.150  1.00  0.00     0.177 C 
BRANCH  14  15
ATOM     15  C   UNL     1     -15.746   4.598  11.669  1.00  0.00     0.038 C 
BRANCH  15  16
ATOM     16  C   UNL     1     -14.381   4.300  12.327  1.00  0.00    -0.015 C 
ATOM     17  C   UNL     1     -13.379   5.443  12.139  1.00  0.00     0.007 C 
ATOM     18  C   UNL     1     -13.778   3.028  11.717  1.00  0.00     0.007 C 
ENDBRANCH  15  16
ENDBRANCH  14  15
BRANCH  14  19
ATOM     19  C   UNL     1     -17.067   3.591   9.463  1.00  0.00     0.245 C 
ATOM     20  O   UNL     1     -17.852   4.232   8.744  1.00  0.00    -0.272 OA
BRANCH  19  21
ATOM     21  N   UNL     1     -17.314   2.251   9.702  1.00  0.00    -0.332 N 
ATOM     22  C   UNL     1     -16.790   1.483  10.817  1.00  0.00     0.147 C 
BRANCH  21  23
ATOM     23  C   UNL     1     -18.180   1.520   8.736  1.00  0.00     0.178 C 
BRANCH  23  24
ATOM     24  C   UNL     1     -17.423   0.584   7.771  1.00  0.00     0.070 C 
BRANCH  24  25
ATOM     25  C   UNL     1     -16.920   1.187   6.480  1.00  0.00    -0.045 A 
ATOM     26  C   UNL     1     -15.696   0.786   5.930  1.00  0.00     0.004 A 
ATOM     27  C   UNL     1     -17.675   2.164   5.814  1.00  0.00     0.004 A 
ATOM     28  C   UNL     1     -15.230   1.360   4.746  1.00  0.00     0.000 A 
ATOM     29  C   UNL     1     -17.209   2.736   4.630  1.00  0.00     0.000 A 
ATOM     30  C   UNL     1     -15.985   2.336   4.098  1.00  0.00     0.000 A 
ENDBRANCH  24  25
ENDBRANCH  23  24
BRANCH  23  31
ATOM     31  C   UNL     1     -19.433   0.899   9.398  1.00  0.00     0.243 C 
ATOM     32  O   UNL     1     -20.348   1.555   9.887  1.00  0.00    -0.273 OA
ATOM     33  N   UNL     1     -19.349  -0.474   9.561  1.00  0.00    -0.341 N 
ATOM     34  H   UNL     1     -18.559  -0.966   9.137  1.00  0.00     0.164 HD
BRANCH  33  35
ATOM     35  C   UNL     1     -20.364  -1.258  10.269  1.00  0.00     0.194 C 
BRANCH  35  36
ATOM     36  C   UNL     1     -19.999  -1.585  11.745  1.00  0.00     0.017 C 
ATOM     37  C   UNL     1     -21.240  -1.530  12.653  1.00  0.00     0.010 C 
ATOM     38  C   UNL     1     -18.955  -0.629  12.335  1.00  0.00     0.010 C 
ENDBRANCH  35  36
BRANCH  35  39
ATOM     39  C   UNL     1     -20.796  -2.527   9.483  1.00  0.00     0.329 C 
ATOM     40  O   UNL     1     -20.030  -3.429   9.163  1.00  0.00    -0.250 OA
BRANCH  39  41
ATOM     41  O   UNL     1     -22.145  -2.569   9.262  1.00  0.00    -0.458 OA
BRANCH  41  42
ATOM     42  C   UNL     1     -22.886  -3.564  10.008  1.00  0.00     0.205 CG0
ATOM     43  C   UNL     1     -23.114  -4.753   9.076  1.00  0.00     0.056 C 
ATOM     44  G   UNL     1     -24.206  -2.933  10.492  1.00  0.00     0.000 G0
ENDBRANCH  41  42
ENDBRANCH  39  41
ENDBRANCH  35  39
ENDBRANCH  33  35
ENDBRANCH  23  31
ENDBRANCH  21  23
ENDBRANCH  19  21
ENDBRANCH  14  19
ENDBRANCH   7  14
ENDBRANCH   2   5
BRANCH   3  45
ATOM     45  C   UNL     1     -10.389   6.880   6.772  1.00  0.00     0.171 C 
BRANCH  45  46
ATOM     46  N   UNL     1      -9.869   7.495   5.557  1.00  0.00    -0.342 N 
ATOM     47  C   UNL     1      -9.740   8.853   5.416  1.00  0.00     0.247 C 
ATOM     48  O   UNL     1      -9.983   9.646   6.327  1.00  0.00    -0.273 OA
ATOM     49  H   UNL     1      -9.603   6.871   4.797  1.00  0.00     0.164 HD
BRANCH  47  50
ATOM     50  C   UNL     1      -9.294   9.324   4.025  1.00  0.00     0.212 CG0
ATOM     51  G   UNL     1      -9.351  10.864   4.011  1.00  0.00     0.000 G0
BRANCH  50  52
ATOM     52  N   UNL     1      -7.945   8.794   3.848  1.00  0.00    -0.339 N 
ATOM     53  C   UNL     1      -7.674   7.617   3.194  1.00  0.00     0.243 C 
ATOM     54  O   UNL     1      -8.557   6.888   2.751  1.00  0.00    -0.273 OA
ATOM     55  H   UNL     1      -7.178   9.297   4.291  1.00  0.00     0.164 HD
BRANCH  53  56
ATOM     56  C   UNL     1      -6.185   7.218   3.209  1.00  0.00     0.182 C 
BRANCH  56  57
ATOM     57  N   UNL     1      -5.876   6.379   4.371  1.00  0.00    -0.344 N 
ATOM     58  C   UNL     1      -5.419   5.090   4.247  1.00  0.00     0.220 C 
ATOM     59  O   UNL     1      -5.307   4.527   3.164  1.00  0.00    -0.275 OA
ATOM     60  H   UNL     1      -5.857   6.837   5.279  1.00  0.00     0.164 HD
BRANCH  58  61
ATOM     61  C   UNL     1      -5.109   4.431   5.579  1.00  0.00     0.100 C 
BRANCH  61  62
ATOM     62  C   UNL     1      -5.257   5.366   6.779  1.00  0.00     0.010 C 
BRANCH  62  63
ATOM     63  C   UNL     1      -5.953   4.729   7.989  1.00  0.00     0.000 C 
BRANCH  63  64
ATOM     64  C   UNL     1      -5.948   3.202   7.982  1.00  0.00    -0.003 C 
ATOM     65  C   UNL     1      -7.322   2.640   8.320  1.00  0.00     0.004 C 
ENDBRANCH  63  64
ENDBRANCH  62  63
ENDBRANCH  61  62
ENDBRANCH  58  61
ENDBRANCH  56  57
BRANCH  56  66
ATOM     66  C   UNL     1      -5.276   8.444   3.126  1.00  0.00     0.157 C 
BRANCH  66  67
ATOM     67  C   UNL     1      -4.103   8.191   2.224  1.00  0.00     0.305 C 
ATOM     68  O   UNL     1      -3.281   9.010   1.844  1.00  0.00    -0.252 OA
BRANCH  67  69
ATOM     69  O   UNL     1      -3.991   6.893   1.882  1.00  0.00    -0.481 OA
ATOM     70  H   UNL     1      -3.034   6.695   1.962  1.00  0.00     0.296 HD
ENDBRANCH  67  69
ENDBRANCH  66  67
ENDBRANCH  56  66
ENDBRANCH  53  56
ENDBRANCH  50  52
ENDBRANCH  47  50
ENDBRANCH  45  46
BRANCH  45  71
ATOM     71  C   UNL     1      -9.747   5.513   7.033  1.00  0.00     0.037 C 
BRANCH  71  72
ATOM     72  C   UNL     1      -8.929   5.023   5.835  1.00  0.00     0.026 C 
BRANCH  72  73
ATOM     73  C   UNL     1      -9.688   3.968   5.032  1.00  0.00     0.146 C 
BRANCH  73  74
ATOM     74  N   UNL     1      -8.746   2.910   4.682  1.00  0.00    -0.254 NA
ATOM     75  C   UNL     1      -8.199   2.954   3.523  1.00  0.00     0.185 C 
ATOM     76  N   UNL     1      -7.327   1.995   3.172  1.00  0.00    -0.370 N 
ATOM     77  N   UNL     1      -8.367   3.860   2.544  1.00  0.00    -0.370 N 
ATOM     78  H   UNL     1      -7.149   1.268   3.851  1.00  0.00     0.159 HD
ATOM     79  H   UNL     1      -6.973   1.883   2.238  1.00  0.00     0.159 HD
ATOM     80  H   UNL     1      -8.992   4.642   2.668  1.00  0.00     0.159 HD
ATOM     81  H   UNL     1      -7.794   3.855   1.716  1.00  0.00     0.159 HD
ENDBRANCH  73  74
ENDBRANCH  72  73
ENDBRANCH  71  72
ENDBRANCH  45  71
ENDBRANCH   3  45
TORSDOF 20
ENDMDL
MODEL 3
REMARK VINA RESULT:    -7.659      4.479      9.861
REMARK INTER + INTRA:         -26.731
REMARK INTER:                 -21.166
REMARK INTRA:                  -5.564
REMARK UNBOUND:                -4.745
REMARK SMILES CCCCCC(=O)N[C@H](CC(=O)O)C(=O)N[C@H]1C(=O)N[C@H](CCCN=C(N)N)C(=O)N[C@@H]2CC[C@H](O)N(C2=O)[C@@H](CC(C)C)C(=O)N(C)[C@@H](Cc2ccccc2)C(=O)N[C@H](C(C)C)C(=O)O[C@@H]1C
REMARK SMILES IDX 30 1 31 2 29 3 32 5 35 6 37 7 34 8 38 9 33 10 39 11 36 12
REMARK SMILES IDX 40 14 41 15 42 16 43 17 44 18 45 19 46 20 47 21 48 22 49 23
REMARK SMILES IDX 50 24 51 25 52 26 56 27 53 28 55 29 54 30 57 31 58 32 59 33
REMARK SMILES IDX 60 35 61 36 62 37 63 38 64 39 65 40 66 41 67 42 68 43 21 45
REMARK SMILES IDX 20 46 18 47 19 48 17 50 16 52 14 53 15 54 9 56 8 57 6 58
REMARK SMILES IDX 7 59 5 61 4 62 3 63 2 64 1 65 10 66 11 67 12 68 13 69 22 71
REMARK SMILES IDX 23 72 24 73 25 74 26 75 27 76 28 77
REMARK H PARENT 31 4 36 13 59 34 20 49 16 55 8 60 13 70 27 78 27 79 28 80
REMARK H PARENT 28 81
REMARK Flexibility Score:  259.900
ROOT
ATOM      1  O   UNL     1     -16.369   2.481   4.604  1.00  0.00    -0.273 OA
ATOM      2  N   UNL     1     -14.288   2.283   5.533  1.00  0.00    -0.343 N 
ATOM      3  C   UNL     1     -15.636   2.567   5.590  1.00  0.00     0.243 C 
ATOM      4  H   UNL     1     -13.719   2.350   6.368  1.00  0.00     0.164 HD
ENDROOT
BRANCH   2   5
ATOM      5  C   UNL     1     -13.646   1.981   4.259  1.00  0.00     0.171 C 
ATOM      6  C   UNL     1     -11.259   0.489   3.567  1.00  0.00     0.214 C 
ATOM      7  N   UNL     1     -11.163   1.909   3.809  1.00  0.00    -0.303 N 
ATOM      8  C   UNL     1     -12.607   0.063   3.007  1.00  0.00     0.057 C 
ATOM      9  C   UNL     1     -12.254   2.672   4.193  1.00  0.00     0.247 C 
ATOM     10  C   UNL     1     -13.711   0.486   3.953  1.00  0.00     0.040 C 
ATOM     11  O   UNL     1     -12.147   3.871   4.482  1.00  0.00    -0.272 OA
BRANCH   6  12
ATOM     12  O   UNL     1     -10.999  -0.174   4.783  1.00  0.00    -0.373 OA
ATOM     13  H   UNL     1     -11.472  -1.033   4.749  1.00  0.00     0.213 HD
ENDBRANCH   6  12
BRANCH   7  14
ATOM     14  C   UNL     1      -9.811   2.506   3.775  1.00  0.00     0.177 C 
BRANCH  14  15
ATOM     15  C   UNL     1      -9.541   3.452   2.590  1.00  0.00     0.038 C 
BRANCH  15  16
ATOM     16  C   UNL     1      -8.385   3.139   1.614  1.00  0.00    -0.015 C 
ATOM     17  C   UNL     1      -8.849   2.330   0.399  1.00  0.00     0.007 C 
ATOM     18  C   UNL     1      -7.297   2.336   2.339  1.00  0.00     0.007 C 
ENDBRANCH  15  16
ENDBRANCH  14  15
BRANCH  14  19
ATOM     19  C   UNL     1      -9.265   2.698   5.232  1.00  0.00     0.245 C 
ATOM     20  O   UNL     1      -9.200   1.682   5.944  1.00  0.00    -0.272 OA
BRANCH  19  21
ATOM     21  N   UNL     1      -8.966   3.929   5.787  1.00  0.00    -0.332 N 
ATOM     22  C   UNL     1      -9.405   5.215   5.273  1.00  0.00     0.147 C 
BRANCH  21  23
ATOM     23  C   UNL     1      -8.116   3.954   7.010  1.00  0.00     0.178 C 
BRANCH  23  24
ATOM     24  C   UNL     1      -6.934   4.943   6.954  1.00  0.00     0.070 C 
BRANCH  24  25
ATOM     25  C   UNL     1      -6.038   4.877   5.739  1.00  0.00    -0.045 A 
ATOM     26  C   UNL     1      -5.411   3.679   5.374  1.00  0.00     0.004 A 
ATOM     27  C   UNL     1      -5.818   6.023   4.960  1.00  0.00     0.004 A 
ATOM     28  C   UNL     1      -4.571   3.631   4.260  1.00  0.00     0.000 A 
ATOM     29  C   UNL     1      -4.979   5.973   3.845  1.00  0.00     0.000 A 
ATOM     30  C   UNL     1      -4.354   4.777   3.498  1.00  0.00     0.000 A 
ENDBRANCH  24  25
ENDBRANCH  23  24
BRANCH  23  31
ATOM     31  C   UNL     1      -8.941   3.998   8.318  1.00  0.00     0.243 C 
ATOM     32  O   UNL     1      -8.577   4.573   9.341  1.00  0.00    -0.273 OA
ATOM     33  N   UNL     1     -10.051   3.170   8.300  1.00  0.00    -0.341 N 
ATOM     34  H   UNL     1     -10.301   2.713   7.420  1.00  0.00     0.164 HD
BRANCH  33  35
ATOM     35  C   UNL     1     -10.911   2.961   9.468  1.00  0.00     0.194 C 
BRANCH  35  36
ATOM     36  C   UNL     1     -10.714   1.585  10.163  1.00  0.00     0.017 C 
ATOM     37  C   UNL     1      -9.756   1.695  11.362  1.00  0.00     0.010 C 
ATOM     38  C   UNL     1     -10.153   0.509   9.225  1.00  0.00     0.010 C 
ENDBRANCH  35  36
BRANCH  35  39
ATOM     39  C   UNL     1     -12.408   3.250   9.168  1.00  0.00     0.329 C 
ATOM     40  O   UNL     1     -13.203   2.408   8.766  1.00  0.00    -0.250 OA
BRANCH  39  41
ATOM     41  O   UNL     1     -12.764   4.532   9.485  1.00  0.00    -0.458 OA
BRANCH  41  42
ATOM     42  C   UNL     1     -13.138   5.386   8.378  1.00  0.00     0.205 CG0
ATOM     43  C   UNL     1     -12.055   6.454   8.241  1.00  0.00     0.056 C 
ATOM     44  G   UNL     1     -14.527   5.990   8.670  1.00  0.00     0.000 G0
ENDBRANCH  41  42
ENDBRANCH  39  41
ENDBRANCH  35  39
ENDBRANCH  33  35
ENDBRANCH  23  31
ENDBRANCH  21  23
ENDBRANCH  19  21
ENDBRANCH  14  19
ENDBRANCH   7  14
ENDBRANCH   2   5
BRANCH   3  45
ATOM     45  C   UNL     1     -16.164   2.975   6.972  1.00  0.00     0.171 C 
BRANCH  45  46
ATOM     46  N   UNL     1     -15.243   3.992   7.460  1.00  0.00    -0.342 N 
ATOM     47  C   UNL     1     -15.622   4.960   8.356  1.00  0.00     0.247 C 
ATOM     48  O   UNL     1     -16.742   4.996   8.866  1.00  0.00    -0.273 OA
ATOM     49  H   UNL     1     -14.288   3.965   7.106  1.00  0.00     0.164 HD
BRANCH  47  50
ATOM     50  C   UNL     1     -14.553   6.019   8.660  1.00  0.00     0.212 CG0
ATOM     51  G   UNL     1     -13.175   5.385   8.387  1.00  0.00     0.000 G0
BRANCH  50  52
ATOM     52  N   UNL     1     -14.856   7.143   7.778  1.00  0.00    -0.339 N 
ATOM     53  C   UNL     1     -15.808   8.092   8.062  1.00  0.00     0.243 C 
ATOM     54  O   UNL     1     -16.518   8.038   9.062  1.00  0.00    -0.273 OA
ATOM     55  H   UNL     1     -14.378   7.181   6.880  1.00  0.00     0.164 HD
BRANCH  53  56
ATOM     56  C   UNL     1     -16.011   9.132   6.942  1.00  0.00     0.182 C 
BRANCH  56  57
ATOM     57  N   UNL     1     -14.796   9.928   6.736  1.00  0.00    -0.344 N 
ATOM     58  C   UNL     1     -14.404  10.363   5.494  1.00  0.00     0.220 C 
ATOM     59  O   UNL     1     -14.998  10.058   4.465  1.00  0.00    -0.275 OA
ATOM     60  H   UNL     1     -14.334  10.286   7.567  1.00  0.00     0.164 HD
BRANCH  58  61
ATOM     61  C   UNL     1     -13.151  11.219   5.524  1.00  0.00     0.100 C 
BRANCH  61  62
ATOM     62  C   UNL     1     -11.930  10.503   6.103  1.00  0.00     0.010 C 
BRANCH  62  63
ATOM     63  C   UNL     1     -10.668  10.617   5.240  1.00  0.00     0.000 C 
BRANCH  63  64
ATOM     64  C   UNL     1     -10.119   9.277   4.751  1.00  0.00    -0.003 C 
ATOM     65  C   UNL     1     -11.113   8.150   4.990  1.00  0.00     0.004 C 
ENDBRANCH  63  64
ENDBRANCH  62  63
ENDBRANCH  61  62
ENDBRANCH  58  61
ENDBRANCH  56  57
BRANCH  56  66
ATOM     66  C   UNL     1     -17.235  10.007   7.205  1.00  0.00     0.157 C 
BRANCH  66  67
ATOM     67  C   UNL     1     -18.361   9.661   6.273  1.00  0.00     0.305 C 
ATOM     68  O   UNL     1     -19.078   8.674   6.325  1.00  0.00    -0.252 OA
BRANCH  67  69
ATOM     69  O   UNL     1     -18.565  10.613   5.342  1.00  0.00    -0.481 OA
ATOM     70  H   UNL     1     -17.898  11.303   5.540  1.00  0.00     0.296 HD
ENDBRANCH  67  69
ENDBRANCH  66  67
ENDBRANCH  56  66
ENDBRANCH  53  56
ENDBRANCH  50  52
ENDBRANCH  47  50
ENDBRANCH  45  46
BRANCH  45  71
ATOM     71  C   UNL     1     -16.212   1.760   7.905  1.00  0.00     0.037 C 
BRANCH  71  72
ATOM     72  C   UNL     1     -16.528   0.466   7.150  1.00  0.00     0.026 C 
BRANCH  72  73
ATOM     73  C   UNL     1     -15.778  -0.725   7.743  1.00  0.00     0.146 C 
BRANCH  73  74
ATOM     74  N   UNL     1     -14.555  -0.912   6.968  1.00  0.00    -0.254 NA
ATOM     75  C   UNL     1     -13.479  -1.195   7.606  1.00  0.00     0.185 C 
ATOM     76  N   UNL     1     -12.338  -1.375   6.922  1.00  0.00    -0.370 N 
ATOM     77  N   UNL     1     -13.298  -1.351   8.930  1.00  0.00    -0.370 N 
ATOM     78  H   UNL     1     -12.385  -1.268   5.919  1.00  0.00     0.159 HD
ATOM     79  H   UNL     1     -11.437  -1.454   7.359  1.00  0.00     0.159 HD
ATOM     80  H   UNL     1     -14.071  -1.249   9.569  1.00  0.00     0.159 HD
ATOM     81  H   UNL     1     -12.428  -1.687   9.307  1.00  0.00     0.159 HD
ENDBRANCH  73  74
ENDBRANCH  72  73
ENDBRANCH  71  72
ENDBRANCH  45  71
ENDBRANCH   3  45
TORSDOF 20
ENDMDL
MODEL 4
REMARK VINA RESULT:    -7.551      3.457     10.887
REMARK INTER + INTRA:         -26.422
REMARK INTER:                 -20.010
REMARK INTRA:                  -6.412
REMARK UNBOUND:                -4.745
REMARK SMILES CCCCCC(=O)N[C@H](CC(=O)O)C(=O)N[C@H]1C(=O)N[C@H](CCCN=C(N)N)C(=O)N[C@@H]2CC[C@H](O)N(C2=O)[C@@H](CC(C)C)C(=O)N(C)[C@@H](Cc2ccccc2)C(=O)N[C@H](C(C)C)C(=O)O[C@@H]1C
REMARK SMILES IDX 30 1 31 2 29 3 32 5 35 6 37 7 34 8 38 9 33 10 39 11 36 12
REMARK SMILES IDX 40 14 41 15 42 16 43 17 44 18 45 19 46 20 47 21 48 22 49 23
REMARK SMILES IDX 50 24 51 25 52 26 56 27 53 28 55 29 54 30 57 31 58 32 59 33
REMARK SMILES IDX 60 35 61 36 62 37 63 38 64 39 65 40 66 41 67 42 68 43 21 45
REMARK SMILES IDX 20 46 18 47 19 48 17 50 16 52 14 53 15 54 9 56 8 57 6 58
REMARK SMILES IDX 7 59 5 61 4 62 3 63 2 64 1 65 10 66 11 67 12 68 13 69 22 71
REMARK SMILES IDX 23 72 24 73 25 74 26 75 27 76 28 77
REMARK H PARENT 31 4 36 13 59 34 20 49 16 55 8 60 13 70 27 78 27 79 28 80
REMARK H PARENT 28 81
REMARK Flexibility Score:  259.900
ROOT
ATOM      1  O   UNL     1     -11.314   9.799   7.481  1.00  0.00    -0.273 OA
ATOM      2  N   UNL     1     -11.137   8.681   5.494  1.00  0.00    -0.343 N 
ATOM      3  C   UNL     1     -11.838   9.124   6.595  1.00  0.00     0.243 C 
ATOM      4  H   UNL     1     -11.604   8.141   4.777  1.00  0.00     0.164 HD
ENDROOT
BRANCH   2   5
ATOM      5  C   UNL     1      -9.697   8.898   5.394  1.00  0.00     0.171 C 
ATOM      6  C   UNL     1      -7.802   8.539   3.230  1.00  0.00     0.214 C 
ATOM      7  N   UNL     1      -8.044   7.452   4.149  1.00  0.00    -0.303 N 
ATOM      8  C   UNL     1      -7.983   9.911   3.859  1.00  0.00     0.057 C 
ATOM      9  C   UNL     1      -8.973   7.539   5.174  1.00  0.00     0.247 C 
ATOM     10  C   UNL     1      -9.380  10.036   4.425  1.00  0.00     0.040 C 
ATOM     11  O   UNL     1      -9.237   6.575   5.904  1.00  0.00    -0.272 OA
BRANCH   6  12
ATOM     12  O   UNL     1      -8.676   8.380   2.136  1.00  0.00    -0.373 OA
ATOM     13  H   UNL     1      -8.506   9.126   1.521  1.00  0.00     0.213 HD
ENDBRANCH   6  12
BRANCH   7  14
ATOM     14  C   UNL     1      -7.362   6.171   3.868  1.00  0.00     0.177 C 
BRANCH  14  15
ATOM     15  C   UNL     1      -6.168   5.848   4.786  1.00  0.00     0.038 C 
BRANCH  15  16
ATOM     16  C   UNL     1      -4.738   5.846   4.201  1.00  0.00    -0.015 C 
ATOM     17  C   UNL     1      -4.092   7.234   4.231  1.00  0.00     0.007 C 
ATOM     18  C   UNL     1      -4.773   5.363   2.746  1.00  0.00     0.007 C 
ENDBRANCH  15  16
ENDBRANCH  14  15
BRANCH  14  19
ATOM     19  C   UNL     1      -8.384   5.123   3.307  1.00  0.00     0.245 C 
ATOM     20  O   UNL     1      -9.356   5.571   2.676  1.00  0.00    -0.272 OA
BRANCH  19  21
ATOM     21  N   UNL     1      -8.321   3.766   3.571  1.00  0.00    -0.332 N 
ATOM     22  C   UNL     1      -7.382   2.835   2.972  1.00  0.00     0.147 C 
BRANCH  21  23
ATOM     23  C   UNL     1      -9.298   3.199   4.540  1.00  0.00     0.178 C 
BRANCH  23  24
ATOM     24  C   UNL     1      -9.977   1.892   4.082  1.00  0.00     0.070 C 
BRANCH  24  25
ATOM     25  C   UNL     1     -11.487   1.850   4.124  1.00  0.00    -0.045 A 
ATOM     26  C   UNL     1     -12.231   3.008   4.383  1.00  0.00     0.004 A 
ATOM     27  C   UNL     1     -12.168   0.642   3.908  1.00  0.00     0.004 A 
ATOM     28  C   UNL     1     -13.625   2.957   4.438  1.00  0.00     0.000 A 
ATOM     29  C   UNL     1     -13.561   0.593   3.962  1.00  0.00     0.000 A 
ATOM     30  C   UNL     1     -14.289   1.751   4.229  1.00  0.00     0.000 A 
ENDBRANCH  24  25
ENDBRANCH  23  24
BRANCH  23  31
ATOM     31  C   UNL     1      -8.767   3.182   5.993  1.00  0.00     0.243 C 
ATOM     32  O   UNL     1      -7.575   3.214   6.290  1.00  0.00    -0.273 OA
ATOM     33  N   UNL     1      -9.750   2.941   6.939  1.00  0.00    -0.341 N 
ATOM     34  H   UNL     1     -10.725   2.919   6.630  1.00  0.00     0.164 HD
BRANCH  33  35
ATOM     35  C   UNL     1      -9.460   2.764   8.364  1.00  0.00     0.194 C 
BRANCH  35  36
ATOM     36  C   UNL     1      -9.721   1.325   8.892  1.00  0.00     0.017 C 
ATOM     37  C   UNL     1      -9.538   1.247  10.418  1.00  0.00     0.010 C 
ATOM     38  C   UNL     1      -8.795   0.275   8.265  1.00  0.00     0.010 C 
ENDBRANCH  35  36
BRANCH  35  39
ATOM     39  C   UNL     1     -10.147   3.840   9.251  1.00  0.00     0.329 C 
ATOM     40  O   UNL     1      -9.541   4.618   9.979  1.00  0.00    -0.250 OA
BRANCH  39  41
ATOM     41  O   UNL     1     -11.501   3.882   9.064  1.00  0.00    -0.458 OA
BRANCH  41  42
ATOM     42  C   UNL     1     -12.171   5.091   9.493  1.00  0.00     0.205 CG0
ATOM     43  C   UNL     1     -12.687   4.846  10.909  1.00  0.00     0.056 C 
ATOM     44  G   UNL     1     -13.306   5.404   8.498  1.00  0.00     0.000 G0
ENDBRANCH  41  42
ENDBRANCH  39  41
ENDBRANCH  35  39
ENDBRANCH  33  35
ENDBRANCH  23  31
ENDBRANCH  21  23
ENDBRANCH  19  21
ENDBRANCH  14  19
ENDBRANCH   7  14
ENDBRANCH   2   5
BRANCH   3  45
ATOM     45  C   UNL     1     -13.322   8.736   6.628  1.00  0.00     0.171 C 
BRANCH  45  46
ATOM     46  N   UNL     1     -13.352   7.327   6.999  1.00  0.00    -0.342 N 
ATOM     47  C   UNL     1     -13.437   6.911   8.304  1.00  0.00     0.247 C 
ATOM     48  O   UNL     1     -13.567   7.692   9.247  1.00  0.00    -0.273 OA
ATOM     49  H   UNL     1     -13.304   6.645   6.244  1.00  0.00     0.164 HD
BRANCH  47  50
ATOM     50  C   UNL     1     -13.331   5.394   8.511  1.00  0.00     0.212 CG0
ATOM     51  G   UNL     1     -12.158   5.135   9.478  1.00  0.00     0.000 G0
BRANCH  50  52
ATOM     52  N   UNL     1     -14.624   4.982   9.048  1.00  0.00    -0.339 N 
ATOM     53  C   UNL     1     -15.531   4.228   8.343  1.00  0.00     0.243 C 
ATOM     54  O   UNL     1     -15.343   3.886   7.179  1.00  0.00    -0.273 OA
ATOM     55  H   UNL     1     -14.885   5.328   9.969  1.00  0.00     0.164 HD
BRANCH  53  56
ATOM     56  C   UNL     1     -16.862   3.991   9.085  1.00  0.00     0.182 C 
BRANCH  56  57
ATOM     57  N   UNL     1     -16.658   3.168  10.282  1.00  0.00    -0.344 N 
ATOM     58  C   UNL     1     -16.356   3.712  11.506  1.00  0.00     0.220 C 
ATOM     59  O   UNL     1     -16.164   4.912  11.669  1.00  0.00    -0.275 OA
ATOM     60  H   UNL     1     -16.907   2.185  10.212  1.00  0.00     0.164 HD
BRANCH  58  61
ATOM     61  C   UNL     1     -16.247   2.680  12.613  1.00  0.00     0.100 C 
BRANCH  61  62
ATOM     62  C   UNL     1     -14.972   2.802  13.447  1.00  0.00     0.010 C 
BRANCH  62  63
ATOM     63  C   UNL     1     -15.206   2.750  14.962  1.00  0.00     0.000 C 
BRANCH  63  64
ATOM     64  C   UNL     1     -14.375   3.755  15.759  1.00  0.00    -0.003 C 
ATOM     65  C   UNL     1     -13.351   4.453  14.876  1.00  0.00     0.004 C 
ENDBRANCH  63  64
ENDBRANCH  62  63
ENDBRANCH  61  62
ENDBRANCH  58  61
ENDBRANCH  56  57
BRANCH  56  66
ATOM     66  C   UNL     1     -17.924   3.405   8.156  1.00  0.00     0.157 C 
BRANCH  66  67
ATOM     67  C   UNL     1     -18.043   1.919   8.336  1.00  0.00     0.305 C 
ATOM     68  O   UNL     1     -19.004   1.309   8.778  1.00  0.00    -0.252 OA
BRANCH  67  69
ATOM     69  O   UNL     1     -16.953   1.261   7.896  1.00  0.00    -0.481 OA
ATOM     70  H   UNL     1     -17.295   0.405   7.562  1.00  0.00     0.296 HD
ENDBRANCH  67  69
ENDBRANCH  66  67
ENDBRANCH  56  66
ENDBRANCH  53  56
ENDBRANCH  50  52
ENDBRANCH  47  50
ENDBRANCH  45  46
BRANCH  45  71
ATOM     71  C   UNL     1     -13.967   8.973   5.258  1.00  0.00     0.037 C 
BRANCH  71  72
ATOM     72  C   UNL     1     -15.212   9.859   5.353  1.00  0.00     0.026 C 
BRANCH  72  73
ATOM     73  C   UNL     1     -15.611  10.110   6.806  1.00  0.00     0.146 C 
BRANCH  73  74
ATOM     74  N   UNL     1     -17.027   9.786   6.943  1.00  0.00    -0.254 NA
ATOM     75  C   UNL     1     -17.337   8.700   7.551  1.00  0.00     0.185 C 
ATOM     76  N   UNL     1     -18.632   8.375   7.694  1.00  0.00    -0.370 N 
ATOM     77  N   UNL     1     -16.527   7.780   8.102  1.00  0.00    -0.370 N 
ATOM     78  H   UNL     1     -19.310   9.012   7.300  1.00  0.00     0.159 HD
ATOM     79  H   UNL     1     -18.945   7.480   8.026  1.00  0.00     0.159 HD
ATOM     80  H   UNL     1     -15.525   7.894   8.074  1.00  0.00     0.159 HD
ATOM     81  H   UNL     1     -16.889   7.022   8.657  1.00  0.00     0.159 HD
ENDBRANCH  73  74
ENDBRANCH  72  73
ENDBRANCH  71  72
ENDBRANCH  45  71
ENDBRANCH   3  45
TORSDOF 20
ENDMDL
MODEL 5
REMARK VINA RESULT:    -7.523      3.453     12.045
REMARK INTER + INTRA:         -26.342
REMARK INTER:                 -20.585
REMARK INTRA:                  -5.757
REMARK UNBOUND:                -4.745
REMARK SMILES CCCCCC(=O)N[C@H](CC(=O)O)C(=O)N[C@H]1C(=O)N[C@H](CCCN=C(N)N)C(=O)N[C@@H]2CC[C@H](O)N(C2=O)[C@@H](CC(C)C)C(=O)N(C)[C@@H](Cc2ccccc2)C(=O)N[C@H](C(C)C)C(=O)O[C@@H]1C
REMARK SMILES IDX 30 1 31 2 29 3 32 5 35 6 37 7 34 8 38 9 33 10 39 11 36 12
REMARK SMILES IDX 40 14 41 15 42 16 43 17 44 18 45 19 46 20 47 21 48 22 49 23
REMARK SMILES IDX 50 24 51 25 52 26 56 27 53 28 55 29 54 30 57 31 58 32 59 33
REMARK SMILES IDX 60 35 61 36 62 37 63 38 64 39 65 40 66 41 67 42 68 43 21 45
REMARK SMILES IDX 20 46 18 47 19 48 17 50 16 52 14 53 15 54 9 56 8 57 6 58
REMARK SMILES IDX 7 59 5 61 4 62 3 63 2 64 1 65 10 66 11 67 12 68 13 69 22 71
REMARK SMILES IDX 23 72 24 73 25 74 26 75 27 76 28 77
REMARK H PARENT 31 4 36 13 59 34 20 49 16 55 8 60 13 70 27 78 27 79 28 80
REMARK H PARENT 28 81
REMARK Flexibility Score:  259.900
ROOT
ATOM      1  O   UNL     1     -14.555   7.126  10.579  1.00  0.00    -0.273 OA
ATOM      2  N   UNL     1     -14.356   6.902   8.311  1.00  0.00    -0.343 N 
ATOM      3  C   UNL     1     -15.047   6.795   9.500  1.00  0.00     0.243 C 
ATOM      4  H   UNL     1     -14.798   6.634   7.441  1.00  0.00     0.164 HD
ENDROOT
BRANCH   2   5
ATOM      5  C   UNL     1     -12.955   7.307   8.301  1.00  0.00     0.171 C 
ATOM      6  C   UNL     1     -11.041   7.704   6.160  1.00  0.00     0.214 C 
ATOM      7  N   UNL     1     -11.144   6.408   6.789  1.00  0.00    -0.303 N 
ATOM      8  C   UNL     1     -11.383   8.854   7.093  1.00  0.00     0.057 C 
ATOM      9  C   UNL     1     -12.072   6.136   7.782  1.00  0.00     0.247 C 
ATOM     10  C   UNL     1     -12.783   8.673   7.638  1.00  0.00     0.040 C 
ATOM     11  O   UNL     1     -12.213   5.001   8.255  1.00  0.00    -0.272 OA
BRANCH   6  12
ATOM     12  O   UNL     1     -11.894   7.708   5.039  1.00  0.00    -0.373 OA
ATOM     13  H   UNL     1     -11.338   7.520   4.254  1.00  0.00     0.213 HD
ENDBRANCH   6  12
BRANCH   7  14
ATOM     14  C   UNL     1     -10.313   5.322   6.228  1.00  0.00     0.177 C 
BRANCH  14  15
ATOM     15  C   UNL     1     -10.129   5.360   4.698  1.00  0.00     0.038 C 
BRANCH  15  16
ATOM     16  C   UNL     1      -8.709   5.245   4.100  1.00  0.00    -0.015 C 
ATOM     17  C   UNL     1      -7.960   6.581   4.111  1.00  0.00     0.007 C 
ATOM     18  C   UNL     1      -8.797   4.755   2.648  1.00  0.00     0.007 C 
ENDBRANCH  15  16
ENDBRANCH  14  15
BRANCH  14  19
ATOM     19  C   UNL     1      -9.220   4.884   7.262  1.00  0.00     0.245 C 
ATOM     20  O   UNL     1      -8.365   5.733   7.565  1.00  0.00    -0.272 OA
BRANCH  19  21
ATOM     21  N   UNL     1      -9.096   3.597   7.755  1.00  0.00    -0.332 N 
ATOM     22  C   UNL     1      -9.018   3.237   9.160  1.00  0.00     0.147 C 
BRANCH  21  23
ATOM     23  C   UNL     1      -9.025   2.480   6.774  1.00  0.00     0.178 C 
BRANCH  23  24
ATOM     24  C   UNL     1      -7.616   1.882   6.578  1.00  0.00     0.070 C 
BRANCH  24  25
ATOM     25  C   UNL     1      -6.676   2.623   5.656  1.00  0.00    -0.045 A 
ATOM     26  C   UNL     1      -6.535   2.242   4.316  1.00  0.00     0.004 A 
ATOM     27  C   UNL     1      -5.924   3.706   6.136  1.00  0.00     0.004 A 
ATOM     28  C   UNL     1      -5.651   2.922   3.475  1.00  0.00     0.000 A 
ATOM     29  C   UNL     1      -5.042   4.386   5.294  1.00  0.00     0.000 A 
ATOM     30  C   UNL     1      -4.904   3.991   3.965  1.00  0.00     0.000 A 
ENDBRANCH  24  25
ENDBRANCH  23  24
BRANCH  23  31
ATOM     31  C   UNL     1     -10.154   1.439   6.961  1.00  0.00     0.243 C 
ATOM     32  O   UNL     1      -9.973   0.224   6.976  1.00  0.00    -0.273 OA
ATOM     33  N   UNL     1     -11.424   1.988   6.926  1.00  0.00    -0.341 N 
ATOM     34  H   UNL     1     -11.512   3.007   6.907  1.00  0.00     0.164 HD
BRANCH  33  35
ATOM     35  C   UNL     1     -12.646   1.180   6.964  1.00  0.00     0.194 C 
BRANCH  35  36
ATOM     36  C   UNL     1     -13.862   1.832   6.248  1.00  0.00     0.017 C 
ATOM     37  C   UNL     1     -14.496   0.868   5.231  1.00  0.00     0.010 C 
ATOM     38  C   UNL     1     -13.502   3.120   5.497  1.00  0.00     0.010 C 
ENDBRANCH  35  36
BRANCH  35  39
ATOM     39  C   UNL     1     -13.004   0.705   8.401  1.00  0.00     0.329 C 
ATOM     40  O   UNL     1     -12.212   0.163   9.161  1.00  0.00    -0.250 OA
BRANCH  39  41
ATOM     41  O   UNL     1     -14.282   1.040   8.755  1.00  0.00    -0.458 OA
BRANCH  41  42
ATOM     42  C   UNL     1     -14.443   2.289   9.469  1.00  0.00     0.205 CG0
ATOM     43  C   UNL     1     -13.601   2.197  10.740  1.00  0.00     0.056 C 
ATOM     44  G   UNL     1     -15.941   2.495   9.767  1.00  0.00     0.000 G0
ENDBRANCH  41  42
ENDBRANCH  39  41
ENDBRANCH  35  39
ENDBRANCH  33  35
ENDBRANCH  23  31
ENDBRANCH  21  23
ENDBRANCH  19  21
ENDBRANCH  14  19
ENDBRANCH   7  14
ENDBRANCH   2   5
BRANCH   3  45
ATOM     45  C   UNL     1     -16.478   6.255   9.381  1.00  0.00     0.171 C 
BRANCH  45  46
ATOM     46  N   UNL     1     -16.341   4.821   9.159  1.00  0.00    -0.342 N 
ATOM     47  C   UNL     1     -16.237   3.923  10.191  1.00  0.00     0.247 C 
ATOM     48  O   UNL     1     -16.325   4.252  11.375  1.00  0.00    -0.273 OA
ATOM     49  H   UNL     1     -16.321   4.500   8.193  1.00  0.00     0.164 HD
BRANCH  47  50
ATOM     50  C   UNL     1     -15.974   2.472   9.766  1.00  0.00     0.212 CG0
ATOM     51  G   UNL     1     -14.463   2.332   9.491  1.00  0.00     0.000 G0
BRANCH  50  52
ATOM     52  N   UNL     1     -16.436   1.649  10.881  1.00  0.00    -0.339 N 
ATOM     53  C   UNL     1     -17.374   0.654  10.748  1.00  0.00     0.243 C 
ATOM     54  O   UNL     1     -17.938   0.414   9.684  1.00  0.00    -0.273 OA
ATOM     55  H   UNL     1     -16.087   1.874  11.810  1.00  0.00     0.164 HD
BRANCH  53  56
ATOM     56  C   UNL     1     -17.767  -0.020  12.078  1.00  0.00     0.182 C 
BRANCH  56  57
ATOM     57  N   UNL     1     -19.210  -0.273  12.134  1.00  0.00    -0.344 N 
ATOM     58  C   UNL     1     -19.731  -1.541  12.226  1.00  0.00     0.220 C 
ATOM     59  O   UNL     1     -19.034  -2.549  12.194  1.00  0.00    -0.275 OA
ATOM     60  H   UNL     1     -19.814   0.533  12.264  1.00  0.00     0.164 HD
BRANCH  58  61
ATOM     61  C   UNL     1     -21.245  -1.562  12.329  1.00  0.00     0.100 C 
BRANCH  61  62
ATOM     62  C   UNL     1     -21.919  -2.489  11.317  1.00  0.00     0.010 C 
BRANCH  62  63
ATOM     63  C   UNL     1     -21.693  -2.089   9.853  1.00  0.00     0.000 C 
BRANCH  63  64
ATOM     64  C   UNL     1     -21.589  -3.271   8.890  1.00  0.00    -0.003 C 
ATOM     65  C   UNL     1     -20.179  -3.841   8.861  1.00  0.00     0.004 C 
ENDBRANCH  63  64
ENDBRANCH  62  63
ENDBRANCH  61  62
ENDBRANCH  58  61
ENDBRANCH  56  57
BRANCH  56  66
ATOM     66  C   UNL     1     -17.276   0.786  13.280  1.00  0.00     0.157 C 
BRANCH  66  67
ATOM     67  C   UNL     1     -17.462   0.021  14.559  1.00  0.00     0.305 C 
ATOM     68  O   UNL     1     -16.691  -0.791  15.046  1.00  0.00    -0.252 OA
BRANCH  67  69
ATOM     69  O   UNL     1     -18.599   0.360  15.197  1.00  0.00    -0.481 OA
ATOM     70  H   UNL     1     -18.312   0.957  15.919  1.00  0.00     0.296 HD
ENDBRANCH  67  69
ENDBRANCH  66  67
ENDBRANCH  56  66
ENDBRANCH  53  56
ENDBRANCH  50  52
ENDBRANCH  47  50
ENDBRANCH  45  46
BRANCH  45  71
ATOM     71  C   UNL     1     -17.213   6.939   8.223  1.00  0.00     0.037 C 
BRANCH  71  72
ATOM     72  C   UNL     1     -18.191   8.010   8.714  1.00  0.00     0.026 C 
BRANCH  72  73
ATOM     73  C   UNL     1     -17.738   9.410   8.306  1.00  0.00     0.146 C 
BRANCH  73  74
ATOM     74  N   UNL     1     -18.639   9.884   7.259  1.00  0.00    -0.254 NA
ATOM     75  C   UNL     1     -18.130  10.177   6.120  1.00  0.00     0.185 C 
ATOM     76  N   UNL     1     -18.934  10.615   5.136  1.00  0.00    -0.370 N 
ATOM     77  N   UNL     1     -16.847  10.114   5.725  1.00  0.00    -0.370 N 
ATOM     78  H   UNL     1     -19.917  10.699   5.352  1.00  0.00     0.159 HD
ATOM     79  H   UNL     1     -18.593  10.998   4.272  1.00  0.00     0.159 HD
ATOM     80  H   UNL     1     -16.129   9.797   6.360  1.00  0.00     0.159 HD
ATOM     81  H   UNL     1     -16.581  10.260   4.765  1.00  0.00     0.159 HD
ENDBRANCH  73  74
ENDBRANCH  72  73
ENDBRANCH  71  72
ENDBRANCH  45  71
ENDBRANCH   3  45
TORSDOF 20
ENDMDL
MODEL 6
REMARK VINA RESULT:    -7.425      3.973     10.702
REMARK INTER + INTRA:         -26.059
REMARK INTER:                 -19.573
REMARK INTRA:                  -6.486
REMARK UNBOUND:                -4.745
REMARK SMILES CCCCCC(=O)N[C@H](CC(=O)O)C(=O)N[C@H]1C(=O)N[C@H](CCCN=C(N)N)C(=O)N[C@@H]2CC[C@H](O)N(C2=O)[C@@H](CC(C)C)C(=O)N(C)[C@@H](Cc2ccccc2)C(=O)N[C@H](C(C)C)C(=O)O[C@@H]1C
REMARK SMILES IDX 30 1 31 2 29 3 32 5 35 6 37 7 34 8 38 9 33 10 39 11 36 12
REMARK SMILES IDX 40 14 41 15 42 16 43 17 44 18 45 19 46 20 47 21 48 22 49 23
REMARK SMILES IDX 50 24 51 25 52 26 56 27 53 28 55 29 54 30 57 31 58 32 59 33
REMARK SMILES IDX 60 35 61 36 62 37 63 38 64 39 65 40 66 41 67 42 68 43 21 45
REMARK SMILES IDX 20 46 18 47 19 48 17 50 16 52 14 53 15 54 9 56 8 57 6 58
REMARK SMILES IDX 7 59 5 61 4 62 3 63 2 64 1 65 10 66 11 67 12 68 13 69 22 71
REMARK SMILES IDX 23 72 24 73 25 74 26 75 27 76 28 77
REMARK H PARENT 31 4 36 13 59 34 20 49 16 55 8 60 13 70 27 78 27 79 28 80
REMARK H PARENT 28 81
REMARK Flexibility Score:  259.900
ROOT
ATOM      1  O   UNL     1     -11.593   1.274  10.227  1.00  0.00    -0.273 OA
ATOM      2  N   UNL     1     -10.457   2.983   9.217  1.00  0.00    -0.343 N 
ATOM      3  C   UNL     1     -11.471   2.479  10.004  1.00  0.00     0.243 C 
ATOM      4  H   UNL     1     -10.379   3.981   9.066  1.00  0.00     0.164 HD
ENDROOT
BRANCH   2   5
ATOM      5  C   UNL     1      -9.548   2.085   8.513  1.00  0.00     0.171 C 
ATOM      6  C   UNL     1      -6.791   2.357   7.659  1.00  0.00     0.214 C 
ATOM      7  N   UNL     1      -7.854   2.739   6.759  1.00  0.00    -0.303 N 
ATOM      8  C   UNL     1      -7.182   1.239   8.612  1.00  0.00     0.057 C 
ATOM      9  C   UNL     1      -9.190   2.682   7.122  1.00  0.00     0.247 C 
ATOM     10  C   UNL     1      -8.395   1.653   9.417  1.00  0.00     0.040 C 
ATOM     11  O   UNL     1     -10.090   3.092   6.377  1.00  0.00    -0.272 OA
BRANCH   6  12
ATOM     12  O   UNL     1      -6.403   3.504   8.378  1.00  0.00    -0.373 OA
ATOM     13  H   UNL     1      -6.350   4.243   7.734  1.00  0.00     0.213 HD
ENDBRANCH   6  12
BRANCH   7  14
ATOM     14  C   UNL     1      -7.457   3.339   5.468  1.00  0.00     0.177 C 
BRANCH  14  15
ATOM     15  C   UNL     1      -7.299   2.344   4.302  1.00  0.00     0.038 C 
BRANCH  15  16
ATOM     16  C   UNL     1      -6.188   2.570   3.253  1.00  0.00    -0.015 C 
ATOM     17  C   UNL     1      -5.676   1.257   2.652  1.00  0.00     0.007 C 
ATOM     18  C   UNL     1      -5.003   3.297   3.900  1.00  0.00     0.007 C 
ENDBRANCH  15  16
ENDBRANCH  14  15
BRANCH  14  19
ATOM     19  C   UNL     1      -8.026   4.795   5.347  1.00  0.00     0.245 C 
ATOM     20  O   UNL     1      -7.652   5.614   6.203  1.00  0.00    -0.272 OA
BRANCH  19  21
ATOM     21  N   UNL     1      -8.987   5.173   4.427  1.00  0.00    -0.332 N 
ATOM     22  C   UNL     1      -9.498   4.341   3.351  1.00  0.00     0.147 C 
BRANCH  21  23
ATOM     23  C   UNL     1      -9.545   6.550   4.529  1.00  0.00     0.178 C 
BRANCH  23  24
ATOM     24  C   UNL     1      -9.039   7.533   3.454  1.00  0.00     0.070 C 
BRANCH  24  25
ATOM     25  C   UNL     1      -8.923   8.986   3.850  1.00  0.00    -0.045 A 
ATOM     26  C   UNL     1      -9.924   9.605   4.610  1.00  0.00     0.004 A 
ATOM     27  C   UNL     1      -7.808   9.741   3.456  1.00  0.00     0.004 A 
ATOM     28  C   UNL     1      -9.818  10.953   4.958  1.00  0.00     0.000 A 
ATOM     29  C   UNL     1      -7.702  11.088   3.805  1.00  0.00     0.000 A 
ATOM     30  C   UNL     1      -8.709  11.694   4.554  1.00  0.00     0.000 A 
ENDBRANCH  24  25
ENDBRANCH  23  24
BRANCH  23  31
ATOM     31  C   UNL     1     -11.075   6.566   4.758  1.00  0.00     0.243 C 
ATOM     32  O   UNL     1     -11.905   6.527   3.853  1.00  0.00    -0.273 OA
ATOM     33  N   UNL     1     -11.435   6.816   6.071  1.00  0.00    -0.341 N 
ATOM     34  H   UNL     1     -10.698   6.843   6.780  1.00  0.00     0.164 HD
BRANCH  33  35
ATOM     35  C   UNL     1     -12.826   6.993   6.498  1.00  0.00     0.194 C 
BRANCH  35  36
ATOM     36  C   UNL     1     -13.066   8.254   7.374  1.00  0.00     0.017 C 
ATOM     37  C   UNL     1     -14.105   9.191   6.734  1.00  0.00     0.010 C 
ATOM     38  C   UNL     1     -11.793   9.076   7.611  1.00  0.00     0.010 C 
ENDBRANCH  35  36
BRANCH  35  39
ATOM     39  C   UNL     1     -13.419   5.712   7.150  1.00  0.00     0.329 C 
ATOM     40  O   UNL     1     -13.072   4.572   6.863  1.00  0.00    -0.250 OA
BRANCH  39  41
ATOM     41  O   UNL     1     -14.312   6.001   8.145  1.00  0.00    -0.458 OA
BRANCH  41  42
ATOM     42  C   UNL     1     -15.645   5.461   7.986  1.00  0.00     0.205 CG0
ATOM     43  C   UNL     1     -16.629   6.546   8.418  1.00  0.00     0.056 C 
ATOM     44  G   UNL     1     -15.763   4.183   8.841  1.00  0.00     0.000 G0
ENDBRANCH  41  42
ENDBRANCH  39  41
ENDBRANCH  35  39
ENDBRANCH  33  35
ENDBRANCH  23  31
ENDBRANCH  21  23
ENDBRANCH  19  21
ENDBRANCH  14  19
ENDBRANCH   7  14
ENDBRANCH   2   5
BRANCH   3  45
ATOM     45  C   UNL     1     -12.423   3.525  10.598  1.00  0.00     0.171 C 
BRANCH  45  46
ATOM     46  N   UNL     1     -13.505   3.666   9.633  1.00  0.00    -0.342 N 
ATOM     47  C   UNL     1     -14.729   4.187   9.971  1.00  0.00     0.247 C 
ATOM     48  O   UNL     1     -14.979   4.637  11.090  1.00  0.00    -0.273 OA
ATOM     49  H   UNL     1     -13.323   3.357   8.680  1.00  0.00     0.164 HD
BRANCH  47  50
ATOM     50  C   UNL     1     -15.784   4.142   8.856  1.00  0.00     0.212 CG0
ATOM     51  G   UNL     1     -15.634   5.428   8.019  1.00  0.00     0.000 G0
BRANCH  50  52
ATOM     52  N   UNL     1     -15.501   2.925   8.100  1.00  0.00    -0.339 N 
ATOM     53  C   UNL     1     -16.453   1.978   7.809  1.00  0.00     0.243 C 
ATOM     54  O   UNL     1     -17.610   2.057   8.211  1.00  0.00    -0.273 OA
ATOM     55  H   UNL     1     -14.535   2.748   7.834  1.00  0.00     0.164 HD
BRANCH  53  56
ATOM     56  C   UNL     1     -15.901   0.739   7.076  1.00  0.00     0.182 C 
BRANCH  56  57
ATOM     57  N   UNL     1     -14.442   0.809   6.948  1.00  0.00    -0.344 N 
ATOM     58  C   UNL     1     -13.641  -0.304   7.026  1.00  0.00     0.220 C 
ATOM     59  O   UNL     1     -14.080  -1.421   7.280  1.00  0.00    -0.275 OA
ATOM     60  H   UNL     1     -14.049   1.694   6.638  1.00  0.00     0.164 HD
BRANCH  58  61
ATOM     61  C   UNL     1     -12.170  -0.004   6.807  1.00  0.00     0.100 C 
BRANCH  61  62
ATOM     62  C   UNL     1     -11.292  -1.253   6.722  1.00  0.00     0.010 C 
BRANCH  62  63
ATOM     63  C   UNL     1      -9.809  -0.999   7.021  1.00  0.00     0.000 C 
BRANCH  63  64
ATOM     64  C   UNL     1      -9.281  -1.741   8.247  1.00  0.00    -0.003 C 
ATOM     65  C   UNL     1     -10.322  -1.793   9.356  1.00  0.00     0.004 C 
ENDBRANCH  63  64
ENDBRANCH  62  63
ENDBRANCH  61  62
ENDBRANCH  58  61
ENDBRANCH  56  57
BRANCH  56  66
ATOM     66  C   UNL     1     -16.589   0.533   5.728  1.00  0.00     0.157 C 
BRANCH  66  67
ATOM     67  C   UNL     1     -15.897   1.305   4.641  1.00  0.00     0.305 C 
ATOM     68  O   UNL     1     -14.993   0.908   3.922  1.00  0.00    -0.252 OA
BRANCH  67  69
ATOM     69  O   UNL     1     -16.418   2.536   4.477  1.00  0.00    -0.481 OA
ATOM     70  H   UNL     1     -15.745   3.026   3.960  1.00  0.00     0.296 HD
ENDBRANCH  67  69
ENDBRANCH  66  67
ENDBRANCH  56  66
ENDBRANCH  53  56
ENDBRANCH  50  52
ENDBRANCH  47  50
ENDBRANCH  45  46
BRANCH  45  71
ATOM     71  C   UNL     1     -11.687   4.851  10.821  1.00  0.00     0.037 C 
BRANCH  71  72
ATOM     72  C   UNL     1     -11.540   5.185  12.308  1.00  0.00     0.026 C 
BRANCH  72  73
ATOM     73  C   UNL     1     -11.815   3.966  13.186  1.00  0.00     0.146 C 
BRANCH  73  74
ATOM     74  N   UNL     1     -12.606   4.408  14.330  1.00  0.00    -0.254 NA
ATOM     75  C   UNL     1     -13.803   3.961  14.439  1.00  0.00     0.185 C 
ATOM     76  N   UNL     1     -14.555   4.350  15.481  1.00  0.00    -0.370 N 
ATOM     77  N   UNL     1     -14.466   3.116  13.631  1.00  0.00    -0.370 N 
ATOM     78  H   UNL     1     -14.134   4.993  16.136  1.00  0.00     0.159 HD
ATOM     79  H   UNL     1     -15.539   4.159  15.555  1.00  0.00     0.159 HD
ATOM     80  H   UNL     1     -14.023   2.738  12.807  1.00  0.00     0.159 HD
ATOM     81  H   UNL     1     -15.368   2.744  13.881  1.00  0.00     0.159 HD
ENDBRANCH  73  74
ENDBRANCH  72  73
ENDBRANCH  71  72
ENDBRANCH  45  71
ENDBRANCH   3  45
TORSDOF 20
ENDMDL
MODEL 7
REMARK VINA RESULT:    -7.398      3.653     11.453
REMARK INTER + INTRA:         -25.983
REMARK INTER:                 -20.842
REMARK INTRA:                  -5.142
REMARK UNBOUND:                -4.745
REMARK SMILES CCCCCC(=O)N[C@H](CC(=O)O)C(=O)N[C@H]1C(=O)N[C@H](CCCN=C(N)N)C(=O)N[C@@H]2CC[C@H](O)N(C2=O)[C@@H](CC(C)C)C(=O)N(C)[C@@H](Cc2ccccc2)C(=O)N[C@H](C(C)C)C(=O)O[C@@H]1C
REMARK SMILES IDX 30 1 31 2 29 3 32 5 35 6 37 7 34 8 38 9 33 10 39 11 36 12
REMARK SMILES IDX 40 14 41 15 42 16 43 17 44 18 45 19 46 20 47 21 48 22 49 23
REMARK SMILES IDX 50 24 51 25 52 26 56 27 53 28 55 29 54 30 57 31 58 32 59 33
REMARK SMILES IDX 60 35 61 36 62 37 63 38 64 39 65 40 66 41 67 42 68 43 21 45
REMARK SMILES IDX 20 46 18 47 19 48 17 50 16 52 14 53 15 54 9 56 8 57 6 58
REMARK SMILES IDX 7 59 5 61 4 62 3 63 2 64 1 65 10 66 11 67 12 68 13 69 22 71
REMARK SMILES IDX 23 72 24 73 25 74 26 75 27 76 28 77
REMARK H PARENT 31 4 36 13 59 34 20 49 16 55 8 60 13 70 27 78 27 79 28 80
REMARK H PARENT 28 81
REMARK Flexibility Score:  259.900
ROOT
ATOM      1  O   UNL     1      -8.391   0.140   9.086  1.00  0.00    -0.273 OA
ATOM      2  N   UNL     1      -9.019   1.707   7.544  1.00  0.00    -0.343 N 
ATOM      3  C   UNL     1      -9.273   0.659   8.402  1.00  0.00     0.243 C 
ATOM      4  H   UNL     1      -9.773   2.119   7.008  1.00  0.00     0.164 HD
ENDROOT
BRANCH   2   5
ATOM      5  C   UNL     1      -7.654   2.171   7.322  1.00  0.00     0.171 C 
ATOM      6  C   UNL     1      -6.546   4.761   6.637  1.00  0.00     0.214 C 
ATOM      7  N   UNL     1      -6.900   3.839   5.583  1.00  0.00    -0.303 N 
ATOM      8  C   UNL     1      -6.120   4.071   7.923  1.00  0.00     0.057 C 
ATOM      9  C   UNL     1      -7.480   2.607   5.839  1.00  0.00     0.247 C 
ATOM     10  C   UNL     1      -7.227   3.159   8.406  1.00  0.00     0.040 C 
ATOM     11  O   UNL     1      -7.860   1.859   4.928  1.00  0.00    -0.272 OA
BRANCH   6  12
ATOM     12  O   UNL     1      -7.658   5.595   6.870  1.00  0.00    -0.373 OA
ATOM     13  H   UNL     1      -7.590   6.346   6.243  1.00  0.00     0.213 HD
ENDBRANCH   6  12
BRANCH   7  14
ATOM     14  C   UNL     1      -6.754   4.321   4.193  1.00  0.00     0.177 C 
BRANCH  14  15
ATOM     15  C   UNL     1      -5.397   4.013   3.531  1.00  0.00     0.038 C 
BRANCH  15  16
ATOM     16  C   UNL     1      -4.302   5.103   3.498  1.00  0.00    -0.015 C 
ATOM     17  C   UNL     1      -4.855   6.496   3.815  1.00  0.00     0.007 C 
ATOM     18  C   UNL     1      -3.657   5.147   2.106  1.00  0.00     0.007 C 
ENDBRANCH  15  16
ENDBRANCH  14  15
BRANCH  14  19
ATOM     19  C   UNL     1      -8.142   4.308   3.465  1.00  0.00     0.245 C 
ATOM     20  O   UNL     1      -8.143   3.969   2.270  1.00  0.00    -0.272 OA
BRANCH  19  21
ATOM     21  N   UNL     1      -9.319   4.752   4.040  1.00  0.00    -0.332 N 
ATOM     22  C   UNL     1     -10.416   3.907   4.476  1.00  0.00     0.147 C 
BRANCH  21  23
ATOM     23  C   UNL     1      -9.493   6.220   4.223  1.00  0.00     0.178 C 
BRANCH  23  24
ATOM     24  C   UNL     1      -9.023   7.079   3.032  1.00  0.00     0.070 C 
BRANCH  24  25
ATOM     25  C   UNL     1      -8.611   8.502   3.330  1.00  0.00    -0.045 A 
ATOM     26  C   UNL     1      -7.510   9.080   2.686  1.00  0.00     0.004 A 
ATOM     27  C   UNL     1      -9.327   9.265   4.265  1.00  0.00     0.004 A 
ATOM     28  C   UNL     1      -7.125  10.390   2.980  1.00  0.00     0.000 A 
ATOM     29  C   UNL     1      -8.942  10.575   4.556  1.00  0.00     0.000 A 
ATOM     30  C   UNL     1      -7.839  11.135   3.915  1.00  0.00     0.000 A 
ENDBRANCH  24  25
ENDBRANCH  23  24
BRANCH  23  31
ATOM     31  C   UNL     1     -10.882   6.597   4.790  1.00  0.00     0.243 C 
ATOM     32  O   UNL     1     -11.784   7.098   4.123  1.00  0.00    -0.273 OA
ATOM     33  N   UNL     1     -10.964   6.493   6.169  1.00  0.00    -0.341 N 
ATOM     34  H   UNL     1     -10.178   6.073   6.671  1.00  0.00     0.164 HD
BRANCH  33  35
ATOM     35  C   UNL     1     -12.143   6.910   6.933  1.00  0.00     0.194 C 
BRANCH  35  36
ATOM     36  C   UNL     1     -11.864   8.037   7.966  1.00  0.00     0.017 C 
ATOM     37  C   UNL     1     -13.096   8.304   8.849  1.00  0.00     0.010 C 
ATOM     38  C   UNL     1     -11.468   9.369   7.315  1.00  0.00     0.010 C 
ENDBRANCH  35  36
BRANCH  35  39
ATOM     39  C   UNL     1     -12.896   5.710   7.573  1.00  0.00     0.329 C 
ATOM     40  O   UNL     1     -14.116   5.608   7.613  1.00  0.00    -0.250 OA
BRANCH  39  41
ATOM     41  O   UNL     1     -12.043   4.735   8.011  1.00  0.00    -0.458 OA
BRANCH  41  42
ATOM     42  C   UNL     1     -12.101   4.419   9.422  1.00  0.00     0.205 CG0
ATOM     43  C   UNL     1     -10.662   4.289   9.918  1.00  0.00     0.056 C 
ATOM     44  G   UNL     1     -12.906   3.117   9.602  1.00  0.00     0.000 G0
ENDBRANCH  41  42
ENDBRANCH  39  41
ENDBRANCH  35  39
ENDBRANCH  33  35
ENDBRANCH  23  31
ENDBRANCH  21  23
ENDBRANCH  19  21
ENDBRANCH  14  19
ENDBRANCH   7  14
ENDBRANCH   2   5
BRANCH   3  45
ATOM     45  C   UNL     1     -10.736   0.198   8.462  1.00  0.00     0.171 C 
BRANCH  45  46
ATOM     46  N   UNL     1     -11.436   1.211   9.242  1.00  0.00    -0.342 N 
ATOM     47  C   UNL     1     -12.397   2.024   8.697  1.00  0.00     0.247 C 
ATOM     48  O   UNL     1     -12.790   1.911   7.535  1.00  0.00    -0.273 OA
ATOM     49  H   UNL     1     -11.182   1.301  10.224  1.00  0.00     0.164 HD
BRANCH  47  50
ATOM     50  C   UNL     1     -12.936   3.113   9.636  1.00  0.00     0.212 CG0
ATOM     51  G   UNL     1     -12.090   4.382   9.413  1.00  0.00     0.000 G0
BRANCH  50  52
ATOM     52  N   UNL     1     -14.339   3.283   9.271  1.00  0.00    -0.339 N 
ATOM     53  C   UNL     1     -15.369   2.622   9.896  1.00  0.00     0.243 C 
ATOM     54  O   UNL     1     -15.181   1.791  10.781  1.00  0.00    -0.273 OA
ATOM     55  H   UNL     1     -14.551   3.875   8.470  1.00  0.00     0.164 HD
BRANCH  53  56
ATOM     56  C   UNL     1     -16.756   2.897   9.281  1.00  0.00     0.182 C 
BRANCH  56  57
ATOM     57  N   UNL     1     -17.122   4.310   9.419  1.00  0.00    -0.344 N 
ATOM     58  C   UNL     1     -17.497   5.081   8.345  1.00  0.00     0.220 C 
ATOM     59  O   UNL     1     -17.480   4.665   7.192  1.00  0.00    -0.275 OA
ATOM     60  H   UNL     1     -17.247   4.663  10.364  1.00  0.00     0.164 HD
BRANCH  58  61
ATOM     61  C   UNL     1     -17.889   6.496   8.729  1.00  0.00     0.100 C 
BRANCH  61  62
ATOM     62  C   UNL     1     -17.116   7.576   7.972  1.00  0.00     0.010 C 
BRANCH  62  63
ATOM     63  C   UNL     1     -17.846   8.923   7.883  1.00  0.00     0.000 C 
BRANCH  63  64
ATOM     64  C   UNL     1     -17.057  10.016   7.163  1.00  0.00    -0.003 C 
ATOM     65  C   UNL     1     -15.791   9.460   6.528  1.00  0.00     0.004 C 
ENDBRANCH  63  64
ENDBRANCH  62  63
ENDBRANCH  61  62
ENDBRANCH  58  61
ENDBRANCH  56  57
BRANCH  56  66
ATOM     66  C   UNL     1     -17.820   1.966   9.861  1.00  0.00     0.157 C 
BRANCH  66  67
ATOM     67  C   UNL     1     -18.539   1.218   8.775  1.00  0.00     0.305 C 
ATOM     68  O   UNL     1     -18.851   1.646   7.674  1.00  0.00    -0.252 OA
BRANCH  67  69
ATOM     69  O   UNL     1     -18.786  -0.061   9.112  1.00  0.00    -0.481 OA
ATOM     70  H   UNL     1     -19.751  -0.093   9.284  1.00  0.00     0.296 HD
ENDBRANCH  67  69
ENDBRANCH  66  67
ENDBRANCH  56  66
ENDBRANCH  53  56
ENDBRANCH  50  52
ENDBRANCH  47  50
ENDBRANCH  45  46
BRANCH  45  71
ATOM     71  C   UNL     1     -10.833  -1.185   9.115  1.00  0.00     0.037 C 
BRANCH  71  72
ATOM     72  C   UNL     1     -11.550  -2.196   8.216  1.00  0.00     0.026 C 
BRANCH  72  73
ATOM     73  C   UNL     1     -12.480  -1.502   7.223  1.00  0.00     0.146 C 
BRANCH  73  74
ATOM     74  N   UNL     1     -12.087  -1.914   5.879  1.00  0.00    -0.254 NA
ATOM     75  C   UNL     1     -11.846  -0.996   5.018  1.00  0.00     0.185 C 
ATOM     76  N   UNL     1     -11.480  -1.344   3.773  1.00  0.00    -0.370 N 
ATOM     77  N   UNL     1     -11.903   0.339   5.167  1.00  0.00    -0.370 N 
ATOM     78  H   UNL     1     -11.420  -2.332   3.573  1.00  0.00     0.159 HD
ATOM     79  H   UNL     1     -11.417  -0.691   3.012  1.00  0.00     0.159 HD
ATOM     80  H   UNL     1     -12.161   0.746   6.054  1.00  0.00     0.159 HD
ATOM     81  H   UNL     1     -11.579   0.965   4.449  1.00  0.00     0.159 HD
ENDBRANCH  73  74
ENDBRANCH  72  73
ENDBRANCH  71  72
ENDBRANCH  45  71
ENDBRANCH   3  45
TORSDOF 20
ENDMDL
MODEL 8
REMARK VINA RESULT:    -7.385      4.176     11.174
REMARK INTER + INTRA:         -25.945
REMARK INTER:                 -19.632
REMARK INTRA:                  -6.313
REMARK UNBOUND:                -4.745
REMARK SMILES CCCCCC(=O)N[C@H](CC(=O)O)C(=O)N[C@H]1C(=O)N[C@H](CCCN=C(N)N)C(=O)N[C@@H]2CC[C@H](O)N(C2=O)[C@@H](CC(C)C)C(=O)N(C)[C@@H](Cc2ccccc2)C(=O)N[C@H](C(C)C)C(=O)O[C@@H]1C
REMARK SMILES IDX 30 1 31 2 29 3 32 5 35 6 37 7 34 8 38 9 33 10 39 11 36 12
REMARK SMILES IDX 40 14 41 15 42 16 43 17 44 18 45 19 46 20 47 21 48 22 49 23
REMARK SMILES IDX 50 24 51 25 52 26 56 27 53 28 55 29 54 30 57 31 58 32 59 33
REMARK SMILES IDX 60 35 61 36 62 37 63 38 64 39 65 40 66 41 67 42 68 43 21 45
REMARK SMILES IDX 20 46 18 47 19 48 17 50 16 52 14 53 15 54 9 56 8 57 6 58
REMARK SMILES IDX 7 59 5 61 4 62 3 63 2 64 1 65 10 66 11 67 12 68 13 69 22 71
REMARK SMILES IDX 23 72 24 73 25 74 26 75 27 76 28 77
REMARK H PARENT 31 4 36 13 59 34 20 49 16 55 8 60 13 70 27 78 27 79 28 80
REMARK H PARENT 28 81
REMARK Flexibility Score:  259.900
ROOT
ATOM      1  O   UNL     1     -14.808   7.372   7.178  1.00  0.00    -0.273 OA
ATOM      2  N   UNL     1     -13.919   7.418   9.284  1.00  0.00    -0.343 N 
ATOM      3  C   UNL     1     -14.959   7.259   8.395  1.00  0.00     0.243 C 
ATOM      4  H   UNL     1     -14.077   7.303  10.278  1.00  0.00     0.164 HD
ENDROOT
BRANCH   2   5
ATOM      5  C   UNL     1     -12.605   7.850   8.820  1.00  0.00     0.171 C 
ATOM      6  C   UNL     1     -11.528   8.371   6.180  1.00  0.00     0.214 C 
ATOM      7  N   UNL     1     -11.408   7.049   6.747  1.00  0.00    -0.303 N 
ATOM      8  C   UNL     1     -11.540   9.476   7.225  1.00  0.00     0.057 C 
ATOM      9  C   UNL     1     -11.944   6.718   7.981  1.00  0.00     0.247 C 
ATOM     10  C   UNL     1     -12.673   9.245   8.201  1.00  0.00     0.040 C 
ATOM     11  O   UNL     1     -11.913   5.562   8.422  1.00  0.00    -0.272 OA
BRANCH   6  12
ATOM     12  O   UNL     1     -12.710   8.406   5.414  1.00  0.00    -0.373 OA
ATOM     13  H   UNL     1     -13.458   8.482   6.043  1.00  0.00     0.213 HD
ENDBRANCH   6  12
BRANCH   7  14
ATOM     14  C   UNL     1     -10.810   6.003   5.890  1.00  0.00     0.177 C 
BRANCH  14  15
ATOM     15  C   UNL     1     -11.215   6.062   4.404  1.00  0.00     0.038 C 
BRANCH  15  16
ATOM     16  C   UNL     1     -10.121   6.182   3.321  1.00  0.00    -0.015 C 
ATOM     17  C   UNL     1      -9.658   7.628   3.116  1.00  0.00     0.007 C 
ATOM     18  C   UNL     1     -10.655   5.654   1.983  1.00  0.00     0.007 C 
ENDBRANCH  15  16
ENDBRANCH  14  15
BRANCH  14  19
ATOM     19  C   UNL     1      -9.394   5.602   6.428  1.00  0.00     0.245 C 
ATOM     20  O   UNL     1      -8.424   6.234   5.976  1.00  0.00    -0.272 OA
BRANCH  19  21
ATOM     21  N   UNL     1      -9.165   4.531   7.274  1.00  0.00    -0.332 N 
ATOM     22  C   UNL     1      -8.778   4.628   8.670  1.00  0.00     0.147 C 
BRANCH  21  23
ATOM     23  C   UNL     1      -9.313   3.159   6.715  1.00  0.00     0.178 C 
BRANCH  23  24
ATOM     24  C   UNL     1      -8.013   2.330   6.686  1.00  0.00     0.070 C 
BRANCH  24  25
ATOM     25  C   UNL     1      -6.905   2.818   5.782  1.00  0.00    -0.045 A 
ATOM     26  C   UNL     1      -6.863   2.446   4.433  1.00  0.00     0.004 A 
ATOM     27  C   UNL     1      -5.896   3.651   6.288  1.00  0.00     0.004 A 
ATOM     28  C   UNL     1      -5.826   2.888   3.608  1.00  0.00     0.000 A 
ATOM     29  C   UNL     1      -4.861   4.093   5.462  1.00  0.00     0.000 A 
ATOM     30  C   UNL     1      -4.825   3.708   4.123  1.00  0.00     0.000 A 
ENDBRANCH  24  25
ENDBRANCH  23  24
BRANCH  23  31
ATOM     31  C   UNL     1     -10.550   2.413   7.269  1.00  0.00     0.243 C 
ATOM     32  O   UNL     1     -10.490   1.486   8.073  1.00  0.00    -0.273 OA
ATOM     33  N   UNL     1     -11.733   2.757   6.636  1.00  0.00    -0.341 N 
ATOM     34  H   UNL     1     -11.719   3.534   5.971  1.00  0.00     0.164 HD
BRANCH  33  35
ATOM     35  C   UNL     1     -13.010   2.094   6.914  1.00  0.00     0.194 C 
BRANCH  35  36
ATOM     36  C   UNL     1     -13.562   1.256   5.726  1.00  0.00     0.017 C 
ATOM     37  C   UNL     1     -12.556   0.176   5.289  1.00  0.00     0.010 C 
ATOM     38  C   UNL     1     -13.892   2.102   4.491  1.00  0.00     0.010 C 
ENDBRANCH  35  36
BRANCH  35  39
ATOM     39  C   UNL     1     -14.079   3.068   7.482  1.00  0.00     0.329 C 
ATOM     40  O   UNL     1     -14.316   4.175   7.014  1.00  0.00    -0.250 OA
BRANCH  39  41
ATOM     41  O   UNL     1     -14.789   2.518   8.514  1.00  0.00    -0.458 OA
BRANCH  41  42
ATOM     42  C   UNL     1     -14.473   3.004   9.840  1.00  0.00     0.205 CG0
ATOM     43  C   UNL     1     -13.744   1.881  10.574  1.00  0.00     0.056 C 
ATOM     44  G   UNL     1     -15.786   3.411  10.540  1.00  0.00     0.000 G0
ENDBRANCH  41  42
ENDBRANCH  39  41
ENDBRANCH  35  39
ENDBRANCH  33  35
ENDBRANCH  23  31
ENDBRANCH  21  23
ENDBRANCH  19  21
ENDBRANCH  14  19
ENDBRANCH   7  14
ENDBRANCH   2   5
BRANCH   3  45
ATOM     45  C   UNL     1     -16.314   6.910   9.024  1.00  0.00     0.171 C 
BRANCH  45  46
ATOM     46  N   UNL     1     -16.274   5.475   9.276  1.00  0.00    -0.342 N 
ATOM     47  C   UNL     1     -15.933   4.952  10.498  1.00  0.00     0.247 C 
ATOM     48  O   UNL     1     -15.708   5.652  11.486  1.00  0.00    -0.273 OA
ATOM     49  H   UNL     1     -16.507   4.859   8.500  1.00  0.00     0.164 HD
BRANCH  47  50
ATOM     50  C   UNL     1     -15.822   3.421  10.542  1.00  0.00     0.212 CG0
ATOM     51  G   UNL     1     -14.497   3.029   9.859  1.00  0.00     0.000 G0
BRANCH  50  52
ATOM     52  N   UNL     1     -15.868   3.067  11.958  1.00  0.00    -0.339 N 
ATOM     53  C   UNL     1     -16.759   2.162  12.482  1.00  0.00     0.243 C 
ATOM     54  O   UNL     1     -17.625   1.617  11.803  1.00  0.00    -0.273 OA
ATOM     55  H   UNL     1     -15.249   3.569  12.591  1.00  0.00     0.164 HD
BRANCH  53  56
ATOM     56  C   UNL     1     -16.676   2.016  14.015  1.00  0.00     0.182 C 
BRANCH  56  57
ATOM     57  N   UNL     1     -15.357   2.419  14.512  1.00  0.00    -0.344 N 
ATOM     58  C   UNL     1     -15.200   3.261  15.586  1.00  0.00     0.220 C 
ATOM     59  O   UNL     1     -16.148   3.791  16.157  1.00  0.00    -0.275 OA
ATOM     60  H   UNL     1     -14.552   1.926  14.134  1.00  0.00     0.164 HD
BRANCH  58  61
ATOM     61  C   UNL     1     -13.749   3.494  15.961  1.00  0.00     0.100 C 
BRANCH  61  62
ATOM     62  C   UNL     1     -13.237   4.890  15.606  1.00  0.00     0.010 C 
BRANCH  62  63
ATOM     63  C   UNL     1     -12.691   5.013  14.177  1.00  0.00     0.000 C 
BRANCH  63  64
ATOM     64  C   UNL     1     -11.248   4.539  14.014  1.00  0.00    -0.003 C 
ATOM     65  C   UNL     1     -11.132   3.476  12.931  1.00  0.00     0.004 C 
ENDBRANCH  63  64
ENDBRANCH  62  63
ENDBRANCH  61  62
ENDBRANCH  58  61
ENDBRANCH  56  57
BRANCH  56  66
ATOM     66  C   UNL     1     -17.056   0.606  14.465  1.00  0.00     0.157 C 
BRANCH  66  67
ATOM     67  C   UNL     1     -18.071   0.643  15.571  1.00  0.00     0.305 C 
ATOM     68  O   UNL     1     -18.551  -0.315  16.157  1.00  0.00    -0.252 OA
BRANCH  67  69
ATOM     69  O   UNL     1     -18.397   1.901  15.925  1.00  0.00    -0.481 OA
ATOM     70  H   UNL     1     -17.993   2.468  15.234  1.00  0.00     0.296 HD
ENDBRANCH  67  69
ENDBRANCH  66  67
ENDBRANCH  56  66
ENDBRANCH  53  56
ENDBRANCH  50  52
ENDBRANCH  47  50
ENDBRANCH  45  46
BRANCH  45  71
ATOM     71  C   UNL     1     -17.457   7.284   8.074  1.00  0.00     0.037 C 
BRANCH  71  72
ATOM     72  C   UNL     1     -17.882   8.746   8.233  1.00  0.00     0.026 C 
BRANCH  72  73
ATOM     73  C   UNL     1     -17.803   9.500   6.907  1.00  0.00     0.146 C 
BRANCH  73  74
ATOM     74  N   UNL     1     -16.920  10.648   7.098  1.00  0.00    -0.254 NA
ATOM     75  C   UNL     1     -15.859  10.712   6.382  1.00  0.00     0.185 C 
ATOM     76  N   UNL     1     -15.028  11.756   6.533  1.00  0.00    -0.370 N 
ATOM     77  N   UNL     1     -15.416   9.853   5.448  1.00  0.00    -0.370 N 
ATOM     78  H   UNL     1     -15.283  12.448   7.224  1.00  0.00     0.159 HD
ATOM     79  H   UNL     1     -14.115  11.802   6.117  1.00  0.00     0.159 HD
ATOM     80  H   UNL     1     -15.942   9.021   5.224  1.00  0.00     0.159 HD
ATOM     81  H   UNL     1     -14.623  10.067   4.866  1.00  0.00     0.159 HD
ENDBRANCH  73  74
ENDBRANCH  72  73
ENDBRANCH  71  72
ENDBRANCH  45  71
ENDBRANCH   3  45
TORSDOF 20
ENDMDL
MODEL 9
REMARK VINA RESULT:    -7.345      4.766     10.276
REMARK INTER + INTRA:         -25.830
REMARK INTER:                 -20.070
REMARK INTRA:                  -5.760
REMARK UNBOUND:                -4.745
REMARK SMILES CCCCCC(=O)N[C@H](CC(=O)O)C(=O)N[C@H]1C(=O)N[C@H](CCCN=C(N)N)C(=O)N[C@@H]2CC[C@H](O)N(C2=O)[C@@H](CC(C)C)C(=O)N(C)[C@@H](Cc2ccccc2)C(=O)N[C@H](C(C)C)C(=O)O[C@@H]1C
REMARK SMILES IDX 30 1 31 2 29 3 32 5 35 6 37 7 34 8 38 9 33 10 39 11 36 12
REMARK SMILES IDX 40 14 41 15 42 16 43 17 44 18 45 19 46 20 47 21 48 22 49 23
REMARK SMILES IDX 50 24 51 25 52 26 56 27 53 28 55 29 54 30 57 31 58 32 59 33
REMARK SMILES IDX 60 35 61 36 62 37 63 38 64 39 65 40 66 41 67 42 68 43 21 45
REMARK SMILES IDX 20 46 18 47 19 48 17 50 16 52 14 53 15 54 9 56 8 57 6 58
REMARK SMILES IDX 7 59 5 61 4 62 3 63 2 64 1 65 10 66 11 67 12 68 13 69 22 71
REMARK SMILES IDX 23 72 24 73 25 74 26 75 27 76 28 77
REMARK H PARENT 31 4 36 13 59 34 20 49 16 55 8 60 13 70 27 78 27 79 28 80
REMARK H PARENT 28 81
REMARK Flexibility Score:  259.900
ROOT
ATOM      1  O   UNL     1     -15.705   1.652   7.497  1.00  0.00    -0.273 OA
ATOM      2  N   UNL     1     -13.421   1.627   7.380  1.00  0.00    -0.343 N 
ATOM      3  C   UNL     1     -14.615   1.618   8.069  1.00  0.00     0.243 C 
ATOM      4  H   UNL     1     -12.543   1.583   7.883  1.00  0.00     0.164 HD
ENDROOT
BRANCH   2   5
ATOM      5  C   UNL     1     -13.401   1.799   5.931  1.00  0.00     0.171 C 
ATOM      6  C   UNL     1     -11.480   1.056   3.891  1.00  0.00     0.214 C 
ATOM      7  N   UNL     1     -11.388   2.356   4.514  1.00  0.00    -0.303 N 
ATOM      8  C   UNL     1     -12.901   0.520   3.825  1.00  0.00     0.057 C 
ATOM      9  C   UNL     1     -12.241   2.755   5.530  1.00  0.00     0.247 C 
ATOM     10  C   UNL     1     -13.488   0.451   5.218  1.00  0.00     0.040 C 
ATOM     11  O   UNL     1     -12.102   3.836   6.117  1.00  0.00    -0.272 OA
BRANCH   6  12
ATOM     12  O   UNL     1     -10.653   0.174   4.614  1.00  0.00    -0.373 OA
ATOM     13  H   UNL     1     -10.431  -0.570   4.014  1.00  0.00     0.213 HD
ENDBRANCH   6  12
BRANCH   7  14
ATOM     14  C   UNL     1     -10.242   3.206   4.125  1.00  0.00     0.177 C 
BRANCH  14  15
ATOM     15  C   UNL     1     -10.570   4.333   3.127  1.00  0.00     0.038 C 
BRANCH  15  16
ATOM     16  C   UNL     1      -9.600   4.622   1.960  1.00  0.00    -0.015 C 
ATOM     17  C   UNL     1      -8.156   4.236   2.291  1.00  0.00     0.007 C 
ATOM     18  C   UNL     1      -9.631   6.118   1.618  1.00  0.00     0.007 C 
ENDBRANCH  15  16
ENDBRANCH  14  15
BRANCH  14  19
ATOM     19  C   UNL     1      -9.218   3.312   5.307  1.00  0.00     0.245 C 
ATOM     20  O   UNL     1      -8.898   2.249   5.866  1.00  0.00    -0.272 OA
BRANCH  19  21
ATOM     21  N   UNL     1      -8.753   4.509   5.820  1.00  0.00    -0.332 N 
ATOM     22  C   UNL     1      -9.250   5.827   5.467  1.00  0.00     0.147 C 
BRANCH  21  23
ATOM     23  C   UNL     1      -7.641   4.458   6.809  1.00  0.00     0.178 C 
BRANCH  23  24
ATOM     24  C   UNL     1      -6.448   5.382   6.489  1.00  0.00     0.070 C 
BRANCH  24  25
ATOM     25  C   UNL     1      -5.648   5.067   5.246  1.00  0.00    -0.045 A 
ATOM     26  C   UNL     1      -5.299   6.079   4.343  1.00  0.00     0.004 A 
ATOM     27  C   UNL     1      -5.247   3.750   4.978  1.00  0.00     0.004 A 
ATOM     28  C   UNL     1      -4.574   5.777   3.188  1.00  0.00     0.000 A 
ATOM     29  C   UNL     1      -4.521   3.450   3.824  1.00  0.00     0.000 A 
ATOM     30  C   UNL     1      -4.188   4.464   2.928  1.00  0.00     0.000 A 
ENDBRANCH  24  25
ENDBRANCH  23  24
BRANCH  23  31
ATOM     31  C   UNL     1      -8.134   4.515   8.275  1.00  0.00     0.243 C 
ATOM     32  O   UNL     1      -7.507   5.042   9.190  1.00  0.00    -0.273 OA
ATOM     33  N   UNL     1      -9.266   3.753   8.508  1.00  0.00    -0.341 N 
ATOM     34  H   UNL     1      -9.742   3.332   7.705  1.00  0.00     0.164 HD
BRANCH  33  35
ATOM     35  C   UNL     1      -9.841   3.563   9.842  1.00  0.00     0.194 C 
BRANCH  35  36
ATOM     36  C   UNL     1     -10.024   2.073  10.249  1.00  0.00     0.017 C 
ATOM     37  C   UNL     1      -9.998   1.904  11.778  1.00  0.00     0.010 C 
ATOM     38  C   UNL     1      -8.945   1.152   9.668  1.00  0.00     0.010 C 
ENDBRANCH  35  36
BRANCH  35  39
ATOM     39  C   UNL     1     -11.142   4.386  10.055  1.00  0.00     0.329 C 
ATOM     40  O   UNL     1     -11.536   5.257   9.289  1.00  0.00    -0.250 OA
BRANCH  39  41
ATOM     41  O   UNL     1     -11.847   3.971  11.151  1.00  0.00    -0.458 OA
BRANCH  41  42
ATOM     42  C   UNL     1     -12.583   4.993  11.865  1.00  0.00     0.205 CG0
ATOM     43  C   UNL     1     -12.266   4.828  13.350  1.00  0.00     0.056 C 
ATOM     44  G   UNL     1     -14.084   4.820  11.560  1.00  0.00     0.000 G0
ENDBRANCH  41  42
ENDBRANCH  39  41
ENDBRANCH  35  39
ENDBRANCH  33  35
ENDBRANCH  23  31
ENDBRANCH  21  23
ENDBRANCH  19  21
ENDBRANCH  14  19
ENDBRANCH   7  14
ENDBRANCH   2   5
BRANCH   3  45
ATOM     45  C   UNL     1     -14.491   1.541   9.596  1.00  0.00     0.171 C 
BRANCH  45  46
ATOM     46  N   UNL     1     -14.179   2.895  10.035  1.00  0.00    -0.342 N 
ATOM     47  C   UNL     1     -14.392   3.319  11.322  1.00  0.00     0.247 C 
ATOM     48  O   UNL     1     -14.792   2.571  12.215  1.00  0.00    -0.273 OA
ATOM     49  H   UNL     1     -13.793   3.532   9.341  1.00  0.00     0.164 HD
BRANCH  47  50
ATOM     50  C   UNL     1     -14.122   4.810  11.569  1.00  0.00     0.212 CG0
ATOM     51  G   UNL     1     -12.615   4.971  11.853  1.00  0.00     0.000 G0
BRANCH  50  52
ATOM     52  N   UNL     1     -14.556   5.491  10.352  1.00  0.00    -0.339 N 
ATOM     53  C   UNL     1     -15.243   6.680  10.355  1.00  0.00     0.243 C 
ATOM     54  O   UNL     1     -15.595   7.239  11.391  1.00  0.00    -0.273 OA
ATOM     55  H   UNL     1     -14.392   5.021   9.463  1.00  0.00     0.164 HD
BRANCH  53  56
ATOM     56  C   UNL     1     -15.670   7.162   8.954  1.00  0.00     0.182 C 
BRANCH  56  57
ATOM     57  N   UNL     1     -14.553   7.807   8.256  1.00  0.00    -0.344 N 
ATOM     58  C   UNL     1     -13.720   7.120   7.407  1.00  0.00     0.220 C 
ATOM     59  O   UNL     1     -13.806   5.910   7.229  1.00  0.00    -0.275 OA
ATOM     60  H   UNL     1     -14.510   8.822   8.296  1.00  0.00     0.164 HD
BRANCH  58  61
ATOM     61  C   UNL     1     -12.672   8.000   6.751  1.00  0.00     0.100 C 
BRANCH  61  62
ATOM     62  C   UNL     1     -12.762   9.472   7.154  1.00  0.00     0.010 C 
BRANCH  62  63
ATOM     63  C   UNL     1     -12.859  10.442   5.969  1.00  0.00     0.000 C 
BRANCH  63  64
ATOM     64  C   UNL     1     -14.263  10.991   5.722  1.00  0.00    -0.003 C 
ATOM     65  C   UNL     1     -15.236   9.882   5.350  1.00  0.00     0.004 C 
ENDBRANCH  63  64
ENDBRANCH  62  63
ENDBRANCH  61  62
ENDBRANCH  58  61
ENDBRANCH  56  57
BRANCH  56  66
ATOM     66  C   UNL     1     -16.904   8.061   9.022  1.00  0.00     0.157 C 
BRANCH  66  67
ATOM     67  C   UNL     1     -18.026   7.509   8.191  1.00  0.00     0.305 C 
ATOM     68  O   UNL     1     -18.596   6.440   8.348  1.00  0.00    -0.252 OA
BRANCH  67  69
ATOM     69  O   UNL     1     -18.415   8.362   7.225  1.00  0.00    -0.481 OA
ATOM     70  H   UNL     1     -17.641   8.946   7.081  1.00  0.00     0.296 HD
ENDBRANCH  67  69
ENDBRANCH  66  67
ENDBRANCH  56  66
ENDBRANCH  53  56
ENDBRANCH  50  52
ENDBRANCH  47  50
ENDBRANCH  45  46
BRANCH  45  71
ATOM     71  C   UNL     1     -13.391   0.550   9.993  1.00  0.00     0.037 C 
BRANCH  71  72
ATOM     72  C   UNL     1     -13.443  -0.732   9.159  1.00  0.00     0.026 C 
BRANCH  72  73
ATOM     73  C   UNL     1     -12.154  -1.541   9.295  1.00  0.00     0.146 C 
BRANCH  73  74
ATOM     74  N   UNL     1     -11.448  -1.476   8.019  1.00  0.00    -0.254 NA
ATOM     75  C   UNL     1     -10.200  -1.767   8.010  1.00  0.00     0.185 C 
ATOM     76  N   UNL     1      -9.524  -1.717   6.851  1.00  0.00    -0.370 N 
ATOM     77  N   UNL     1      -9.411  -2.136   9.034  1.00  0.00    -0.370 N 
ATOM     78  H   UNL     1     -10.042  -1.439   6.030  1.00  0.00     0.159 HD
ATOM     79  H   UNL     1      -8.523  -1.789   6.790  1.00  0.00     0.159 HD
ATOM     80  H   UNL     1      -9.785  -2.220   9.966  1.00  0.00     0.159 HD
ATOM     81  H   UNL     1      -8.467  -2.453   8.885  1.00  0.00     0.159 HD
ENDBRANCH  73  74
ENDBRANCH  72  73
ENDBRANCH  71  72
ENDBRANCH  45  71
ENDBRANCH   3  45
TORSDOF 20
ENDMDL
MODEL 10
REMARK VINA RESULT:    -7.281      3.716     11.816
REMARK INTER + INTRA:         -25.648
REMARK INTER:                 -19.842
REMARK INTRA:                  -5.806
REMARK UNBOUND:                -4.745
REMARK SMILES CCCCCC(=O)N[C@H](CC(=O)O)C(=O)N[C@H]1C(=O)N[C@H](CCCN=C(N)N)C(=O)N[C@@H]2CC[C@H](O)N(C2=O)[C@@H](CC(C)C)C(=O)N(C)[C@@H](Cc2ccccc2)C(=O)N[C@H](C(C)C)C(=O)O[C@@H]1C
REMARK SMILES IDX 30 1 31 2 29 3 32 5 35 6 37 7 34 8 38 9 33 10 39 11 36 12
REMARK SMILES IDX 40 14 41 15 42 16 43 17 44 18 45 19 46 20 47 21 48 22 49 23
REMARK SMILES IDX 50 24 51 25 52 26 56 27 53 28 55 29 54 30 57 31 58 32 59 33
REMARK SMILES IDX 60 35 61 36 62 37 63 38 64 39 65 40 66 41 67 42 68 43 21 45
REMARK SMILES IDX 20 46 18 47 19 48 17 50 16 52 14 53 15 54 9 56 8 57 6 58
REMARK SMILES IDX 7 59 5 61 4 62 3 63 2 64 1 65 10 66 11 67 12 68 13 69 22 71
REMARK SMILES IDX 23 72 24 73 25 74 26 75 27 76 28 77
REMARK H PARENT 31 4 36 13 59 34 20 49 16 55 8 60 13 70 27 78 27 79 28 80
REMARK H PARENT 28 81
REMARK Flexibility Score:  259.900
ROOT
ATOM      1  O   UNL     1      -9.916   2.951   7.635  1.00  0.00    -0.273 OA
ATOM      2  N   UNL     1      -8.528   1.169   7.993  1.00  0.00    -0.343 N 
ATOM      3  C   UNL     1      -9.740   1.819   8.086  1.00  0.00     0.243 C 
ATOM      4  H   UNL     1      -8.423   0.232   8.362  1.00  0.00     0.164 HD
ENDROOT
BRANCH   2   5
ATOM      5  C   UNL     1      -7.358   1.853   7.453  1.00  0.00     0.171 C 
ATOM      6  C   UNL     1      -6.981   4.486   6.300  1.00  0.00     0.214 C 
ATOM      7  N   UNL     1      -7.305   3.373   5.439  1.00  0.00    -0.303 N 
ATOM      8  C   UNL     1      -6.195   4.081   7.537  1.00  0.00     0.057 C 
ATOM      9  C   UNL     1      -7.548   2.101   5.929  1.00  0.00     0.247 C 
ATOM     10  C   UNL     1      -6.973   3.049   8.323  1.00  0.00     0.040 C 
ATOM     11  O   UNL     1      -7.909   1.172   5.195  1.00  0.00    -0.272 OA
BRANCH   6  12
ATOM     12  O   UNL     1      -8.189   5.112   6.667  1.00  0.00    -0.373 OA
ATOM     13  H   UNL     1      -8.138   6.041   6.356  1.00  0.00     0.213 HD
ENDBRANCH   6  12
BRANCH   7  14
ATOM     14  C   UNL     1      -7.515   3.673   4.006  1.00  0.00     0.177 C 
BRANCH  14  15
ATOM     15  C   UNL     1      -6.665   2.837   3.029  1.00  0.00     0.038 C 
BRANCH  15  16
ATOM     16  C   UNL     1      -5.185   2.550   3.363  1.00  0.00    -0.015 C 
ATOM     17  C   UNL     1      -4.247   3.648   2.852  1.00  0.00     0.007 C 
ATOM     18  C   UNL     1      -4.758   1.221   2.727  1.00  0.00     0.007 C 
ENDBRANCH  15  16
ENDBRANCH  14  15
BRANCH  14  19
ATOM     19  C   UNL     1      -8.993   4.132   3.758  1.00  0.00     0.245 C 
ATOM     20  O   UNL     1      -9.890   3.352   4.121  1.00  0.00    -0.272 OA
BRANCH  19  21
ATOM     21  N   UNL     1      -9.339   5.282   3.071  1.00  0.00    -0.332 N 
ATOM     22  C   UNL     1      -9.585   5.368   1.643  1.00  0.00     0.147 C 
BRANCH  21  23
ATOM     23  C   UNL     1      -9.461   6.547   3.848  1.00  0.00     0.178 C 
BRANCH  23  24
ATOM     24  C   UNL     1      -8.856   7.788   3.160  1.00  0.00     0.070 C 
BRANCH  24  25
ATOM     25  C   UNL     1      -7.351   7.914   3.169  1.00  0.00    -0.045 A 
ATOM     26  C   UNL     1      -6.719   9.010   2.568  1.00  0.00     0.004 A 
ATOM     27  C   UNL     1      -6.561   6.926   3.777  1.00  0.00     0.004 A 
ATOM     28  C   UNL     1      -5.326   9.111   2.565  1.00  0.00     0.000 A 
ATOM     29  C   UNL     1      -5.169   7.028   3.774  1.00  0.00     0.000 A 
ATOM     30  C   UNL     1      -4.553   8.120   3.166  1.00  0.00     0.000 A 
ENDBRANCH  24  25
ENDBRANCH  23  24
BRANCH  23  31
ATOM     31  C   UNL     1     -10.874   6.755   4.442  1.00  0.00     0.243 C 
ATOM     32  O   UNL     1     -11.677   7.588   4.029  1.00  0.00    -0.273 OA
ATOM     33  N   UNL     1     -11.094   6.044   5.610  1.00  0.00    -0.341 N 
ATOM     34  H   UNL     1     -10.385   5.369   5.907  1.00  0.00     0.164 HD
BRANCH  33  35
ATOM     35  C   UNL     1     -12.314   6.179   6.410  1.00  0.00     0.194 C 
BRANCH  35  36
ATOM     36  C   UNL     1     -12.251   7.303   7.482  1.00  0.00     0.017 C 
ATOM     37  C   UNL     1     -13.460   8.248   7.373  1.00  0.00     0.010 C 
ATOM     38  C   UNL     1     -10.985   8.163   7.381  1.00  0.00     0.010 C 
ENDBRANCH  35  36
BRANCH  35  39
ATOM     39  C   UNL     1     -12.785   4.826   7.014  1.00  0.00     0.329 C 
ATOM     40  O   UNL     1     -13.005   3.818   6.353  1.00  0.00    -0.250 OA
BRANCH  39  41
ATOM     41  O   UNL     1     -12.842   4.859   8.380  1.00  0.00    -0.458 OA
BRANCH  41  42
ATOM     42  C   UNL     1     -14.065   4.373   8.983  1.00  0.00     0.205 CG0
ATOM     43  C   UNL     1     -14.778   5.575   9.598  1.00  0.00     0.056 C 
ATOM     44  G   UNL     1     -13.704   3.301  10.031  1.00  0.00     0.000 G0
ENDBRANCH  41  42
ENDBRANCH  39  41
ENDBRANCH  35  39
ENDBRANCH  33  35
ENDBRANCH  23  31
ENDBRANCH  21  23
ENDBRANCH  19  21
ENDBRANCH  14  19
ENDBRANCH   7  14
ENDBRANCH   2   5
BRANCH   3  45
ATOM     45  C   UNL     1     -10.860   1.025   8.772  1.00  0.00     0.171 C 
BRANCH  45  46
ATOM     46  N   UNL     1     -11.666   2.012   9.479  1.00  0.00    -0.342 N 
ATOM     47  C   UNL     1     -13.025   2.106   9.314  1.00  0.00     0.247 C 
ATOM     48  O   UNL     1     -13.670   1.322   8.618  1.00  0.00    -0.273 OA
ATOM     49  H   UNL     1     -11.179   2.645  10.110  1.00  0.00     0.164 HD
BRANCH  47  50
ATOM     50  C   UNL     1     -13.687   3.284  10.043  1.00  0.00     0.212 CG0
ATOM     51  G   UNL     1     -14.074   4.333   8.981  1.00  0.00     0.000 G0
BRANCH  50  52
ATOM     52  N   UNL     1     -14.839   2.714  10.737  1.00  0.00    -0.339 N 
ATOM     53  C   UNL     1     -14.898   2.557  12.101  1.00  0.00     0.243 C 
ATOM     54  O   UNL     1     -13.958   2.837  12.840  1.00  0.00    -0.273 OA
ATOM     55  H   UNL     1     -15.606   2.360  10.169  1.00  0.00     0.164 HD
BRANCH  53  56
ATOM     56  C   UNL     1     -16.178   1.854  12.597  1.00  0.00     0.182 C 
BRANCH  56  57
ATOM     57  N   UNL     1     -17.248   1.945  11.599  1.00  0.00    -0.344 N 
ATOM     58  C   UNL     1     -17.386   1.032  10.582  1.00  0.00     0.220 C 
ATOM     59  O   UNL     1     -16.585   0.123  10.394  1.00  0.00    -0.275 OA
ATOM     60  H   UNL     1     -17.988   2.619  11.778  1.00  0.00     0.164 HD
BRANCH  58  61
ATOM     61  C   UNL     1     -18.597   1.288   9.704  1.00  0.00     0.100 C 
BRANCH  61  62
ATOM     62  C   UNL     1     -18.419   2.455   8.733  1.00  0.00     0.010 C 
BRANCH  62  63
ATOM     63  C   UNL     1     -17.354   2.217   7.655  1.00  0.00     0.000 C 
BRANCH  63  64
ATOM     64  C   UNL     1     -17.921   1.949   6.262  1.00  0.00    -0.003 C 
ATOM     65  C   UNL     1     -17.545   3.056   5.287  1.00  0.00     0.004 C 
ENDBRANCH  63  64
ENDBRANCH  62  63
ENDBRANCH  61  62
ENDBRANCH  58  61
ENDBRANCH  56  57
BRANCH  56  66
ATOM     66  C   UNL     1     -16.614   2.384  13.962  1.00  0.00     0.157 C 
BRANCH  66  67
ATOM     67  C   UNL     1     -16.934   1.260  14.905  1.00  0.00     0.305 C 
ATOM     68  O   UNL     1     -17.393   1.358  16.032  1.00  0.00    -0.252 OA
BRANCH  67  69
ATOM     69  O   UNL     1     -16.707   0.052  14.356  1.00  0.00    -0.481 OA
ATOM     70  H   UNL     1     -16.343   0.245  13.466  1.00  0.00     0.296 HD
ENDBRANCH  67  69
ENDBRANCH  66  67
ENDBRANCH  56  66
ENDBRANCH  53  56
ENDBRANCH  50  52
ENDBRANCH  47  50
ENDBRANCH  45  46
BRANCH  45  71
ATOM     71  C   UNL     1     -10.267  -0.013   9.732  1.00  0.00     0.037 C 
BRANCH  71  72
ATOM     72  C   UNL     1     -10.408  -1.440   9.194  1.00  0.00     0.026 C 
BRANCH  72  73
ATOM     73  C   UNL     1     -11.427  -1.513   8.059  1.00  0.00     0.146 C 
BRANCH  73  74
ATOM     74  N   UNL     1     -10.726  -1.231   6.810  1.00  0.00    -0.254 NA
ATOM     75  C   UNL     1     -11.351  -0.569   5.908  1.00  0.00     0.185 C 
ATOM     76  N   UNL     1     -10.732  -0.293   4.749  1.00  0.00    -0.370 N 
ATOM     77  N   UNL     1     -12.602  -0.076   5.937  1.00  0.00    -0.370 N 
ATOM     78  H   UNL     1      -9.788  -0.634   4.642  1.00  0.00     0.159 HD
ATOM     79  H   UNL     1     -11.202   0.091   3.948  1.00  0.00     0.159 HD
ATOM     80  H   UNL     1     -13.186  -0.205   6.749  1.00  0.00     0.159 HD
ATOM     81  H   UNL     1     -12.948   0.530   5.211  1.00  0.00     0.159 HD
ENDBRANCH  73  74
ENDBRANCH  72  73
ENDBRANCH  71  72
ENDBRANCH  45  71
ENDBRANCH   3  45
TORSDOF 20
ENDMDL
MODEL 11
REMARK VINA RESULT:    -7.278      1.821      3.121
REMARK INTER + INTRA:         -25.637
REMARK INTER:                 -20.772
REMARK INTRA:                  -4.865
REMARK UNBOUND:                -4.745
REMARK SMILES CCCCCC(=O)N[C@H](CC(=O)O)C(=O)N[C@H]1C(=O)N[C@H](CCCN=C(N)N)C(=O)N[C@@H]2CC[C@H](O)N(C2=O)[C@@H](CC(C)C)C(=O)N(C)[C@@H](Cc2ccccc2)C(=O)N[C@H](C(C)C)C(=O)O[C@@H]1C
REMARK SMILES IDX 30 1 31 2 29 3 32 5 35 6 37 7 34 8 38 9 33 10 39 11 36 12
REMARK SMILES IDX 40 14 41 15 42 16 43 17 44 18 45 19 46 20 47 21 48 22 49 23
REMARK SMILES IDX 50 24 51 25 52 26 56 27 53 28 55 29 54 30 57 31 58 32 59 33
REMARK SMILES IDX 60 35 61 36 62 37 63 38 64 39 65 40 66 41 67 42 68 43 21 45
REMARK SMILES IDX 20 46 18 47 19 48 17 50 16 52 14 53 15 54 9 56 8 57 6 58
REMARK SMILES IDX 7 59 5 61 4 62 3 63 2 64 1 65 10 66 11 67 12 68 13 69 22 71
REMARK SMILES IDX 23 72 24 73 25 74 26 75 27 76 28 77
REMARK H PARENT 31 4 36 13 59 34 20 49 16 55 8 60 13 70 27 78 27 79 28 80
REMARK H PARENT 28 81
REMARK Flexibility Score:  259.900
ROOT
ATOM      1  O   UNL     1     -12.218   5.605   5.872  1.00  0.00    -0.273 OA
ATOM      2  N   UNL     1     -12.592   6.513   7.937  1.00  0.00    -0.343 N 
ATOM      3  C   UNL     1     -11.773   6.038   6.935  1.00  0.00     0.243 C 
ATOM      4  H   UNL     1     -12.190   6.875   8.793  1.00  0.00     0.164 HD
ENDROOT
BRANCH   2   5
ATOM      5  C   UNL     1     -14.042   6.410   7.823  1.00  0.00     0.171 C 
ATOM      6  C   UNL     1     -16.188   6.650   9.758  1.00  0.00     0.214 C 
ATOM      7  N   UNL     1     -15.609   5.353   9.495  1.00  0.00    -0.303 N 
ATOM      8  C   UNL     1     -16.142   7.583   8.558  1.00  0.00     0.057 C 
ATOM      9  C   UNL     1     -14.549   5.175   8.622  1.00  0.00     0.247 C 
ATOM     10  C   UNL     1     -14.711   7.756   8.098  1.00  0.00     0.040 C 
ATOM     11  O   UNL     1     -14.003   4.075   8.468  1.00  0.00    -0.272 OA
BRANCH   6  12
ATOM     12  O   UNL     1     -15.499   7.216  10.848  1.00  0.00    -0.373 OA
ATOM     13  H   UNL     1     -15.754   8.162  10.890  1.00  0.00     0.213 HD
ENDBRANCH   6  12
BRANCH   7  14
ATOM     14  C   UNL     1     -16.099   4.223  10.313  1.00  0.00     0.177 C 
BRANCH  14  15
ATOM     15  C   UNL     1     -16.163   4.490  11.830  1.00  0.00     0.038 C 
BRANCH  15  16
ATOM     16  C   UNL     1     -15.011   4.005  12.738  1.00  0.00    -0.015 C 
ATOM     17  C   UNL     1     -13.897   3.312  11.948  1.00  0.00     0.007 C 
ATOM     18  C   UNL     1     -15.552   3.013  13.776  1.00  0.00     0.007 C 
ENDBRANCH  15  16
ENDBRANCH  14  15
BRANCH  14  19
ATOM     19  C   UNL     1     -17.130   3.368   9.498  1.00  0.00     0.245 C 
ATOM     20  O   UNL     1     -17.884   3.986   8.729  1.00  0.00    -0.272 OA
BRANCH  19  21
ATOM     21  N   UNL     1     -17.314   2.008   9.674  1.00  0.00    -0.332 N 
ATOM     22  C   UNL     1     -16.642   1.188  10.666  1.00  0.00     0.147 C 
BRANCH  21  23
ATOM     23  C   UNL     1     -18.271   1.313   8.769  1.00  0.00     0.178 C 
BRANCH  23  24
ATOM     24  C   UNL     1     -17.613   0.414   7.702  1.00  0.00     0.070 C 
BRANCH  24  25
ATOM     25  C   UNL     1     -17.041   1.098   6.483  1.00  0.00    -0.045 A 
ATOM     26  C   UNL     1     -17.745   2.125   5.840  1.00  0.00     0.004 A 
ATOM     27  C   UNL     1     -15.794   0.708   5.972  1.00  0.00     0.004 A 
ATOM     28  C   UNL     1     -17.217   2.741   4.703  1.00  0.00     0.000 A 
ATOM     29  C   UNL     1     -15.268   1.326   4.836  1.00  0.00     0.000 A 
ATOM     30  C   UNL     1     -15.981   2.340   4.201  1.00  0.00     0.000 A 
ENDBRANCH  24  25
ENDBRANCH  23  24
BRANCH  23  31
ATOM     31  C   UNL     1     -19.456   0.667   9.525  1.00  0.00     0.243 C 
ATOM     32  O   UNL     1     -20.243   1.292  10.231  1.00  0.00    -0.273 OA
ATOM     33  N   UNL     1     -19.446  -0.717   9.489  1.00  0.00    -0.341 N 
ATOM     34  H   UNL     1     -18.762  -1.182   8.887  1.00  0.00     0.164 HD
BRANCH  33  35
ATOM     35  C   UNL     1     -20.403  -1.542  10.232  1.00  0.00     0.194 C 
BRANCH  35  36
ATOM     36  C   UNL     1     -20.076  -1.685  11.746  1.00  0.00     0.017 C 
ATOM     37  C   UNL     1     -19.731  -3.140  12.109  1.00  0.00     0.010 C 
ATOM     38  C   UNL     1     -21.229  -1.245  12.656  1.00  0.00     0.010 C 
ENDBRANCH  35  36
BRANCH  35  39
ATOM     39  C   UNL     1     -20.651  -2.922   9.560  1.00  0.00     0.329 C 
ATOM     40  O   UNL     1     -19.770  -3.610   9.058  1.00  0.00    -0.250 OA
BRANCH  39  41
ATOM     41  O   UNL     1     -21.954  -3.325   9.667  1.00  0.00    -0.458 OA
BRANCH  41  42
ATOM     42  C   UNL     1     -22.171  -4.739   9.888  1.00  0.00     0.205 CG0
ATOM     43  C   UNL     1     -23.423  -5.133   9.108  1.00  0.00     0.056 C 
ATOM     44  G   UNL     1     -22.319  -4.983  11.403  1.00  0.00     0.000 G0
ENDBRANCH  41  42
ENDBRANCH  39  41
ENDBRANCH  35  39
ENDBRANCH  33  35
ENDBRANCH  23  31
ENDBRANCH  21  23
ENDBRANCH  19  21
ENDBRANCH  14  19
ENDBRANCH   7  14
ENDBRANCH   2   5
BRANCH   3  45
ATOM     45  C   UNL     1     -10.269   6.105   7.228  1.00  0.00     0.171 C 
BRANCH  45  46
ATOM     46  N   UNL     1      -9.653   6.620   6.012  1.00  0.00    -0.342 N 
ATOM     47  C   UNL     1      -9.662   7.954   5.691  1.00  0.00     0.247 C 
ATOM     48  O   UNL     1     -10.122   8.818   6.437  1.00  0.00    -0.273 OA
ATOM     49  H   UNL     1      -9.210   5.944   5.392  1.00  0.00     0.164 HD
BRANCH  47  50
ATOM     50  C   UNL     1      -9.077   8.294   4.313  1.00  0.00     0.212 CG0
ATOM     51  G   UNL     1      -8.794   9.809   4.286  1.00  0.00     0.000 G0
BRANCH  50  52
ATOM     52  N   UNL     1      -7.870   7.480   4.190  1.00  0.00    -0.339 N 
ATOM     53  C   UNL     1      -7.828   6.291   3.502  1.00  0.00     0.243 C 
ATOM     54  O   UNL     1      -8.821   5.793   2.979  1.00  0.00    -0.273 OA
ATOM     55  H   UNL     1      -7.041   7.784   4.695  1.00  0.00     0.164 HD
BRANCH  53  56
ATOM     56  C   UNL     1      -6.468   5.568   3.583  1.00  0.00     0.182 C 
BRANCH  56  57
ATOM     57  N   UNL     1      -6.576   4.333   4.366  1.00  0.00    -0.344 N 
ATOM     58  C   UNL     1      -6.534   3.088   3.787  1.00  0.00     0.220 C 
ATOM     59  O   UNL     1      -6.478   2.923   2.573  1.00  0.00    -0.275 OA
ATOM     60  H   UNL     1      -6.521   4.422   5.377  1.00  0.00     0.164 HD
BRANCH  58  61
ATOM     61  C   UNL     1      -6.603   1.954   4.793  1.00  0.00     0.100 C 
BRANCH  61  62
ATOM     62  C   UNL     1      -8.021   1.439   5.045  1.00  0.00     0.010 C 
BRANCH  62  63
ATOM     63  C   UNL     1      -8.501   1.608   6.492  1.00  0.00     0.000 C 
BRANCH  63  64
ATOM     64  C   UNL     1      -7.377   1.822   7.505  1.00  0.00    -0.003 C 
ATOM     65  C   UNL     1      -7.558   0.938   8.730  1.00  0.00     0.004 C 
ENDBRANCH  63  64
ENDBRANCH  62  63
ENDBRANCH  61  62
ENDBRANCH  58  61
ENDBRANCH  56  57
BRANCH  56  66
ATOM     66  C   UNL     1      -5.373   6.492   4.111  1.00  0.00     0.157 C 
BRANCH  66  67
ATOM     67  C   UNL     1      -4.462   6.943   3.006  1.00  0.00     0.305 C 
ATOM     68  O   UNL     1      -4.299   8.087   2.612  1.00  0.00    -0.252 OA
BRANCH  67  69
ATOM     69  O   UNL     1      -3.755   5.925   2.478  1.00  0.00    -0.481 OA
ATOM     70  H   UNL     1      -3.108   5.683   3.174  1.00  0.00     0.296 HD
ENDBRANCH  67  69
ENDBRANCH  66  67
ENDBRANCH  56  66
ENDBRANCH  53  56
ENDBRANCH  50  52
ENDBRANCH  47  50
ENDBRANCH  45  46
BRANCH  45  71
ATOM     71  C   UNL     1      -9.732   4.715   7.589  1.00  0.00     0.037 C 
BRANCH  71  72
ATOM     72  C   UNL     1      -9.331   4.618   9.063  1.00  0.00     0.026 C 
BRANCH  72  73
ATOM     73  C   UNL     1     -10.496   4.144   9.930  1.00  0.00     0.146 C 
BRANCH  73  74
ATOM     74  N   UNL     1     -10.646   2.706   9.730  1.00  0.00    -0.254 NA
ATOM     75  C   UNL     1     -10.566   1.946  10.759  1.00  0.00     0.185 C 
ATOM     76  N   UNL     1     -10.701   0.619  10.607  1.00  0.00    -0.370 N 
ATOM     77  N   UNL     1     -10.355   2.283  12.043  1.00  0.00    -0.370 N 
ATOM     78  H   UNL     1     -10.855   0.279   9.668  1.00  0.00     0.159 HD
ATOM     79  H   UNL     1     -10.508  -0.045  11.336  1.00  0.00     0.159 HD
ATOM     80  H   UNL     1     -10.239   3.249  12.309  1.00  0.00     0.159 HD
ATOM     81  H   UNL     1     -10.427   1.606  12.785  1.00  0.00     0.159 HD
ENDBRANCH  73  74
ENDBRANCH  72  73
ENDBRANCH  71  72
ENDBRANCH  45  71
ENDBRANCH   3  45
TORSDOF 20
ENDMDL
MODEL 12
REMARK VINA RESULT:    -7.235      4.021      7.490
REMARK INTER + INTRA:         -25.515
REMARK INTER:                 -21.214
REMARK INTRA:                  -4.301
REMARK UNBOUND:                -4.745
REMARK SMILES CCCCCC(=O)N[C@H](CC(=O)O)C(=O)N[C@H]1C(=O)N[C@H](CCCN=C(N)N)C(=O)N[C@@H]2CC[C@H](O)N(C2=O)[C@@H](CC(C)C)C(=O)N(C)[C@@H](Cc2ccccc2)C(=O)N[C@H](C(C)C)C(=O)O[C@@H]1C
REMARK SMILES IDX 30 1 31 2 29 3 32 5 35 6 37 7 34 8 38 9 33 10 39 11 36 12
REMARK SMILES IDX 40 14 41 15 42 16 43 17 44 18 45 19 46 20 47 21 48 22 49 23
REMARK SMILES IDX 50 24 51 25 52 26 56 27 53 28 55 29 54 30 57 31 58 32 59 33
REMARK SMILES IDX 60 35 61 36 62 37 63 38 64 39 65 40 66 41 67 42 68 43 21 45
REMARK SMILES IDX 20 46 18 47 19 48 17 50 16 52 14 53 15 54 9 56 8 57 6 58
REMARK SMILES IDX 7 59 5 61 4 62 3 63 2 64 1 65 10 66 11 67 12 68 13 69 22 71
REMARK SMILES IDX 23 72 24 73 25 74 26 75 27 76 28 77
REMARK H PARENT 31 4 36 13 59 34 20 49 16 55 8 60 13 70 27 78 27 79 28 80
REMARK H PARENT 28 81
REMARK Flexibility Score:  259.900
ROOT
ATOM      1  O   UNL     1     -10.807   7.126   3.153  1.00  0.00    -0.273 OA
ATOM      2  N   UNL     1     -10.575   7.511   5.396  1.00  0.00    -0.343 N 
ATOM      3  C   UNL     1     -10.228   6.891   4.215  1.00  0.00     0.243 C 
ATOM      4  H   UNL     1     -10.067   7.304   6.247  1.00  0.00     0.164 HD
ENDROOT
BRANCH   2   5
ATOM      5  C   UNL     1     -11.734   8.394   5.459  1.00  0.00     0.171 C 
ATOM      6  C   UNL     1     -12.892   9.966   7.602  1.00  0.00     0.214 C 
ATOM      7  N   UNL     1     -13.351   8.613   7.385  1.00  0.00    -0.303 N 
ATOM      8  C   UNL     1     -12.418  10.651   6.331  1.00  0.00     0.057 C 
ATOM      9  C   UNL     1     -12.805   7.791   6.412  1.00  0.00     0.247 C 
ATOM     10  C   UNL     1     -11.308   9.842   5.695  1.00  0.00     0.040 C 
ATOM     11  O   UNL     1     -13.143   6.606   6.290  1.00  0.00    -0.272 OA
BRANCH   6  12
ATOM     12  O   UNL     1     -11.855   9.921   8.554  1.00  0.00    -0.373 OA
ATOM     13  H   UNL     1     -11.138  10.504   8.225  1.00  0.00     0.213 HD
ENDBRANCH   6  12
BRANCH   7  14
ATOM     14  C   UNL     1     -14.338   8.078   8.346  1.00  0.00     0.177 C 
BRANCH  14  15
ATOM     15  C   UNL     1     -15.725   7.761   7.755  1.00  0.00     0.038 C 
BRANCH  15  16
ATOM     16  C   UNL     1     -16.911   8.707   8.048  1.00  0.00    -0.015 C 
ATOM     17  C   UNL     1     -18.219   7.947   8.287  1.00  0.00     0.007 C 
ATOM     18  C   UNL     1     -17.119   9.660   6.864  1.00  0.00     0.007 C 
ENDBRANCH  15  16
ENDBRANCH  14  15
BRANCH  14  19
ATOM     19  C   UNL     1     -13.615   7.244   9.459  1.00  0.00     0.245 C 
ATOM     20  O   UNL     1     -13.121   7.882  10.404  1.00  0.00    -0.272 OA
BRANCH  19  21
ATOM     21  N   UNL     1     -13.406   5.878   9.387  1.00  0.00    -0.332 N 
ATOM     22  C   UNL     1     -12.161   5.235   9.007  1.00  0.00     0.147 C 
BRANCH  21  23
ATOM     23  C   UNL     1     -14.549   4.981   9.712  1.00  0.00     0.178 C 
BRANCH  23  24
ATOM     24  C   UNL     1     -15.516   5.529  10.781  1.00  0.00     0.070 C 
BRANCH  24  25
ATOM     25  C   UNL     1     -15.806   4.639  11.968  1.00  0.00    -0.045 A 
ATOM     26  C   UNL     1     -16.260   3.326  11.786  1.00  0.00     0.004 A 
ATOM     27  C   UNL     1     -15.627   5.120  13.273  1.00  0.00     0.004 A 
ATOM     28  C   UNL     1     -16.542   2.516  12.888  1.00  0.00     0.000 A 
ATOM     29  C   UNL     1     -15.908   4.308  14.374  1.00  0.00     0.000 A 
ATOM     30  C   UNL     1     -16.368   3.007  14.180  1.00  0.00     0.000 A 
ENDBRANCH  24  25
ENDBRANCH  23  24
BRANCH  23  31
ATOM     31  C   UNL     1     -15.234   4.395   8.454  1.00  0.00     0.243 C 
ATOM     32  O   UNL     1     -16.341   4.742   8.050  1.00  0.00    -0.273 OA
ATOM     33  N   UNL     1     -14.569   3.305   7.918  1.00  0.00    -0.341 N 
ATOM     34  H   UNL     1     -13.652   3.061   8.301  1.00  0.00     0.164 HD
BRANCH  33  35
ATOM     35  C   UNL     1     -15.094   2.519   6.799  1.00  0.00     0.194 C 
BRANCH  35  36
ATOM     36  C   UNL     1     -16.131   1.437   7.214  1.00  0.00     0.017 C 
ATOM     37  C   UNL     1     -17.564   1.869   6.857  1.00  0.00     0.010 C 
ATOM     38  C   UNL     1     -16.107   1.122   8.715  1.00  0.00     0.010 C 
ENDBRANCH  35  36
BRANCH  35  39
ATOM     39  C   UNL     1     -13.970   1.932   5.901  1.00  0.00     0.329 C 
ATOM     40  O   UNL     1     -14.102   1.689   4.707  1.00  0.00    -0.250 OA
BRANCH  39  41
ATOM     41  O   UNL     1     -12.786   1.796   6.572  1.00  0.00    -0.458 OA
BRANCH  41  42
ATOM     42  C   UNL     1     -11.583   1.862   5.769  1.00  0.00     0.205 CG0
ATOM     43  C   UNL     1     -10.863   0.524   5.921  1.00  0.00     0.056 C 
ATOM     44  G   UNL     1     -10.730   3.049   6.259  1.00  0.00     0.000 G0
ENDBRANCH  41  42
ENDBRANCH  39  41
ENDBRANCH  35  39
ENDBRANCH  33  35
ENDBRANCH  23  31
ENDBRANCH  21  23
ENDBRANCH  19  21
ENDBRANCH  14  19
ENDBRANCH   7  14
ENDBRANCH   2   5
BRANCH   3  45
ATOM     45  C   UNL     1      -9.058   5.903   4.309  1.00  0.00     0.171 C 
BRANCH  45  46
ATOM     46  N   UNL     1      -9.446   4.928   5.319  1.00  0.00    -0.342 N 
ATOM     47  C   UNL     1     -10.303   3.891   5.049  1.00  0.00     0.247 C 
ATOM     48  O   UNL     1     -10.748   3.666   3.923  1.00  0.00    -0.273 OA
ATOM     49  H   UNL     1      -9.056   5.043   6.253  1.00  0.00     0.164 HD
BRANCH  47  50
ATOM     50  C   UNL     1     -10.696   3.039   6.265  1.00  0.00     0.212 CG0
ATOM     51  G   UNL     1     -11.586   1.886   5.760  1.00  0.00     0.000 G0
BRANCH  50  52
ATOM     52  N   UNL     1      -9.435   2.582   6.844  1.00  0.00    -0.339 N 
ATOM     53  C   UNL     1      -8.750   3.280   7.809  1.00  0.00     0.243 C 
ATOM     54  O   UNL     1      -9.122   4.375   8.223  1.00  0.00    -0.273 OA
ATOM     55  H   UNL     1      -9.018   1.736   6.462  1.00  0.00     0.164 HD
BRANCH  53  56
ATOM     56  C   UNL     1      -7.401   2.646   8.204  1.00  0.00     0.182 C 
BRANCH  56  57
ATOM     57  N   UNL     1      -6.287   3.312   7.523  1.00  0.00    -0.344 N 
ATOM     58  C   UNL     1      -6.229   3.438   6.156  1.00  0.00     0.220 C 
ATOM     59  O   UNL     1      -7.063   2.940   5.408  1.00  0.00    -0.275 OA
ATOM     60  H   UNL     1      -5.630   3.824   8.107  1.00  0.00     0.164 HD
BRANCH  58  61
ATOM     61  C   UNL     1      -5.017   4.213   5.675  1.00  0.00     0.100 C 
BRANCH  61  62
ATOM     62  C   UNL     1      -4.872   4.248   4.153  1.00  0.00     0.010 C 
BRANCH  62  63
ATOM     63  C   UNL     1      -4.246   2.982   3.554  1.00  0.00     0.000 C 
BRANCH  63  64
ATOM     64  C   UNL     1      -5.019   2.399   2.372  1.00  0.00    -0.003 C 
ATOM     65  C   UNL     1      -5.097   0.882   2.454  1.00  0.00     0.004 C 
ENDBRANCH  63  64
ENDBRANCH  62  63
ENDBRANCH  61  62
ENDBRANCH  58  61
ENDBRANCH  56  57
BRANCH  56  66
ATOM     66  C   UNL     1      -7.402   1.137   7.968  1.00  0.00     0.157 C 
BRANCH  66  67
ATOM     67  C   UNL     1      -8.184   0.420   9.032  1.00  0.00     0.305 C 
ATOM     68  O   UNL     1      -8.688  -0.689   8.948  1.00  0.00    -0.252 OA
BRANCH  67  69
ATOM     69  O   UNL     1      -8.248   1.122  10.179  1.00  0.00    -0.481 OA
ATOM     70  H   UNL     1      -8.869   1.857   9.989  1.00  0.00     0.296 HD
ENDBRANCH  67  69
ENDBRANCH  66  67
ENDBRANCH  56  66
ENDBRANCH  53  56
ENDBRANCH  50  52
ENDBRANCH  47  50
ENDBRANCH  45  46
BRANCH  45  71
ATOM     71  C   UNL     1      -7.770   6.638   4.699  1.00  0.00     0.037 C 
BRANCH  71  72
ATOM     72  C   UNL     1      -7.733   8.066   4.149  1.00  0.00     0.026 C 
BRANCH  72  73
ATOM     73  C   UNL     1      -7.015   8.130   2.803  1.00  0.00     0.146 C 
BRANCH  73  74
ATOM     74  N   UNL     1      -7.044   9.516   2.346  1.00  0.00    -0.254 NA
ATOM     75  C   UNL     1      -5.923  10.112   2.170  1.00  0.00     0.185 C 
ATOM     76  N   UNL     1      -5.916  11.387   1.749  1.00  0.00    -0.370 N 
ATOM     77  N   UNL     1      -4.677   9.638   2.348  1.00  0.00    -0.370 N 
ATOM     78  H   UNL     1      -6.815  11.824   1.598  1.00  0.00     0.159 HD
ATOM     79  H   UNL     1      -5.090  11.959   1.728  1.00  0.00     0.159 HD
ATOM     80  H   UNL     1      -4.528   8.690   2.659  1.00  0.00     0.159 HD
ATOM     81  H   UNL     1      -3.867  10.164   2.065  1.00  0.00     0.159 HD
ENDBRANCH  73  74
ENDBRANCH  72  73
ENDBRANCH  71  72
ENDBRANCH  45  71
ENDBRANCH   3  45
TORSDOF 20
ENDMDL
MODEL 13
REMARK VINA RESULT:    -7.186      3.427     12.204
REMARK INTER + INTRA:         -25.373
REMARK INTER:                 -19.532
REMARK INTRA:                  -5.840
REMARK UNBOUND:                -4.745
REMARK SMILES CCCCCC(=O)N[C@H](CC(=O)O)C(=O)N[C@H]1C(=O)N[C@H](CCCN=C(N)N)C(=O)N[C@@H]2CC[C@H](O)N(C2=O)[C@@H](CC(C)C)C(=O)N(C)[C@@H](Cc2ccccc2)C(=O)N[C@H](C(C)C)C(=O)O[C@@H]1C
REMARK SMILES IDX 30 1 31 2 29 3 32 5 35 6 37 7 34 8 38 9 33 10 39 11 36 12
REMARK SMILES IDX 40 14 41 15 42 16 43 17 44 18 45 19 46 20 47 21 48 22 49 23
REMARK SMILES IDX 50 24 51 25 52 26 56 27 53 28 55 29 54 30 57 31 58 32 59 33
REMARK SMILES IDX 60 35 61 36 62 37 63 38 64 39 65 40 66 41 67 42 68 43 21 45
REMARK SMILES IDX 20 46 18 47 19 48 17 50 16 52 14 53 15 54 9 56 8 57 6 58
REMARK SMILES IDX 7 59 5 61 4 62 3 63 2 64 1 65 10 66 11 67 12 68 13 69 22 71
REMARK SMILES IDX 23 72 24 73 25 74 26 75 27 76 28 77
REMARK H PARENT 31 4 36 13 59 34 20 49 16 55 8 60 13 70 27 78 27 79 28 80
REMARK H PARENT 28 81
REMARK Flexibility Score:  259.900
ROOT
ATOM      1  O   UNL     1      -9.408   3.566   8.548  1.00  0.00    -0.273 OA
ATOM      2  N   UNL     1      -8.707   1.400   8.772  1.00  0.00    -0.343 N 
ATOM      3  C   UNL     1      -9.578   2.440   9.016  1.00  0.00     0.243 C 
ATOM      4  H   UNL     1      -8.887   0.484   9.162  1.00  0.00     0.164 HD
ENDROOT
BRANCH   2   5
ATOM      5  C   UNL     1      -7.469   1.628   8.035  1.00  0.00     0.171 C 
ATOM      6  C   UNL     1      -6.432   3.920   6.594  1.00  0.00     0.214 C 
ATOM      7  N   UNL     1      -7.217   2.934   5.889  1.00  0.00    -0.303 N 
ATOM      8  C   UNL     1      -5.650   3.343   7.764  1.00  0.00     0.057 C 
ATOM      9  C   UNL     1      -7.784   1.842   6.527  1.00  0.00     0.247 C 
ATOM     10  C   UNL     1      -6.599   2.672   8.733  1.00  0.00     0.040 C 
ATOM     11  O   UNL     1      -8.527   1.049   5.933  1.00  0.00    -0.272 OA
BRANCH   6  12
ATOM     12  O   UNL     1      -7.309   4.930   7.038  1.00  0.00    -0.373 OA
ATOM     13  H   UNL     1      -7.942   4.509   7.658  1.00  0.00     0.213 HD
ENDBRANCH   6  12
BRANCH   7  14
ATOM     14  C   UNL     1      -7.522   3.209   4.469  1.00  0.00     0.177 C 
BRANCH  14  15
ATOM     15  C   UNL     1      -7.076   2.116   3.478  1.00  0.00     0.038 C 
BRANCH  15  16
ATOM     16  C   UNL     1      -5.753   2.288   2.701  1.00  0.00    -0.015 C 
ATOM     17  C   UNL     1      -4.872   1.036   2.764  1.00  0.00     0.007 C 
ATOM     18  C   UNL     1      -4.958   3.464   3.282  1.00  0.00     0.007 C 
ENDBRANCH  15  16
ENDBRANCH  14  15
BRANCH  14  19
ATOM     19  C   UNL     1      -8.831   4.063   4.350  1.00  0.00     0.245 C 
ATOM     20  O   UNL     1      -9.705   3.870   5.213  1.00  0.00    -0.272 OA
BRANCH  19  21
ATOM     21  N   UNL     1      -9.103   4.915   3.295  1.00  0.00    -0.332 N 
ATOM     22  C   UNL     1      -9.092   4.547   1.890  1.00  0.00     0.147 C 
BRANCH  21  23
ATOM     23  C   UNL     1      -9.425   6.334   3.611  1.00  0.00     0.178 C 
BRANCH  23  24
ATOM     24  C   UNL     1      -8.991   7.350   2.535  1.00  0.00     0.070 C 
BRANCH  24  25
ATOM     25  C   UNL     1      -8.551   8.714   3.013  1.00  0.00    -0.045 A 
ATOM     26  C   UNL     1      -9.286   9.405   3.985  1.00  0.00     0.004 A 
ATOM     27  C   UNL     1      -7.396   9.310   2.485  1.00  0.00     0.004 A 
ATOM     28  C   UNL     1      -8.882  10.673   4.409  1.00  0.00     0.000 A 
ATOM     29  C   UNL     1      -6.992  10.576   2.911  1.00  0.00     0.000 A 
ATOM     30  C   UNL     1      -7.737  11.258   3.871  1.00  0.00     0.000 A 
ENDBRANCH  24  25
ENDBRANCH  23  24
BRANCH  23  31
ATOM     31  C   UNL     1     -10.867   6.522   4.141  1.00  0.00     0.243 C 
ATOM     32  O   UNL     1     -11.855   6.632   3.420  1.00  0.00    -0.273 OA
ATOM     33  N   UNL     1     -10.930   6.743   5.506  1.00  0.00    -0.341 N 
ATOM     34  H   UNL     1     -10.072   6.643   6.054  1.00  0.00     0.164 HD
BRANCH  33  35
ATOM     35  C   UNL     1     -12.176   7.064   6.207  1.00  0.00     0.194 C 
BRANCH  35  36
ATOM     36  C   UNL     1     -12.235   8.513   6.768  1.00  0.00     0.017 C 
ATOM     37  C   UNL     1     -12.825   9.488   5.735  1.00  0.00     0.010 C 
ATOM     38  C   UNL     1     -10.862   9.057   7.181  1.00  0.00     0.010 C 
ENDBRANCH  35  36
BRANCH  35  39
ATOM     39  C   UNL     1     -12.543   6.008   7.288  1.00  0.00     0.329 C 
ATOM     40  O   UNL     1     -12.004   5.934   8.385  1.00  0.00    -0.250 OA
BRANCH  39  41
ATOM     41  O   UNL     1     -13.598   5.223   6.911  1.00  0.00    -0.458 OA
BRANCH  41  42
ATOM     42  C   UNL     1     -13.392   3.793   6.989  1.00  0.00     0.205 CG0
ATOM     43  C   UNL     1     -13.988   3.178   5.724  1.00  0.00     0.056 C 
ATOM     44  G   UNL     1     -14.066   3.268   8.273  1.00  0.00     0.000 G0
ENDBRANCH  41  42
ENDBRANCH  39  41
ENDBRANCH  35  39
ENDBRANCH  33  35
ENDBRANCH  23  31
ENDBRANCH  21  23
ENDBRANCH  19  21
ENDBRANCH  14  19
ENDBRANCH   7  14
ENDBRANCH   2   5
BRANCH   3  45
ATOM     45  C   UNL     1     -10.787   2.091   9.895  1.00  0.00     0.171 C 
BRANCH  45  46
ATOM     46  N   UNL     1     -11.899   2.866   9.361  1.00  0.00    -0.342 N 
ATOM     47  C   UNL     1     -13.060   2.281   8.923  1.00  0.00     0.247 C 
ATOM     48  O   UNL     1     -13.276   1.072   9.016  1.00  0.00    -0.273 OA
ATOM     49  H   UNL     1     -11.784   3.877   9.319  1.00  0.00     0.164 HD
BRANCH  47  50
ATOM     50  C   UNL     1     -14.069   3.242   8.278  1.00  0.00     0.212 CG0
ATOM     51  G   UNL     1     -13.420   3.815   7.003  1.00  0.00     0.000 G0
BRANCH  50  52
ATOM     52  N   UNL     1     -15.257   2.437   8.009  1.00  0.00    -0.339 N 
ATOM     53  C   UNL     1     -16.424   2.548   8.726  1.00  0.00     0.243 C 
ATOM     54  O   UNL     1     -16.540   3.301   9.689  1.00  0.00    -0.273 OA
ATOM     55  H   UNL     1     -15.188   1.716   7.294  1.00  0.00     0.164 HD
BRANCH  53  56
ATOM     56  C   UNL     1     -17.511   1.534   8.316  1.00  0.00     0.182 C 
BRANCH  56  57
ATOM     57  N   UNL     1     -17.914   0.705   9.456  1.00  0.00    -0.344 N 
ATOM     58  C   UNL     1     -19.219   0.613   9.875  1.00  0.00     0.220 C 
ATOM     59  O   UNL     1     -20.124   1.272   9.374  1.00  0.00    -0.275 OA
ATOM     60  H   UNL     1     -17.217   0.068   9.832  1.00  0.00     0.164 HD
BRANCH  58  61
ATOM     61  C   UNL     1     -19.413  -0.347  11.034  1.00  0.00     0.100 C 
BRANCH  61  62
ATOM     62  C   UNL     1     -20.866  -0.776  11.243  1.00  0.00     0.010 C 
BRANCH  62  63
ATOM     63  C   UNL     1     -21.034  -2.006  12.143  1.00  0.00     0.000 C 
BRANCH  63  64
ATOM     64  C   UNL     1     -21.404  -3.285  11.394  1.00  0.00    -0.003 C 
ATOM     65  C   UNL     1     -20.334  -4.355  11.559  1.00  0.00     0.004 C 
ENDBRANCH  63  64
ENDBRANCH  62  63
ENDBRANCH  61  62
ENDBRANCH  58  61
ENDBRANCH  56  57
BRANCH  56  66
ATOM     66  C   UNL     1     -17.071   0.694   7.119  1.00  0.00     0.157 C 
BRANCH  66  67
ATOM     67  C   UNL     1     -16.621  -0.673   7.550  1.00  0.00     0.305 C 
ATOM     68  O   UNL     1     -17.118  -1.742   7.232  1.00  0.00    -0.252 OA
BRANCH  67  69
ATOM     69  O   UNL     1     -15.522  -0.628   8.327  1.00  0.00    -0.481 OA
ATOM     70  H   UNL     1     -15.231   0.308   8.296  1.00  0.00     0.296 HD
ENDBRANCH  67  69
ENDBRANCH  66  67
ENDBRANCH  56  66
ENDBRANCH  53  56
ENDBRANCH  50  52
ENDBRANCH  47  50
ENDBRANCH  45  46
BRANCH  45  71
ATOM     71  C   UNL     1     -10.502   2.446  11.359  1.00  0.00     0.037 C 
BRANCH  71  72
ATOM     72  C   UNL     1     -10.756   3.926  11.653  1.00  0.00     0.026 C 
BRANCH  72  73
ATOM     73  C   UNL     1     -11.656   4.110  12.873  1.00  0.00     0.146 C 
BRANCH  73  74
ATOM     74  N   UNL     1     -12.724   3.118  12.793  1.00  0.00    -0.254 NA
ATOM     75  C   UNL     1     -13.811   3.454  12.202  1.00  0.00     0.185 C 
ATOM     76  N   UNL     1     -14.811   2.563  12.111  1.00  0.00    -0.370 N 
ATOM     77  N   UNL     1     -14.130   4.625  11.622  1.00  0.00    -0.370 N 
ATOM     78  H   UNL     1     -14.656   1.657  12.529  1.00  0.00     0.159 HD
ATOM     79  H   UNL     1     -15.735   2.799  11.794  1.00  0.00     0.159 HD
ATOM     80  H   UNL     1     -13.471   5.388  11.610  1.00  0.00     0.159 HD
ATOM     81  H   UNL     1     -14.974   4.735  11.085  1.00  0.00     0.159 HD
ENDBRANCH  73  74
ENDBRANCH  72  73
ENDBRANCH  71  72
ENDBRANCH  45  71
ENDBRANCH   3  45
TORSDOF 20
ENDMDL
MODEL 14
REMARK VINA RESULT:    -7.145      3.851     12.374
REMARK INTER + INTRA:         -25.256
REMARK INTER:                 -19.621
REMARK INTRA:                  -5.636
REMARK UNBOUND:                -4.745
REMARK SMILES CCCCCC(=O)N[C@H](CC(=O)O)C(=O)N[C@H]1C(=O)N[C@H](CCCN=C(N)N)C(=O)N[C@@H]2CC[C@H](O)N(C2=O)[C@@H](CC(C)C)C(=O)N(C)[C@@H](Cc2ccccc2)C(=O)N[C@H](C(C)C)C(=O)O[C@@H]1C
REMARK SMILES IDX 30 1 31 2 29 3 32 5 35 6 37 7 34 8 38 9 33 10 39 11 36 12
REMARK SMILES IDX 40 14 41 15 42 16 43 17 44 18 45 19 46 20 47 21 48 22 49 23
REMARK SMILES IDX 50 24 51 25 52 26 56 27 53 28 55 29 54 30 57 31 58 32 59 33
REMARK SMILES IDX 60 35 61 36 62 37 63 38 64 39 65 40 66 41 67 42 68 43 21 45
REMARK SMILES IDX 20 46 18 47 19 48 17 50 16 52 14 53 15 54 9 56 8 57 6 58
REMARK SMILES IDX 7 59 5 61 4 62 3 63 2 64 1 65 10 66 11 67 12 68 13 69 22 71
REMARK SMILES IDX 23 72 24 73 25 74 26 75 27 76 28 77
REMARK H PARENT 31 4 36 13 59 34 20 49 16 55 8 60 13 70 27 78 27 79 28 80
REMARK H PARENT 28 81
REMARK Flexibility Score:  259.900
ROOT
ATOM      1  O   UNL     1     -13.384   8.067   9.616  1.00  0.00    -0.273 OA
ATOM      2  N   UNL     1     -13.522   6.981   7.608  1.00  0.00    -0.343 N 
ATOM      3  C   UNL     1     -13.976   7.282   8.874  1.00  0.00     0.243 C 
ATOM      4  H   UNL     1     -14.043   6.342   7.020  1.00  0.00     0.164 HD
ENDROOT
BRANCH   2   5
ATOM      5  C   UNL     1     -12.242   7.497   7.136  1.00  0.00     0.171 C 
ATOM      6  C   UNL     1     -10.810   7.205   4.632  1.00  0.00     0.214 C 
ATOM      7  N   UNL     1     -10.565   6.268   5.704  1.00  0.00    -0.303 N 
ATOM      8  C   UNL     1     -11.206   8.589   5.122  1.00  0.00     0.057 C 
ATOM      9  C   UNL     1     -11.252   6.319   6.906  1.00  0.00     0.247 C 
ATOM     10  C   UNL     1     -12.439   8.491   5.993  1.00  0.00     0.040 C 
ATOM     11  O   UNL     1     -11.099   5.462   7.786  1.00  0.00    -0.272 OA
BRANCH   6  12
ATOM     12  O   UNL     1     -11.819   6.666   3.811  1.00  0.00    -0.373 OA
ATOM     13  H   UNL     1     -12.445   7.394   3.608  1.00  0.00     0.213 HD
ENDBRANCH   6  12
BRANCH   7  14
ATOM     14  C   UNL     1      -9.648   5.145   5.416  1.00  0.00     0.177 C 
BRANCH  14  15
ATOM     15  C   UNL     1      -9.776   4.537   4.006  1.00  0.00     0.038 C 
BRANCH  15  16
ATOM     16  C   UNL     1      -9.952   3.011   3.848  1.00  0.00    -0.015 C 
ATOM     17  C   UNL     1      -9.586   2.522   2.443  1.00  0.00     0.007 C 
ATOM     18  C   UNL     1     -11.410   2.625   4.127  1.00  0.00     0.007 C 
ENDBRANCH  15  16
ENDBRANCH  14  15
BRANCH  14  19
ATOM     19  C   UNL     1      -8.306   5.323   6.208  1.00  0.00     0.245 C 
ATOM     20  O   UNL     1      -7.492   6.142   5.752  1.00  0.00    -0.272 OA
BRANCH  19  21
ATOM     21  N   UNL     1      -7.946   4.550   7.297  1.00  0.00    -0.332 N 
ATOM     22  C   UNL     1      -7.602   5.057   8.614  1.00  0.00     0.147 C 
BRANCH  21  23
ATOM     23  C   UNL     1      -7.892   3.073   7.115  1.00  0.00     0.178 C 
BRANCH  23  24
ATOM     24  C   UNL     1      -6.498   2.517   6.757  1.00  0.00     0.070 C 
BRANCH  24  25
ATOM     25  C   UNL     1      -5.927   2.906   5.414  1.00  0.00    -0.045 A 
ATOM     26  C   UNL     1      -4.946   3.901   5.312  1.00  0.00     0.004 A 
ATOM     27  C   UNL     1      -6.377   2.276   4.244  1.00  0.00     0.004 A 
ATOM     28  C   UNL     1      -4.435   4.267   4.065  1.00  0.00     0.000 A 
ATOM     29  C   UNL     1      -5.865   2.642   2.998  1.00  0.00     0.000 A 
ATOM     30  C   UNL     1      -4.896   3.639   2.910  1.00  0.00     0.000 A 
ENDBRANCH  24  25
ENDBRANCH  23  24
BRANCH  23  31
ATOM     31  C   UNL     1      -8.635   2.299   8.231  1.00  0.00     0.243 C 
ATOM     32  O   UNL     1      -8.095   1.494   8.985  1.00  0.00    -0.273 OA
ATOM     33  N   UNL     1     -10.010   2.454   8.189  1.00  0.00    -0.341 N 
ATOM     34  H   UNL     1     -10.402   3.136   7.535  1.00  0.00     0.164 HD
BRANCH  33  35
ATOM     35  C   UNL     1     -10.923   1.723   9.073  1.00  0.00     0.194 C 
BRANCH  35  36
ATOM     36  C   UNL     1     -12.226   1.236   8.377  1.00  0.00     0.017 C 
ATOM     37  C   UNL     1     -11.965  -0.004   7.506  1.00  0.00     0.010 C 
ATOM     38  C   UNL     1     -12.865   2.302   7.479  1.00  0.00     0.010 C 
ENDBRANCH  35  36
BRANCH  35  39
ATOM     39  C   UNL     1     -11.221   2.490  10.391  1.00  0.00     0.329 C 
ATOM     40  O   UNL     1     -10.462   3.310  10.895  1.00  0.00    -0.250 OA
BRANCH  39  41
ATOM     41  O   UNL     1     -12.466   2.213  10.884  1.00  0.00    -0.458 OA
BRANCH  41  42
ATOM     42  C   UNL     1     -13.227   3.342  11.376  1.00  0.00     0.205 CG0
ATOM     43  C   UNL     1     -13.075   3.364  12.896  1.00  0.00     0.056 C 
ATOM     44  G   UNL     1     -14.694   3.177  10.933  1.00  0.00     0.000 G0
ENDBRANCH  41  42
ENDBRANCH  39  41
ENDBRANCH  35  39
ENDBRANCH  33  35
ENDBRANCH  23  31
ENDBRANCH  21  23
ENDBRANCH  19  21
ENDBRANCH  14  19
ENDBRANCH   7  14
ENDBRANCH   2   5
BRANCH   3  45
ATOM     45  C   UNL     1     -15.281   6.588   9.287  1.00  0.00     0.171 C 
BRANCH  45  46
ATOM     46  N   UNL     1     -14.917   5.209   9.584  1.00  0.00    -0.342 N 
ATOM     47  C   UNL     1     -15.292   4.582  10.746  1.00  0.00     0.247 C 
ATOM     48  O   UNL     1     -16.022   5.112  11.585  1.00  0.00    -0.273 OA
ATOM     49  H   UNL     1     -14.359   4.714   8.890  1.00  0.00     0.164 HD
BRANCH  47  50
ATOM     50  C   UNL     1     -14.712   3.174  10.942  1.00  0.00     0.212 CG0
ATOM     51  G   UNL     1     -13.246   3.331  11.393  1.00  0.00     0.000 G0
BRANCH  50  52
ATOM     52  N   UNL     1     -15.560   2.540  11.947  1.00  0.00    -0.339 N 
ATOM     53  C   UNL     1     -15.982   1.235  11.866  1.00  0.00     0.243 C 
ATOM     54  O   UNL     1     -15.719   0.513  10.909  1.00  0.00    -0.273 OA
ATOM     55  H   UNL     1     -15.904   3.120  12.710  1.00  0.00     0.164 HD
BRANCH  53  56
ATOM     56  C   UNL     1     -16.940   0.814  12.999  1.00  0.00     0.182 C 
BRANCH  56  57
ATOM     57  N   UNL     1     -18.227   0.365  12.460  1.00  0.00    -0.344 N 
ATOM     58  C   UNL     1     -18.611  -0.954  12.472  1.00  0.00     0.220 C 
ATOM     59  O   UNL     1     -17.877  -1.855  12.865  1.00  0.00    -0.275 OA
ATOM     60  H   UNL     1     -18.903   1.086  12.220  1.00  0.00     0.164 HD
BRANCH  58  61
ATOM     61  C   UNL     1     -20.005  -1.181  11.917  1.00  0.00     0.100 C 
BRANCH  61  62
ATOM     62  C   UNL     1     -21.110  -1.086  12.970  1.00  0.00     0.010 C 
BRANCH  62  63
ATOM     63  C   UNL     1     -20.734  -1.688  14.329  1.00  0.00     0.000 C 
BRANCH  63  64
ATOM     64  C   UNL     1     -21.541  -2.928  14.710  1.00  0.00    -0.003 C 
ATOM     65  C   UNL     1     -20.792  -4.207  14.362  1.00  0.00     0.004 C 
ENDBRANCH  63  64
ENDBRANCH  62  63
ENDBRANCH  61  62
ENDBRANCH  58  61
ENDBRANCH  56  57
BRANCH  56  66
ATOM     66  C   UNL     1     -17.104   1.924  14.036  1.00  0.00     0.157 C 
BRANCH  66  67
ATOM     67  C   UNL     1     -17.624   1.381  15.336  1.00  0.00     0.305 C 
ATOM     68  O   UNL     1     -16.980   1.178  16.354  1.00  0.00    -0.252 OA
BRANCH  67  69
ATOM     69  O   UNL     1     -18.953   1.168  15.307  1.00  0.00    -0.481 OA
ATOM     70  H   UNL     1     -19.234   1.459  14.414  1.00  0.00     0.296 HD
ENDBRANCH  67  69
ENDBRANCH  66  67
ENDBRANCH  56  66
ENDBRANCH  53  56
ENDBRANCH  50  52
ENDBRANCH  47  50
ENDBRANCH  45  46
BRANCH  45  71
ATOM     71  C   UNL     1     -16.310   6.669   8.154  1.00  0.00     0.037 C 
BRANCH  71  72
ATOM     72  C   UNL     1     -17.429   7.668   8.463  1.00  0.00     0.026 C 
BRANCH  72  73
ATOM     73  C   UNL     1     -17.054   9.082   8.026  1.00  0.00     0.146 C 
BRANCH  73  74
ATOM     74  N   UNL     1     -18.255   9.718   7.493  1.00  0.00    -0.254 NA
ATOM     75  C   UNL     1     -18.264  10.036   6.252  1.00  0.00     0.185 C 
ATOM     76  N   UNL     1     -19.355  10.621   5.732  1.00  0.00    -0.370 N 
ATOM     77  N   UNL     1     -17.300   9.867   5.329  1.00  0.00    -0.370 N 
ATOM     78  H   UNL     1     -20.126  10.792   6.362  1.00  0.00     0.159 HD
ATOM     79  H   UNL     1     -19.381  11.026   4.813  1.00  0.00     0.159 HD
ATOM     80  H   UNL     1     -16.423   9.435   5.576  1.00  0.00     0.159 HD
ATOM     81  H   UNL     1     -17.465  10.052   4.353  1.00  0.00     0.159 HD
ENDBRANCH  73  74
ENDBRANCH  72  73
ENDBRANCH  71  72
ENDBRANCH  45  71
ENDBRANCH   3  45
TORSDOF 20
ENDMDL
MODEL 15
REMARK VINA RESULT:    -7.138      3.743      7.531
REMARK INTER + INTRA:         -25.237
REMARK INTER:                 -19.754
REMARK INTRA:                  -5.483
REMARK UNBOUND:                -4.745
REMARK SMILES CCCCCC(=O)N[C@H](CC(=O)O)C(=O)N[C@H]1C(=O)N[C@H](CCCN=C(N)N)C(=O)N[C@@H]2CC[C@H](O)N(C2=O)[C@@H](CC(C)C)C(=O)N(C)[C@@H](Cc2ccccc2)C(=O)N[C@H](C(C)C)C(=O)O[C@@H]1C
REMARK SMILES IDX 30 1 31 2 29 3 32 5 35 6 37 7 34 8 38 9 33 10 39 11 36 12
REMARK SMILES IDX 40 14 41 15 42 16 43 17 44 18 45 19 46 20 47 21 48 22 49 23
REMARK SMILES IDX 50 24 51 25 52 26 56 27 53 28 55 29 54 30 57 31 58 32 59 33
REMARK SMILES IDX 60 35 61 36 62 37 63 38 64 39 65 40 66 41 67 42 68 43 21 45
REMARK SMILES IDX 20 46 18 47 19 48 17 50 16 52 14 53 15 54 9 56 8 57 6 58
REMARK SMILES IDX 7 59 5 61 4 62 3 63 2 64 1 65 10 66 11 67 12 68 13 69 22 71
REMARK SMILES IDX 23 72 24 73 25 74 26 75 27 76 28 77
REMARK H PARENT 31 4 36 13 59 34 20 49 16 55 8 60 13 70 27 78 27 79 28 80
REMARK H PARENT 28 81
REMARK Flexibility Score:  259.900
ROOT
ATOM      1  O   UNL     1     -13.006  -0.342   4.659  1.00  0.00    -0.273 OA
ATOM      2  N   UNL     1     -13.944   1.072   6.193  1.00  0.00    -0.343 N 
ATOM      3  C   UNL     1     -12.869   0.469   5.576  1.00  0.00     0.243 C 
ATOM      4  H   UNL     1     -13.793   1.745   6.934  1.00  0.00     0.164 HD
ENDROOT
BRANCH   2   5
ATOM      5  C   UNL     1     -15.308   0.680   5.857  1.00  0.00     0.171 C 
ATOM      6  C   UNL     1     -17.782   2.174   5.633  1.00  0.00     0.214 C 
ATOM      7  N   UNL     1     -17.426   1.576   6.899  1.00  0.00    -0.303 N 
ATOM      8  C   UNL     1     -17.249   1.407   4.434  1.00  0.00     0.057 C 
ATOM      9  C   UNL     1     -16.236   0.893   7.088  1.00  0.00     0.247 C 
ATOM     10  C   UNL     1     -15.743   1.292   4.527  1.00  0.00     0.040 C 
ATOM     11  O   UNL     1     -15.898   0.458   8.197  1.00  0.00    -0.272 OA
BRANCH   6  12
ATOM     12  O   UNL     1     -17.294   3.496   5.629  1.00  0.00    -0.373 OA
ATOM     13  H   UNL     1     -16.315   3.441   5.662  1.00  0.00     0.213 HD
ENDBRANCH   6  12
BRANCH   7  14
ATOM     14  C   UNL     1     -18.321   1.846   8.044  1.00  0.00     0.177 C 
BRANCH  14  15
ATOM     15  C   UNL     1     -18.648   0.623   8.923  1.00  0.00     0.038 C 
BRANCH  15  16
ATOM     16  C   UNL     1     -19.272   0.836  10.321  1.00  0.00    -0.015 C 
ATOM     17  C   UNL     1     -18.397   0.269  11.443  1.00  0.00     0.007 C 
ATOM     18  C   UNL     1     -20.643   0.151  10.387  1.00  0.00     0.007 C 
ENDBRANCH  15  16
ENDBRANCH  14  15
BRANCH  14  19
ATOM     19  C   UNL     1     -18.110   3.308   8.566  1.00  0.00     0.245 C 
ATOM     20  O   UNL     1     -19.024   4.120   8.343  1.00  0.00    -0.272 OA
BRANCH  19  21
ATOM     21  N   UNL     1     -16.937   3.757   9.148  1.00  0.00    -0.332 N 
ATOM     22  C   UNL     1     -16.326   3.207  10.345  1.00  0.00     0.147 C 
BRANCH  21  23
ATOM     23  C   UNL     1     -16.240   4.908   8.510  1.00  0.00     0.178 C 
BRANCH  23  24
ATOM     24  C   UNL     1     -16.300   6.224   9.313  1.00  0.00     0.070 C 
BRANCH  24  25
ATOM     25  C   UNL     1     -16.597   7.488   8.540  1.00  0.00    -0.045 A 
ATOM     26  C   UNL     1     -15.566   8.218   7.934  1.00  0.00     0.004 A 
ATOM     27  C   UNL     1     -17.916   7.953   8.423  1.00  0.00     0.004 A 
ATOM     28  C   UNL     1     -15.847   9.395   7.236  1.00  0.00     0.000 A 
ATOM     29  C   UNL     1     -18.195   9.128   7.724  1.00  0.00     0.000 A 
ATOM     30  C   UNL     1     -17.160   9.850   7.134  1.00  0.00     0.000 A 
ENDBRANCH  24  25
ENDBRANCH  23  24
BRANCH  23  31
ATOM     31  C   UNL     1     -14.839   4.539   7.967  1.00  0.00     0.243 C 
ATOM     32  O   UNL     1     -14.640   3.702   7.091  1.00  0.00    -0.273 OA
ATOM     33  N   UNL     1     -13.800   5.104   8.688  1.00  0.00    -0.341 N 
ATOM     34  H   UNL     1     -14.028   5.791   9.411  1.00  0.00     0.164 HD
BRANCH  33  35
ATOM     35  C   UNL     1     -12.390   4.801   8.429  1.00  0.00     0.194 C 
BRANCH  35  36
ATOM     36  C   UNL     1     -11.515   4.707   9.710  1.00  0.00     0.017 C 
ATOM     37  C   UNL     1     -11.233   3.243  10.089  1.00  0.00     0.010 C 
ATOM     38  C   UNL     1     -12.154   5.382  10.930  1.00  0.00     0.010 C 
ENDBRANCH  35  36
BRANCH  35  39
ATOM     39  C   UNL     1     -11.762   5.743   7.364  1.00  0.00     0.329 C 
ATOM     40  O   UNL     1     -11.298   6.849   7.615  1.00  0.00    -0.250 OA
BRANCH  39  41
ATOM     41  O   UNL     1     -11.704   5.164   6.126  1.00  0.00    -0.458 OA
BRANCH  41  42
ATOM     42  C   UNL     1     -10.531   5.463   5.333  1.00  0.00     0.205 CG0
ATOM     43  C   UNL     1     -10.940   6.504   4.292  1.00  0.00     0.056 C 
ATOM     44  G   UNL     1     -10.025   4.156   4.692  1.00  0.00     0.000 G0
ENDBRANCH  41  42
ENDBRANCH  39  41
ENDBRANCH  35  39
ENDBRANCH  33  35
ENDBRANCH  23  31
ENDBRANCH  21  23
ENDBRANCH  19  21
ENDBRANCH  14  19
ENDBRANCH   7  14
ENDBRANCH   2   5
BRANCH   3  45
ATOM     45  C   UNL     1     -11.489   0.892   6.098  1.00  0.00     0.171 C 
BRANCH  45  46
ATOM     46  N   UNL     1     -11.065   1.992   5.241  1.00  0.00    -0.342 N 
ATOM     47  C   UNL     1     -10.256   3.005   5.691  1.00  0.00     0.247 C 
ATOM     48  O   UNL     1      -9.771   3.021   6.823  1.00  0.00    -0.273 OA
ATOM     49  H   UNL     1     -11.399   1.989   4.279  1.00  0.00     0.164 HD
BRANCH  47  50
ATOM     50  C   UNL     1     -10.017   4.141   4.686  1.00  0.00     0.212 CG0
ATOM     51  G   UNL     1     -10.535   5.446   5.322  1.00  0.00     0.000 G0
BRANCH  50  52
ATOM     52  N   UNL     1      -8.577   4.149   4.442  1.00  0.00    -0.339 N 
ATOM     53  C   UNL     1      -7.974   3.420   3.447  1.00  0.00     0.243 C 
ATOM     54  O   UNL     1      -8.599   2.658   2.713  1.00  0.00    -0.273 OA
ATOM     55  H   UNL     1      -7.992   4.675   5.088  1.00  0.00     0.164 HD
BRANCH  53  56
ATOM     56  C   UNL     1      -6.436   3.520   3.439  1.00  0.00     0.182 C 
BRANCH  56  57
ATOM     57  N   UNL     1      -5.999   4.919   3.492  1.00  0.00    -0.344 N 
ATOM     58  C   UNL     1      -5.077   5.368   4.406  1.00  0.00     0.220 C 
ATOM     59  O   UNL     1      -4.610   4.651   5.284  1.00  0.00    -0.275 OA
ATOM     60  H   UNL     1      -6.283   5.520   2.723  1.00  0.00     0.164 HD
BRANCH  58  61
ATOM     61  C   UNL     1      -4.731   6.836   4.240  1.00  0.00     0.100 C 
BRANCH  61  62
ATOM     62  C   UNL     1      -4.343   7.221   2.812  1.00  0.00     0.010 C 
BRANCH  62  63
ATOM     63  C   UNL     1      -2.980   6.677   2.364  1.00  0.00     0.000 C 
BRANCH  63  64
ATOM     64  C   UNL     1      -3.061   5.590   1.294  1.00  0.00    -0.003 C 
ATOM     65  C   UNL     1      -2.800   6.157  -0.094  1.00  0.00     0.004 C 
ENDBRANCH  63  64
ENDBRANCH  62  63
ENDBRANCH  61  62
ENDBRANCH  58  61
ENDBRANCH  56  57
BRANCH  56  66
ATOM     66  C   UNL     1      -5.832   2.773   2.251  1.00  0.00     0.157 C 
BRANCH  66  67
ATOM     67  C   UNL     1      -5.686   1.308   2.547  1.00  0.00     0.305 C 
ATOM     68  O   UNL     1      -5.569   0.405   1.733  1.00  0.00    -0.252 OA
BRANCH  67  69
ATOM     69  O   UNL     1      -5.643   1.055   3.868  1.00  0.00    -0.481 OA
ATOM     70  H   UNL     1      -6.457   0.539   4.051  1.00  0.00     0.296 HD
ENDBRANCH  67  69
ENDBRANCH  66  67
ENDBRANCH  56  66
ENDBRANCH  53  56
ENDBRANCH  50  52
ENDBRANCH  47  50
ENDBRANCH  45  46
BRANCH  45  71
ATOM     71  C   UNL     1     -10.509  -0.284   6.033  1.00  0.00     0.037 C 
BRANCH  71  72
ATOM     72  C   UNL     1     -10.802  -1.337   7.105  1.00  0.00     0.026 C 
BRANCH  72  73
ATOM     73  C   UNL     1      -9.593  -1.567   8.009  1.00  0.00     0.146 C 
BRANCH  73  74
ATOM     74  N   UNL     1      -8.643  -0.485   7.769  1.00  0.00    -0.254 NA
ATOM     75  C   UNL     1      -8.377   0.305   8.743  1.00  0.00     0.185 C 
ATOM     76  N   UNL     1      -7.506   1.309   8.553  1.00  0.00    -0.370 N 
ATOM     77  N   UNL     1      -8.856   0.290   9.999  1.00  0.00    -0.370 N 
ATOM     78  H   UNL     1      -7.102   1.397   7.631  1.00  0.00     0.159 HD
ATOM     79  H   UNL     1      -7.359   2.048   9.218  1.00  0.00     0.159 HD
ATOM     80  H   UNL     1      -9.519  -0.414  10.287  1.00  0.00     0.159 HD
ATOM     81  H   UNL     1      -8.485   0.894  10.713  1.00  0.00     0.159 HD
ENDBRANCH  73  74
ENDBRANCH  72  73
ENDBRANCH  71  72
ENDBRANCH  45  71
ENDBRANCH   3  45
TORSDOF 20
ENDMDL
MODEL 16
REMARK VINA RESULT:    -7.063      3.491      7.173
REMARK INTER + INTRA:         -25.021
REMARK INTER:                 -19.118
REMARK INTRA:                  -5.903
REMARK UNBOUND:                -4.745
REMARK SMILES CCCCCC(=O)N[C@H](CC(=O)O)C(=O)N[C@H]1C(=O)N[C@H](CCCN=C(N)N)C(=O)N[C@@H]2CC[C@H](O)N(C2=O)[C@@H](CC(C)C)C(=O)N(C)[C@@H](Cc2ccccc2)C(=O)N[C@H](C(C)C)C(=O)O[C@@H]1C
REMARK SMILES IDX 30 1 31 2 29 3 32 5 35 6 37 7 34 8 38 9 33 10 39 11 36 12
REMARK SMILES IDX 40 14 41 15 42 16 43 17 44 18 45 19 46 20 47 21 48 22 49 23
REMARK SMILES IDX 50 24 51 25 52 26 56 27 53 28 55 29 54 30 57 31 58 32 59 33
REMARK SMILES IDX 60 35 61 36 62 37 63 38 64 39 65 40 66 41 67 42 68 43 21 45
REMARK SMILES IDX 20 46 18 47 19 48 17 50 16 52 14 53 15 54 9 56 8 57 6 58
REMARK SMILES IDX 7 59 5 61 4 62 3 63 2 64 1 65 10 66 11 67 12 68 13 69 22 71
REMARK SMILES IDX 23 72 24 73 25 74 26 75 27 76 28 77
REMARK H PARENT 31 4 36 13 59 34 20 49 16 55 8 60 13 70 27 78 27 79 28 80
REMARK H PARENT 28 81
REMARK Flexibility Score:  259.900
ROOT
ATOM      1  O   UNL     1     -14.917   3.109   5.761  1.00  0.00    -0.273 OA
ATOM      2  N   UNL     1     -14.562   0.868   5.475  1.00  0.00    -0.343 N 
ATOM      3  C   UNL     1     -14.136   2.174   5.578  1.00  0.00     0.243 C 
ATOM      4  H   UNL     1     -13.889   0.123   5.339  1.00  0.00     0.164 HD
ENDROOT
BRANCH   2   5
ATOM      5  C   UNL     1     -15.986   0.550   5.460  1.00  0.00     0.171 C 
ATOM      6  C   UNL     1     -18.361   2.155   5.888  1.00  0.00     0.214 C 
ATOM      7  N   UNL     1     -17.747   1.482   7.009  1.00  0.00    -0.303 N 
ATOM      8  C   UNL     1     -18.168   1.425   4.568  1.00  0.00     0.057 C 
ATOM      9  C   UNL     1     -16.583   0.741   6.883  1.00  0.00     0.247 C 
ATOM     10  C   UNL     1     -16.690   1.243   4.295  1.00  0.00     0.040 C 
ATOM     11  O   UNL     1     -16.016   0.240   7.863  1.00  0.00    -0.272 OA
BRANCH   6  12
ATOM     12  O   UNL     1     -17.819   3.454   5.817  1.00  0.00    -0.373 OA
ATOM     13  H   UNL     1     -16.969   3.384   5.332  1.00  0.00     0.213 HD
ENDBRANCH   6  12
BRANCH   7  14
ATOM     14  C   UNL     1     -18.331   1.734   8.343  1.00  0.00     0.177 C 
BRANCH  14  15
ATOM     15  C   UNL     1     -18.533   0.481   9.218  1.00  0.00     0.038 C 
BRANCH  15  16
ATOM     16  C   UNL     1     -19.505   0.539  10.418  1.00  0.00    -0.015 C 
ATOM     17  C   UNL     1     -18.987  -0.245  11.627  1.00  0.00     0.007 C 
ATOM     18  C   UNL     1     -20.864  -0.045  10.012  1.00  0.00     0.007 C 
ENDBRANCH  15  16
ENDBRANCH  14  15
BRANCH  14  19
ATOM     19  C   UNL     1     -17.899   3.146   8.868  1.00  0.00     0.245 C 
ATOM     20  O   UNL     1     -18.501   4.126   8.398  1.00  0.00    -0.272 OA
BRANCH  19  21
ATOM     21  N   UNL     1     -16.831   3.358   9.722  1.00  0.00    -0.332 N 
ATOM     22  C   UNL     1     -16.612   2.673  10.984  1.00  0.00     0.147 C 
BRANCH  21  23
ATOM     23  C   UNL     1     -15.820   4.379   9.332  1.00  0.00     0.178 C 
BRANCH  23  24
ATOM     24  C   UNL     1     -16.024   5.768   9.972  1.00  0.00     0.070 C 
BRANCH  24  25
ATOM     25  C   UNL     1     -16.293   6.924   9.037  1.00  0.00    -0.045 A 
ATOM     26  C   UNL     1     -17.604   7.322   8.746  1.00  0.00     0.004 A 
ATOM     27  C   UNL     1     -15.226   7.614   8.442  1.00  0.00     0.004 A 
ATOM     28  C   UNL     1     -17.843   8.381   7.867  1.00  0.00     0.000 A 
ATOM     29  C   UNL     1     -15.468   8.673   7.565  1.00  0.00     0.000 A 
ATOM     30  C   UNL     1     -16.777   9.054   7.276  1.00  0.00     0.000 A 
ENDBRANCH  24  25
ENDBRANCH  23  24
BRANCH  23  31
ATOM     31  C   UNL     1     -14.369   3.844   9.386  1.00  0.00     0.243 C 
ATOM     32  O   UNL     1     -14.029   2.740   8.969  1.00  0.00    -0.273 OA
ATOM     33  N   UNL     1     -13.511   4.647  10.118  1.00  0.00    -0.341 N 
ATOM     34  H   UNL     1     -13.854   5.553  10.444  1.00  0.00     0.164 HD
BRANCH  33  35
ATOM     35  C   UNL     1     -12.121   4.278  10.402  1.00  0.00     0.194 C 
BRANCH  35  36
ATOM     36  C   UNL     1     -11.624   4.713  11.810  1.00  0.00     0.017 C 
ATOM     37  C   UNL     1     -11.209   3.497  12.657  1.00  0.00     0.010 C 
ATOM     38  C   UNL     1     -12.677   5.490  12.609  1.00  0.00     0.010 C 
ENDBRANCH  35  36
BRANCH  35  39
ATOM     39  C   UNL     1     -11.143   4.723   9.279  1.00  0.00     0.329 C 
ATOM     40  O   UNL     1      -9.927   4.583   9.333  1.00  0.00    -0.250 OA
BRANCH  39  41
ATOM     41  O   UNL     1     -11.798   5.210   8.182  1.00  0.00    -0.458 OA
BRANCH  41  42
ATOM     42  C   UNL     1     -11.117   6.247   7.437  1.00  0.00     0.205 CG0
ATOM     43  C   UNL     1     -11.812   7.569   7.757  1.00  0.00     0.056 C 
ATOM     44  G   UNL     1     -11.179   5.897   5.937  1.00  0.00     0.000 G0
ENDBRANCH  41  42
ENDBRANCH  39  41
ENDBRANCH  35  39
ENDBRANCH  33  35
ENDBRANCH  23  31
ENDBRANCH  21  23
ENDBRANCH  19  21
ENDBRANCH  14  19
ENDBRANCH   7  14
ENDBRANCH   2   5
BRANCH   3  45
ATOM     45  C   UNL     1     -12.619   2.381   5.470  1.00  0.00     0.171 C 
BRANCH  45  46
ATOM     46  N   UNL     1     -12.413   3.822   5.533  1.00  0.00    -0.342 N 
ATOM     47  C   UNL     1     -11.181   4.380   5.764  1.00  0.00     0.247 C 
ATOM     48  O   UNL     1     -10.152   3.711   5.861  1.00  0.00    -0.273 OA
ATOM     49  H   UNL     1     -13.230   4.416   5.402  1.00  0.00     0.164 HD
BRANCH  47  50
ATOM     50  C   UNL     1     -11.178   5.908   5.921  1.00  0.00     0.212 CG0
ATOM     51  G   UNL     1     -11.137   6.222   7.430  1.00  0.00     0.000 G0
BRANCH  50  52
ATOM     52  N   UNL     1      -9.994   6.371   5.203  1.00  0.00    -0.339 N 
ATOM     53  C   UNL     1      -9.951   6.529   3.839  1.00  0.00     0.243 C 
ATOM     54  O   UNL     1     -10.896   6.240   3.109  1.00  0.00    -0.273 OA
ATOM     55  H   UNL     1      -9.143   6.521   5.741  1.00  0.00     0.164 HD
BRANCH  53  56
ATOM     56  C   UNL     1      -8.569   6.946   3.298  1.00  0.00     0.182 C 
BRANCH  56  57
ATOM     57  N   UNL     1      -7.526   6.748   4.311  1.00  0.00    -0.344 N 
ATOM     58  C   UNL     1      -6.791   5.591   4.394  1.00  0.00     0.220 C 
ATOM     59  O   UNL     1      -7.002   4.618   3.678  1.00  0.00    -0.275 OA
ATOM     60  H   UNL     1      -7.251   7.562   4.853  1.00  0.00     0.164 HD
BRANCH  58  61
ATOM     61  C   UNL     1      -5.729   5.630   5.477  1.00  0.00     0.100 C 
BRANCH  61  62
ATOM     62  C   UNL     1      -6.210   5.104   6.830  1.00  0.00     0.010 C 
BRANCH  62  63
ATOM     63  C   UNL     1      -5.450   3.869   7.329  1.00  0.00     0.000 C 
BRANCH  63  64
ATOM     64  C   UNL     1      -6.304   2.892   8.136  1.00  0.00    -0.003 C 
ATOM     65  C   UNL     1      -7.362   2.229   7.266  1.00  0.00     0.004 C 
ENDBRANCH  63  64
ENDBRANCH  62  63
ENDBRANCH  61  62
ENDBRANCH  58  61
ENDBRANCH  56  57
BRANCH  56  66
ATOM     66  C   UNL     1      -8.585   8.375   2.759  1.00  0.00     0.157 C 
BRANCH  66  67
ATOM     67  C   UNL     1      -8.811   9.369   3.861  1.00  0.00     0.305 C 
ATOM     68  O   UNL     1      -8.922   9.129   5.054  1.00  0.00    -0.252 OA
BRANCH  67  69
ATOM     69  O   UNL     1      -8.836  10.637   3.409  1.00  0.00    -0.481 OA
ATOM     70  H   UNL     1      -8.948  10.555   2.439  1.00  0.00     0.296 HD
ENDBRANCH  67  69
ENDBRANCH  66  67
ENDBRANCH  56  66
ENDBRANCH  53  56
ENDBRANCH  50  52
ENDBRANCH  47  50
ENDBRANCH  45  46
BRANCH  45  71
ATOM     71  C   UNL     1     -12.092   1.792   4.157  1.00  0.00     0.037 C 
BRANCH  71  72
ATOM     72  C   UNL     1     -11.197   0.573   4.392  1.00  0.00     0.026 C 
BRANCH  72  73
ATOM     73  C   UNL     1     -11.065   0.252   5.879  1.00  0.00     0.146 C 
BRANCH  73  74
ATOM     74  N   UNL     1     -11.884  -0.924   6.158  1.00  0.00    -0.254 NA
ATOM     75  C   UNL     1     -12.572  -0.932   7.239  1.00  0.00     0.185 C 
ATOM     76  N   UNL     1     -13.336  -1.999   7.522  1.00  0.00    -0.370 N 
ATOM     77  N   UNL     1     -12.659   0.012   8.193  1.00  0.00    -0.370 N 
ATOM     78  H   UNL     1     -13.323  -2.760   6.858  1.00  0.00     0.159 HD
ATOM     79  H   UNL     1     -13.785  -2.139   8.410  1.00  0.00     0.159 HD
ATOM     80  H   UNL     1     -12.141   0.873   8.112  1.00  0.00     0.159 HD
ATOM     81  H   UNL     1     -13.325  -0.057   8.945  1.00  0.00     0.159 HD
ENDBRANCH  73  74
ENDBRANCH  72  73
ENDBRANCH  71  72
ENDBRANCH  45  71
ENDBRANCH   3  45
TORSDOF 20
ENDMDL
MODEL 17
REMARK VINA RESULT:    -7.030      3.857      7.410
REMARK INTER + INTRA:         -24.925
REMARK INTER:                 -20.744
REMARK INTRA:                  -4.182
REMARK UNBOUND:                -4.745
REMARK SMILES CCCCCC(=O)N[C@H](CC(=O)O)C(=O)N[C@H]1C(=O)N[C@H](CCCN=C(N)N)C(=O)N[C@@H]2CC[C@H](O)N(C2=O)[C@@H](CC(C)C)C(=O)N(C)[C@@H](Cc2ccccc2)C(=O)N[C@H](C(C)C)C(=O)O[C@@H]1C
REMARK SMILES IDX 30 1 31 2 29 3 32 5 35 6 37 7 34 8 38 9 33 10 39 11 36 12
REMARK SMILES IDX 40 14 41 15 42 16 43 17 44 18 45 19 46 20 47 21 48 22 49 23
REMARK SMILES IDX 50 24 51 25 52 26 56 27 53 28 55 29 54 30 57 31 58 32 59 33
REMARK SMILES IDX 60 35 61 36 62 37 63 38 64 39 65 40 66 41 67 42 68 43 21 45
REMARK SMILES IDX 20 46 18 47 19 48 17 50 16 52 14 53 15 54 9 56 8 57 6 58
REMARK SMILES IDX 7 59 5 61 4 62 3 63 2 64 1 65 10 66 11 67 12 68 13 69 22 71
REMARK SMILES IDX 23 72 24 73 25 74 26 75 27 76 28 77
REMARK H PARENT 31 4 36 13 59 34 20 49 16 55 8 60 13 70 27 78 27 79 28 80
REMARK H PARENT 28 81
REMARK Flexibility Score:  259.900
ROOT
ATOM      1  O   UNL     1     -12.351   3.268   6.333  1.00  0.00    -0.273 OA
ATOM      2  N   UNL     1     -10.291   2.494   6.956  1.00  0.00    -0.343 N 
ATOM      3  C   UNL     1     -11.182   3.012   6.041  1.00  0.00     0.243 C 
ATOM      4  H   UNL     1      -9.333   2.310   6.685  1.00  0.00     0.164 HD
ENDROOT
BRANCH   2   5
ATOM      5  C   UNL     1     -10.736   2.111   8.292  1.00  0.00     0.171 C 
ATOM      6  C   UNL     1     -13.293   2.314   9.643  1.00  0.00     0.214 C 
ATOM      7  N   UNL     1     -12.339   3.391   9.763  1.00  0.00    -0.303 N 
ATOM      8  C   UNL     1     -12.643   0.953   9.451  1.00  0.00     0.057 C 
ATOM      9  C   UNL     1     -11.120   3.382   9.103  1.00  0.00     0.247 C 
ATOM     10  C   UNL     1     -11.757   0.976   8.225  1.00  0.00     0.040 C 
ATOM     11  O   UNL     1     -10.345   4.346   9.142  1.00  0.00    -0.272 OA
BRANCH   6  12
ATOM     12  O   UNL     1     -14.143   2.611   8.559  1.00  0.00    -0.373 OA
ATOM     13  H   UNL     1     -14.993   2.151   8.726  1.00  0.00     0.213 HD
ENDBRANCH   6  12
BRANCH   7  14
ATOM     14  C   UNL     1     -12.772   4.591  10.510  1.00  0.00     0.177 C 
BRANCH  14  15
ATOM     15  C   UNL     1     -11.920   4.939  11.746  1.00  0.00     0.038 C 
BRANCH  15  16
ATOM     16  C   UNL     1     -11.878   3.961  12.941  1.00  0.00    -0.015 C 
ATOM     17  C   UNL     1     -13.247   3.798  13.610  1.00  0.00     0.007 C 
ATOM     18  C   UNL     1     -10.887   4.472  13.995  1.00  0.00     0.007 C 
ENDBRANCH  15  16
ENDBRANCH  14  15
BRANCH  14  19
ATOM     19  C   UNL     1     -13.424   5.632   9.536  1.00  0.00     0.245 C 
ATOM     20  O   UNL     1     -12.787   5.907   8.505  1.00  0.00    -0.272 OA
BRANCH  19  21
ATOM     21  N   UNL     1     -14.587   6.327   9.815  1.00  0.00    -0.332 N 
ATOM     22  C   UNL     1     -14.961   6.858  11.113  1.00  0.00     0.147 C 
BRANCH  21  23
ATOM     23  C   UNL     1     -15.551   6.545   8.701  1.00  0.00     0.178 C 
BRANCH  23  24
ATOM     24  C   UNL     1     -16.971   6.001   8.960  1.00  0.00     0.070 C 
BRANCH  24  25
ATOM     25  C   UNL     1     -17.249   4.576   8.542  1.00  0.00    -0.045 A 
ATOM     26  C   UNL     1     -17.350   3.554   9.495  1.00  0.00     0.004 A 
ATOM     27  C   UNL     1     -17.406   4.254   7.185  1.00  0.00     0.004 A 
ATOM     28  C   UNL     1     -17.590   2.237   9.099  1.00  0.00     0.000 A 
ATOM     29  C   UNL     1     -17.647   2.937   6.791  1.00  0.00     0.000 A 
ATOM     30  C   UNL     1     -17.736   1.929   7.748  1.00  0.00     0.000 A 
ENDBRANCH  24  25
ENDBRANCH  23  24
BRANCH  23  31
ATOM     31  C   UNL     1     -15.499   7.982   8.130  1.00  0.00     0.243 C 
ATOM     32  O   UNL     1     -16.493   8.655   7.871  1.00  0.00    -0.273 OA
ATOM     33  N   UNL     1     -14.227   8.383   7.757  1.00  0.00    -0.341 N 
ATOM     34  H   UNL     1     -13.438   7.776   7.994  1.00  0.00     0.164 HD
BRANCH  33  35
ATOM     35  C   UNL     1     -13.956   9.656   7.084  1.00  0.00     0.194 C 
BRANCH  35  36
ATOM     36  C   UNL     1     -15.170  10.232   6.301  1.00  0.00     0.017 C 
ATOM     37  C   UNL     1     -15.068   9.913   4.799  1.00  0.00     0.010 C 
ATOM     38  C   UNL     1     -15.311  11.753   6.439  1.00  0.00     0.010 C 
ENDBRANCH  35  36
BRANCH  35  39
ATOM     39  C   UNL     1     -12.671   9.610   6.211  1.00  0.00     0.329 C 
ATOM     40  O   UNL     1     -11.908  10.557   6.062  1.00  0.00    -0.250 OA
BRANCH  39  41
ATOM     41  O   UNL     1     -12.438   8.365   5.695  1.00  0.00    -0.458 OA
BRANCH  41  42
ATOM     42  C   UNL     1     -11.215   7.715   6.116  1.00  0.00     0.205 CG0
ATOM     43  C   UNL     1     -10.349   8.773   6.796  1.00  0.00     0.056 C 
ATOM     44  G   UNL     1     -10.532   7.102   4.877  1.00  0.00     0.000 G0
ENDBRANCH  41  42
ENDBRANCH  39  41
ENDBRANCH  35  39
ENDBRANCH  33  35
ENDBRANCH  23  31
ENDBRANCH  21  23
ENDBRANCH  19  21
ENDBRANCH  14  19
ENDBRANCH   7  14
ENDBRANCH   2   5
BRANCH   3  45
ATOM     45  C   UNL     1     -10.611   3.269   4.641  1.00  0.00     0.171 C 
BRANCH  45  46
ATOM     46  N   UNL     1     -10.778   4.697   4.403  1.00  0.00    -0.342 N 
ATOM     47  C   UNL     1     -10.163   5.650   5.175  1.00  0.00     0.247 C 
ATOM     48  O   UNL     1      -9.370   5.370   6.075  1.00  0.00    -0.273 OA
ATOM     49  H   UNL     1     -11.383   4.973   3.631  1.00  0.00     0.164 HD
BRANCH  47  50
ATOM     50  C   UNL     1     -10.555   7.099   4.855  1.00  0.00     0.212 CG0
ATOM     51  G   UNL     1     -11.206   7.696   6.119  1.00  0.00     0.000 G0
BRANCH  50  52
ATOM     52  N   UNL     1      -9.312   7.765   4.477  1.00  0.00    -0.339 N 
ATOM     53  C   UNL     1      -8.917   7.946   3.174  1.00  0.00     0.243 C 
ATOM     54  O   UNL     1      -9.559   7.511   2.222  1.00  0.00    -0.273 OA
ATOM     55  H   UNL     1      -8.682   8.050   5.225  1.00  0.00     0.164 HD
BRANCH  53  56
ATOM     56  C   UNL     1      -7.527   8.597   3.023  1.00  0.00     0.182 C 
BRANCH  56  57
ATOM     57  N   UNL     1      -6.500   7.810   3.713  1.00  0.00    -0.344 N 
ATOM     58  C   UNL     1      -5.256   7.590   3.173  1.00  0.00     0.220 C 
ATOM     59  O   UNL     1      -4.943   7.971   2.051  1.00  0.00    -0.275 OA
ATOM     60  H   UNL     1      -6.682   7.563   4.682  1.00  0.00     0.164 HD
BRANCH  58  61
ATOM     61  C   UNL     1      -4.336   6.800   4.086  1.00  0.00     0.100 C 
BRANCH  61  62
ATOM     62  C   UNL     1      -5.075   5.916   5.091  1.00  0.00     0.010 C 
BRANCH  62  63
ATOM     63  C   UNL     1      -4.724   4.425   4.992  1.00  0.00     0.000 C 
BRANCH  63  64
ATOM     64  C   UNL     1      -4.561   3.913   3.561  1.00  0.00    -0.003 C 
ATOM     65  C   UNL     1      -5.732   3.031   3.151  1.00  0.00     0.004 C 
ENDBRANCH  63  64
ENDBRANCH  62  63
ENDBRANCH  61  62
ENDBRANCH  58  61
ENDBRANCH  56  57
BRANCH  56  66
ATOM     66  C   UNL     1      -7.540  10.055   3.479  1.00  0.00     0.157 C 
BRANCH  66  67
ATOM     67  C   UNL     1      -6.861  10.944   2.477  1.00  0.00     0.305 C 
ATOM     68  O   UNL     1      -7.403  11.675   1.662  1.00  0.00    -0.252 OA
BRANCH  67  69
ATOM     69  O   UNL     1      -5.520  10.907   2.586  1.00  0.00    -0.481 OA
ATOM     70  H   UNL     1      -5.270  10.004   2.297  1.00  0.00     0.296 HD
ENDBRANCH  67  69
ENDBRANCH  66  67
ENDBRANCH  56  66
ENDBRANCH  53  56
ENDBRANCH  50  52
ENDBRANCH  47  50
ENDBRANCH  45  46
BRANCH  45  71
ATOM     71  C   UNL     1     -11.357   2.431   3.597  1.00  0.00     0.037 C 
BRANCH  71  72
ATOM     72  C   UNL     1     -11.476   0.963   4.016  1.00  0.00     0.026 C 
BRANCH  72  73
ATOM     73  C   UNL     1     -12.850   0.392   3.673  1.00  0.00     0.146 C 
BRANCH  73  74
ATOM     74  N   UNL     1     -13.475  -0.047   4.918  1.00  0.00    -0.254 NA
ATOM     75  C   UNL     1     -14.313   0.744   5.479  1.00  0.00     0.185 C 
ATOM     76  N   UNL     1     -14.905   0.367   6.624  1.00  0.00    -0.370 N 
ATOM     77  N   UNL     1     -14.720   1.963   5.083  1.00  0.00    -0.370 N 
ATOM     78  H   UNL     1     -14.648  -0.536   6.996  1.00  0.00     0.159 HD
ATOM     79  H   UNL     1     -15.455   0.986   7.192  1.00  0.00     0.159 HD
ATOM     80  H   UNL     1     -14.361   2.374   4.235  1.00  0.00     0.159 HD
ATOM     81  H   UNL     1     -15.473   2.444   5.547  1.00  0.00     0.159 HD
ENDBRANCH  73  74
ENDBRANCH  72  73
ENDBRANCH  71  72
ENDBRANCH  45  71
ENDBRANCH   3  45
TORSDOF 20
ENDMDL
MODEL 18
REMARK VINA RESULT:    -7.024      4.104     11.757
REMARK INTER + INTRA:         -24.908
REMARK INTER:                 -19.304
REMARK INTRA:                  -5.604
REMARK UNBOUND:                -4.745
REMARK SMILES CCCCCC(=O)N[C@H](CC(=O)O)C(=O)N[C@H]1C(=O)N[C@H](CCCN=C(N)N)C(=O)N[C@@H]2CC[C@H](O)N(C2=O)[C@@H](CC(C)C)C(=O)N(C)[C@@H](Cc2ccccc2)C(=O)N[C@H](C(C)C)C(=O)O[C@@H]1C
REMARK SMILES IDX 30 1 31 2 29 3 32 5 35 6 37 7 34 8 38 9 33 10 39 11 36 12
REMARK SMILES IDX 40 14 41 15 42 16 43 17 44 18 45 19 46 20 47 21 48 22 49 23
REMARK SMILES IDX 50 24 51 25 52 26 56 27 53 28 55 29 54 30 57 31 58 32 59 33
REMARK SMILES IDX 60 35 61 36 62 37 63 38 64 39 65 40 66 41 67 42 68 43 21 45
REMARK SMILES IDX 20 46 18 47 19 48 17 50 16 52 14 53 15 54 9 56 8 57 6 58
REMARK SMILES IDX 7 59 5 61 4 62 3 63 2 64 1 65 10 66 11 67 12 68 13 69 22 71
REMARK SMILES IDX 23 72 24 73 25 74 26 75 27 76 28 77
REMARK H PARENT 31 4 36 13 59 34 20 49 16 55 8 60 13 70 27 78 27 79 28 80
REMARK H PARENT 28 81
REMARK Flexibility Score:  259.900
ROOT
ATOM      1  O   UNL     1     -11.777  -0.435   6.667  1.00  0.00    -0.273 OA
ATOM      2  N   UNL     1     -13.864   0.501   6.642  1.00  0.00    -0.343 N 
ATOM      3  C   UNL     1     -12.859  -0.242   7.224  1.00  0.00     0.243 C 
ATOM      4  H   UNL     1     -14.735   0.652   7.135  1.00  0.00     0.164 HD
ENDROOT
BRANCH   2   5
ATOM      5  C   UNL     1     -13.727   0.993   5.276  1.00  0.00     0.171 C 
ATOM      6  C   UNL     1     -11.449   1.267   3.505  1.00  0.00     0.214 C 
ATOM      7  N   UNL     1     -11.820   2.370   4.360  1.00  0.00    -0.303 N 
ATOM      8  C   UNL     1     -12.629   0.401   3.093  1.00  0.00     0.057 C 
ATOM      9  C   UNL     1     -12.866   2.288   5.265  1.00  0.00     0.247 C 
ATOM     10  C   UNL     1     -13.327  -0.133   4.324  1.00  0.00     0.040 C 
ATOM     11  O   UNL     1     -13.123   3.206   6.055  1.00  0.00    -0.272 OA
BRANCH   6  12
ATOM     12  O   UNL     1     -10.488   0.497   4.188  1.00  0.00    -0.373 OA
ATOM     13  H   UNL     1     -10.976  -0.096   4.799  1.00  0.00     0.213 HD
ENDBRANCH   6  12
BRANCH   7  14
ATOM     14  C   UNL     1     -10.941   3.559   4.341  1.00  0.00     0.177 C 
BRANCH  14  15
ATOM     15  C   UNL     1     -11.553   4.816   3.693  1.00  0.00     0.038 C 
BRANCH  15  16
ATOM     16  C   UNL     1     -10.800   5.524   2.545  1.00  0.00    -0.015 C 
ATOM     17  C   UNL     1      -9.599   4.714   2.047  1.00  0.00     0.007 C 
ATOM     18  C   UNL     1     -10.294   6.891   3.021  1.00  0.00     0.007 C 
ENDBRANCH  15  16
ENDBRANCH  14  15
BRANCH  14  19
ATOM     19  C   UNL     1      -9.990   3.552   5.586  1.00  0.00     0.245 C 
ATOM     20  O   UNL     1      -9.519   2.453   5.924  1.00  0.00    -0.272 OA
BRANCH  19  21
ATOM     21  N   UNL     1      -9.744   4.661   6.376  1.00  0.00    -0.332 N 
ATOM     22  C   UNL     1      -9.044   5.860   5.950  1.00  0.00     0.147 C 
BRANCH  21  23
ATOM     23  C   UNL     1     -10.224   4.632   7.785  1.00  0.00     0.178 C 
BRANCH  23  24
ATOM     24  C   UNL     1      -9.145   4.948   8.841  1.00  0.00     0.070 C 
BRANCH  24  25
ATOM     25  C   UNL     1      -7.740   4.473   8.552  1.00  0.00    -0.045 A 
ATOM     26  C   UNL     1      -6.704   5.390   8.329  1.00  0.00     0.004 A 
ATOM     27  C   UNL     1      -7.454   3.101   8.498  1.00  0.00     0.004 A 
ATOM     28  C   UNL     1      -5.412   4.943   8.045  1.00  0.00     0.000 A 
ATOM     29  C   UNL     1      -6.161   2.655   8.216  1.00  0.00     0.000 A 
ATOM     30  C   UNL     1      -5.142   3.577   7.987  1.00  0.00     0.000 A 
ENDBRANCH  24  25
ENDBRANCH  23  24
BRANCH  23  31
ATOM     31  C   UNL     1     -11.566   5.378   7.982  1.00  0.00     0.243 C 
ATOM     32  O   UNL     1     -11.821   6.474   7.489  1.00  0.00    -0.273 OA
ATOM     33  N   UNL     1     -12.395   4.787   8.920  1.00  0.00    -0.341 N 
ATOM     34  H   UNL     1     -12.125   3.876   9.300  1.00  0.00     0.164 HD
BRANCH  33  35
ATOM     35  C   UNL     1     -13.662   5.382   9.354  1.00  0.00     0.194 C 
BRANCH  35  36
ATOM     36  C   UNL     1     -13.556   6.218  10.660  1.00  0.00     0.017 C 
ATOM     37  C   UNL     1     -13.355   7.713  10.352  1.00  0.00     0.010 C 
ATOM     38  C   UNL     1     -12.401   5.778  11.568  1.00  0.00     0.010 C 
ENDBRANCH  35  36
BRANCH  35  39
ATOM     39  C   UNL     1     -14.817   4.344   9.422  1.00  0.00     0.329 C 
ATOM     40  O   UNL     1     -15.999   4.622   9.256  1.00  0.00    -0.250 OA
BRANCH  39  41
ATOM     41  O   UNL     1     -14.360   3.068   9.601  1.00  0.00    -0.458 OA
BRANCH  41  42
ATOM     42  C   UNL     1     -14.322   2.586  10.965  1.00  0.00     0.205 CG0
ATOM     43  C   UNL     1     -12.859   2.322  11.313  1.00  0.00     0.056 C 
ATOM     44  G   UNL     1     -15.190   1.315  11.062  1.00  0.00     0.000 G0
ENDBRANCH  41  42
ENDBRANCH  39  41
ENDBRANCH  35  39
ENDBRANCH  33  35
ENDBRANCH  23  31
ENDBRANCH  21  23
ENDBRANCH  19  21
ENDBRANCH  14  19
ENDBRANCH   7  14
ENDBRANCH   2   5
BRANCH   3  45
ATOM     45  C   UNL     1     -13.173  -0.792   8.621  1.00  0.00     0.171 C 
BRANCH  45  46
ATOM     46  N   UNL     1     -13.837   0.293   9.331  1.00  0.00    -0.342 N 
ATOM     47  C   UNL     1     -14.477   0.105  10.531  1.00  0.00     0.247 C 
ATOM     48  O   UNL     1     -14.474  -0.972  11.128  1.00  0.00    -0.273 OA
ATOM     49  H   UNL     1     -13.815   1.215   8.899  1.00  0.00     0.164 HD
BRANCH  47  50
ATOM     50  C   UNL     1     -15.226   1.333  11.067  1.00  0.00     0.212 CG0
ATOM     51  G   UNL     1     -14.286   2.547  10.938  1.00  0.00     0.000 G0
BRANCH  50  52
ATOM     52  N   UNL     1     -16.429   1.445  10.247  1.00  0.00    -0.339 N 
ATOM     53  C   UNL     1     -17.702   1.342  10.754  1.00  0.00     0.243 C 
ATOM     54  O   UNL     1     -17.926   1.094  11.935  1.00  0.00    -0.273 OA
ATOM     55  H   UNL     1     -16.308   1.540   9.241  1.00  0.00     0.164 HD
BRANCH  53  56
ATOM     56  C   UNL     1     -18.811   1.406   9.684  1.00  0.00     0.182 C 
BRANCH  56  57
ATOM     57  N   UNL     1     -19.438   0.094   9.496  1.00  0.00    -0.344 N 
ATOM     58  C   UNL     1     -20.523  -0.315  10.232  1.00  0.00     0.220 C 
ATOM     59  O   UNL     1     -20.997   0.354  11.143  1.00  0.00    -0.275 OA
ATOM     60  H   UNL     1     -19.142  -0.446   8.687  1.00  0.00     0.164 HD
BRANCH  58  61
ATOM     61  C   UNL     1     -21.042  -1.683   9.828  1.00  0.00     0.100 C 
BRANCH  61  62
ATOM     62  C   UNL     1     -21.731  -2.440  10.964  1.00  0.00     0.010 C 
BRANCH  62  63
ATOM     63  C   UNL     1     -20.772  -2.961  12.042  1.00  0.00     0.000 C 
BRANCH  63  64
ATOM     64  C   UNL     1     -20.640  -4.483  12.082  1.00  0.00    -0.003 C 
ATOM     65  C   UNL     1     -20.544  -4.994  13.512  1.00  0.00     0.004 C 
ENDBRANCH  63  64
ENDBRANCH  62  63
ENDBRANCH  61  62
ENDBRANCH  58  61
ENDBRANCH  56  57
BRANCH  56  66
ATOM     66  C   UNL     1     -18.289   1.989   8.372  1.00  0.00     0.157 C 
BRANCH  66  67
ATOM     67  C   UNL     1     -17.853   0.904   7.430  1.00  0.00     0.305 C 
ATOM     68  O   UNL     1     -16.999   0.055   7.636  1.00  0.00    -0.252 OA
BRANCH  67  69
ATOM     69  O   UNL     1     -18.557   0.909   6.282  1.00  0.00    -0.481 OA
ATOM     70  H   UNL     1     -18.137   0.217   5.728  1.00  0.00     0.296 HD
ENDBRANCH  67  69
ENDBRANCH  66  67
ENDBRANCH  56  66
ENDBRANCH  53  56
ENDBRANCH  50  52
ENDBRANCH  47  50
ENDBRANCH  45  46
BRANCH  45  71
ATOM     71  C   UNL     1     -11.882  -1.223   9.328  1.00  0.00     0.037 C 
BRANCH  71  72
ATOM     72  C   UNL     1     -10.870  -0.079   9.427  1.00  0.00     0.026 C 
BRANCH  72  73
ATOM     73  C   UNL     1      -9.435  -0.600   9.449  1.00  0.00     0.146 C 
BRANCH  73  74
ATOM     74  N   UNL     1      -8.710   0.040   8.355  1.00  0.00    -0.254 NA
ATOM     75  C   UNL     1      -8.600  -0.603   7.252  1.00  0.00     0.185 C 
ATOM     76  N   UNL     1      -7.940  -0.039   6.227  1.00  0.00    -0.370 N 
ATOM     77  N   UNL     1      -9.067  -1.823   6.935  1.00  0.00    -0.370 N 
ATOM     78  H   UNL     1      -7.549   0.879   6.384  1.00  0.00     0.159 HD
ATOM     79  H   UNL     1      -7.690  -0.535   5.390  1.00  0.00     0.159 HD
ATOM     80  H   UNL     1      -9.588  -2.365   7.608  1.00  0.00     0.159 HD
ATOM     81  H   UNL     1      -9.019  -2.179   5.994  1.00  0.00     0.159 HD
ENDBRANCH  73  74
ENDBRANCH  72  73
ENDBRANCH  71  72
ENDBRANCH  45  71
ENDBRANCH   3  45
TORSDOF 20
ENDMDL
MODEL 19
REMARK VINA RESULT:    -7.011      4.053      7.429
REMARK INTER + INTRA:         -24.873
REMARK INTER:                 -19.765
REMARK INTRA:                  -5.108
REMARK UNBOUND:                -4.745
REMARK SMILES CCCCCC(=O)N[C@H](CC(=O)O)C(=O)N[C@H]1C(=O)N[C@H](CCCN=C(N)N)C(=O)N[C@@H]2CC[C@H](O)N(C2=O)[C@@H](CC(C)C)C(=O)N(C)[C@@H](Cc2ccccc2)C(=O)N[C@H](C(C)C)C(=O)O[C@@H]1C
REMARK SMILES IDX 30 1 31 2 29 3 32 5 35 6 37 7 34 8 38 9 33 10 39 11 36 12
REMARK SMILES IDX 40 14 41 15 42 16 43 17 44 18 45 19 46 20 47 21 48 22 49 23
REMARK SMILES IDX 50 24 51 25 52 26 56 27 53 28 55 29 54 30 57 31 58 32 59 33
REMARK SMILES IDX 60 35 61 36 62 37 63 38 64 39 65 40 66 41 67 42 68 43 21 45
REMARK SMILES IDX 20 46 18 47 19 48 17 50 16 52 14 53 15 54 9 56 8 57 6 58
REMARK SMILES IDX 7 59 5 61 4 62 3 63 2 64 1 65 10 66 11 67 12 68 13 69 22 71
REMARK SMILES IDX 23 72 24 73 25 74 26 75 27 76 28 77
REMARK H PARENT 31 4 36 13 59 34 20 49 16 55 8 60 13 70 27 78 27 79 28 80
REMARK H PARENT 28 81
REMARK Flexibility Score:  259.900
ROOT
ATOM      1  O   UNL     1     -11.218   4.769   5.337  1.00  0.00    -0.273 OA
ATOM      2  N   UNL     1      -9.918   2.904   5.586  1.00  0.00    -0.343 N 
ATOM      3  C   UNL     1     -10.104   4.244   5.323  1.00  0.00     0.243 C 
ATOM      4  H   UNL     1      -8.986   2.510   5.580  1.00  0.00     0.164 HD
ENDROOT
BRANCH   2   5
ATOM      5  C   UNL     1     -11.062   2.019   5.779  1.00  0.00     0.171 C 
ATOM      6  C   UNL     1     -13.854   2.520   6.375  1.00  0.00     0.214 C 
ATOM      7  N   UNL     1     -12.922   2.315   7.459  1.00  0.00    -0.303 N 
ATOM      8  C   UNL     1     -13.472   1.778   5.104  1.00  0.00     0.057 C 
ATOM      9  C   UNL     1     -11.567   2.122   7.246  1.00  0.00     0.247 C 
ATOM     10  C   UNL     1     -12.088   2.199   4.661  1.00  0.00     0.040 C 
ATOM     11  O   UNL     1     -10.762   2.033   8.183  1.00  0.00    -0.272 OA
BRANCH   6  12
ATOM     12  O   UNL     1     -13.933   3.906   6.131  1.00  0.00    -0.373 OA
ATOM     13  H   UNL     1     -14.612   4.037   5.436  1.00  0.00     0.213 HD
ENDBRANCH   6  12
BRANCH   7  14
ATOM     14  C   UNL     1     -13.448   2.465   8.833  1.00  0.00     0.177 C 
BRANCH  14  15
ATOM     15  C   UNL     1     -13.106   1.312   9.796  1.00  0.00     0.038 C 
BRANCH  15  16
ATOM     16  C   UNL     1     -13.780  -0.065   9.603  1.00  0.00    -0.015 C 
ATOM     17  C   UNL     1     -12.992  -0.973   8.654  1.00  0.00     0.007 C 
ATOM     18  C   UNL     1     -15.190   0.123   9.028  1.00  0.00     0.007 C 
ENDBRANCH  15  16
ENDBRANCH  14  15
BRANCH  14  19
ATOM     19  C   UNL     1     -13.521   3.982   9.224  1.00  0.00     0.245 C 
ATOM     20  O   UNL     1     -12.440   4.585   9.327  1.00  0.00    -0.272 OA
BRANCH  19  21
ATOM     21  N   UNL     1     -14.692   4.636   9.561  1.00  0.00    -0.332 N 
ATOM     22  C   UNL     1     -15.378   4.532  10.837  1.00  0.00     0.147 C 
BRANCH  21  23
ATOM     23  C   UNL     1     -15.320   5.514   8.535  1.00  0.00     0.178 C 
BRANCH  23  24
ATOM     24  C   UNL     1     -16.840   5.321   8.363  1.00  0.00     0.070 C 
BRANCH  24  25
ATOM     25  C   UNL     1     -17.305   4.016   7.759  1.00  0.00    -0.045 A 
ATOM     26  C   UNL     1     -17.152   3.765   6.389  1.00  0.00     0.004 A 
ATOM     27  C   UNL     1     -17.904   3.037   8.565  1.00  0.00     0.004 A 
ATOM     28  C   UNL     1     -17.599   2.563   5.836  1.00  0.00     0.000 A 
ATOM     29  C   UNL     1     -18.350   1.836   8.010  1.00  0.00     0.000 A 
ATOM     30  C   UNL     1     -18.200   1.602   6.645  1.00  0.00     0.000 A 
ENDBRANCH  24  25
ENDBRANCH  23  24
BRANCH  23  31
ATOM     31  C   UNL     1     -14.857   6.986   8.636  1.00  0.00     0.243 C 
ATOM     32  O   UNL     1     -15.032   7.695   9.623  1.00  0.00    -0.273 OA
ATOM     33  N   UNL     1     -14.387   7.502   7.439  1.00  0.00    -0.341 N 
ATOM     34  H   UNL     1     -14.268   6.863   6.649  1.00  0.00     0.164 HD
BRANCH  33  35
ATOM     35  C   UNL     1     -14.006   8.907   7.270  1.00  0.00     0.194 C 
BRANCH  35  36
ATOM     36  C   UNL     1     -14.787   9.645   6.146  1.00  0.00     0.017 C 
ATOM     37  C   UNL     1     -14.449  11.146   6.124  1.00  0.00     0.010 C 
ATOM     38  C   UNL     1     -16.309   9.520   6.286  1.00  0.00     0.010 C 
ENDBRANCH  35  36
BRANCH  35  39
ATOM     39  C   UNL     1     -12.470   9.097   7.130  1.00  0.00     0.329 C 
ATOM     40  O   UNL     1     -11.704   9.216   8.079  1.00  0.00    -0.250 OA
BRANCH  39  41
ATOM     41  O   UNL     1     -12.054   9.029   5.829  1.00  0.00    -0.458 OA
BRANCH  41  42
ATOM     42  C   UNL     1     -10.732   9.549   5.551  1.00  0.00     0.205 CG0
ATOM     43  C   UNL     1     -10.904  10.975   5.031  1.00  0.00     0.056 C 
ATOM     44  G   UNL     1     -10.046   8.626   4.524  1.00  0.00     0.000 G0
ENDBRANCH  41  42
ENDBRANCH  39  41
ENDBRANCH  35  39
ENDBRANCH  33  35
ENDBRANCH  23  31
ENDBRANCH  21  23
ENDBRANCH  19  21
ENDBRANCH  14  19
ENDBRANCH   7  14
ENDBRANCH   2   5
BRANCH   3  45
ATOM     45  C   UNL     1      -8.826   5.041   5.032  1.00  0.00     0.171 C 
BRANCH  45  46
ATOM     46  N   UNL     1      -9.271   6.312   4.478  1.00  0.00    -0.342 N 
ATOM     47  C   UNL     1      -9.422   7.438   5.247  1.00  0.00     0.247 C 
ATOM     48  O   UNL     1      -9.124   7.477   6.442  1.00  0.00    -0.273 OA
ATOM     49  H   UNL     1      -9.475   6.340   3.480  1.00  0.00     0.164 HD
BRANCH  47  50
ATOM     50  C   UNL     1     -10.019   8.650   4.517  1.00  0.00     0.212 CG0
ATOM     51  G   UNL     1     -10.746   9.515   5.565  1.00  0.00     0.000 G0
BRANCH  50  52
ATOM     52  N   UNL     1      -8.884   9.328   3.895  1.00  0.00    -0.339 N 
ATOM     53  C   UNL     1      -8.401   9.005   2.651  1.00  0.00     0.243 C 
ATOM     54  O   UNL     1      -8.855   8.080   1.983  1.00  0.00    -0.273 OA
ATOM     55  H   UNL     1      -8.394  10.030   4.446  1.00  0.00     0.164 HD
BRANCH  53  56
ATOM     56  C   UNL     1      -7.143   9.798   2.241  1.00  0.00     0.182 C 
BRANCH  56  57
ATOM     57  N   UNL     1      -5.922   9.049   2.554  1.00  0.00    -0.344 N 
ATOM     58  C   UNL     1      -4.791   9.128   1.780  1.00  0.00     0.220 C 
ATOM     59  O   UNL     1      -4.745   9.771   0.737  1.00  0.00    -0.275 OA
ATOM     60  H   UNL     1      -5.885   8.587   3.459  1.00  0.00     0.164 HD
BRANCH  58  61
ATOM     61  C   UNL     1      -3.631   8.315   2.324  1.00  0.00     0.100 C 
BRANCH  61  62
ATOM     62  C   UNL     1      -3.639   6.853   1.875  1.00  0.00     0.010 C 
BRANCH  62  63
ATOM     63  C   UNL     1      -4.278   5.890   2.883  1.00  0.00     0.000 C 
BRANCH  63  64
ATOM     64  C   UNL     1      -4.287   6.404   4.322  1.00  0.00    -0.003 C 
ATOM     65  C   UNL     1      -4.736   5.324   5.295  1.00  0.00     0.004 C 
ENDBRANCH  63  64
ENDBRANCH  62  63
ENDBRANCH  61  62
ENDBRANCH  58  61
ENDBRANCH  56  57
BRANCH  56  66
ATOM     66  C   UNL     1      -7.136  11.195   2.860  1.00  0.00     0.157 C 
BRANCH  66  67
ATOM     67  C   UNL     1      -7.094  12.259   1.801  1.00  0.00     0.305 C 
ATOM     68  O   UNL     1      -6.102  12.828   1.373  1.00  0.00    -0.252 OA
BRANCH  67  69
ATOM     69  O   UNL     1      -8.312  12.520   1.289  1.00  0.00    -0.481 OA
ATOM     70  H   UNL     1      -8.612  11.667   0.909  1.00  0.00     0.296 HD
ENDBRANCH  67  69
ENDBRANCH  66  67
ENDBRANCH  56  66
ENDBRANCH  53  56
ENDBRANCH  50  52
ENDBRANCH  47  50
ENDBRANCH  45  46
BRANCH  45  71
ATOM     71  C   UNL     1      -7.933   4.277   4.047  1.00  0.00     0.037 C 
BRANCH  71  72
ATOM     72  C   UNL     1      -8.300   4.570   2.591  1.00  0.00     0.026 C 
BRANCH  72  73
ATOM     73  C   UNL     1      -8.962   3.365   1.925  1.00  0.00     0.146 C 
BRANCH  73  74
ATOM     74  N   UNL     1      -8.833   3.525   0.480  1.00  0.00    -0.254 NA
ATOM     75  C   UNL     1      -9.022   2.494  -0.256  1.00  0.00     0.185 C 
ATOM     76  N   UNL     1      -8.912   2.610  -1.589  1.00  0.00    -0.370 N 
ATOM     77  N   UNL     1      -9.334   1.238   0.112  1.00  0.00    -0.370 N 
ATOM     78  H   UNL     1      -8.672   3.522  -1.951  1.00  0.00     0.159 HD
ATOM     79  H   UNL     1      -8.903   1.824  -2.215  1.00  0.00     0.159 HD
ATOM     80  H   UNL     1      -9.453   1.003   1.086  1.00  0.00     0.159 HD
ATOM     81  H   UNL     1      -9.573   0.533  -0.566  1.00  0.00     0.159 HD
ENDBRANCH  73  74
ENDBRANCH  72  73
ENDBRANCH  71  72
ENDBRANCH  45  71
ENDBRANCH   3  45
TORSDOF 20
ENDMDL
MODEL 20
REMARK VINA RESULT:    -7.007      3.505     11.059
REMARK INTER + INTRA:         -24.861
REMARK INTER:                 -20.234
REMARK INTRA:                  -4.627
REMARK UNBOUND:                -4.745
REMARK SMILES CCCCCC(=O)N[C@H](CC(=O)O)C(=O)N[C@H]1C(=O)N[C@H](CCCN=C(N)N)C(=O)N[C@@H]2CC[C@H](O)N(C2=O)[C@@H](CC(C)C)C(=O)N(C)[C@@H](Cc2ccccc2)C(=O)N[C@H](C(C)C)C(=O)O[C@@H]1C
REMARK SMILES IDX 30 1 31 2 29 3 32 5 35 6 37 7 34 8 38 9 33 10 39 11 36 12
REMARK SMILES IDX 40 14 41 15 42 16 43 17 44 18 45 19 46 20 47 21 48 22 49 23
REMARK SMILES IDX 50 24 51 25 52 26 56 27 53 28 55 29 54 30 57 31 58 32 59 33
REMARK SMILES IDX 60 35 61 36 62 37 63 38 64 39 65 40 66 41 67 42 68 43 21 45
REMARK SMILES IDX 20 46 18 47 19 48 17 50 16 52 14 53 15 54 9 56 8 57 6 58
REMARK SMILES IDX 7 59 5 61 4 62 3 63 2 64 1 65 10 66 11 67 12 68 13 69 22 71
REMARK SMILES IDX 23 72 24 73 25 74 26 75 27 76 28 77
REMARK H PARENT 31 4 36 13 59 34 20 49 16 55 8 60 13 70 27 78 27 79 28 80
REMARK H PARENT 28 81
REMARK Flexibility Score:  259.900
ROOT
ATOM      1  O   UNL     1     -14.405   8.134   7.279  1.00  0.00    -0.273 OA
ATOM      2  N   UNL     1     -12.627   8.052   8.715  1.00  0.00    -0.343 N 
ATOM      3  C   UNL     1     -13.895   7.694   8.309  1.00  0.00     0.243 C 
ATOM      4  H   UNL     1     -12.234   7.659   9.561  1.00  0.00     0.164 HD
ENDROOT
BRANCH   2   5
ATOM      5  C   UNL     1     -11.877   9.072   7.990  1.00  0.00     0.171 C 
ATOM      6  C   UNL     1     -11.996  10.027   5.256  1.00  0.00     0.214 C 
ATOM      7  N   UNL     1     -11.101   8.944   5.591  1.00  0.00    -0.303 N 
ATOM      8  C   UNL     1     -12.230  10.993   6.406  1.00  0.00     0.057 C 
ATOM      9  C   UNL     1     -11.032   8.406   6.866  1.00  0.00     0.247 C 
ATOM     10  C   UNL     1     -12.777  10.243   7.601  1.00  0.00     0.040 C 
ATOM     11  O   UNL     1     -10.327   7.422   7.126  1.00  0.00    -0.272 OA
BRANCH   6  12
ATOM     12  O   UNL     1     -13.215   9.463   4.831  1.00  0.00    -0.373 OA
ATOM     13  H   UNL     1     -13.876  10.187   4.813  1.00  0.00     0.213 HD
ENDBRANCH   6  12
BRANCH   7  14
ATOM     14  C   UNL     1     -10.355   8.321   4.477  1.00  0.00     0.177 C 
BRANCH  14  15
ATOM     15  C   UNL     1      -8.856   8.673   4.414  1.00  0.00     0.038 C 
BRANCH  15  16
ATOM     16  C   UNL     1      -8.388   9.854   3.536  1.00  0.00    -0.015 C 
ATOM     17  C   UNL     1      -6.968   9.656   2.998  1.00  0.00     0.007 C 
ATOM     18  C   UNL     1      -8.415  11.151   4.354  1.00  0.00     0.007 C 
ENDBRANCH  15  16
ENDBRANCH  14  15
BRANCH  14  19
ATOM     19  C   UNL     1     -10.976   6.926   4.120  1.00  0.00     0.245 C 
ATOM     20  O   UNL     1     -12.117   6.695   4.553  1.00  0.00    -0.272 OA
BRANCH  19  21
ATOM     21  N   UNL     1     -10.288   5.922   3.462  1.00  0.00    -0.332 N 
ATOM     22  C   UNL     1     -10.320   5.679   2.030  1.00  0.00     0.147 C 
BRANCH  21  23
ATOM     23  C   UNL     1      -9.451   5.001   4.278  1.00  0.00     0.178 C 
BRANCH  23  24
ATOM     24  C   UNL     1      -8.160   5.630   4.841  1.00  0.00     0.070 C 
BRANCH  24  25
ATOM     25  C   UNL     1      -6.848   5.094   4.317  1.00  0.00    -0.045 A 
ATOM     26  C   UNL     1      -5.986   5.910   3.573  1.00  0.00     0.004 A 
ATOM     27  C   UNL     1      -6.477   3.764   4.565  1.00  0.00     0.004 A 
ATOM     28  C   UNL     1      -4.783   5.402   3.077  1.00  0.00     0.000 A 
ATOM     29  C   UNL     1      -5.274   3.259   4.070  1.00  0.00     0.000 A 
ATOM     30  C   UNL     1      -4.429   4.078   3.323  1.00  0.00     0.000 A 
ENDBRANCH  24  25
ENDBRANCH  23  24
BRANCH  23  31
ATOM     31  C   UNL     1     -10.275   4.181   5.299  1.00  0.00     0.243 C 
ATOM     32  O   UNL     1     -11.415   3.772   5.092  1.00  0.00    -0.273 OA
ATOM     33  N   UNL     1      -9.686   4.103   6.550  1.00  0.00    -0.341 N 
ATOM     34  H   UNL     1      -8.737   4.466   6.663  1.00  0.00     0.164 HD
BRANCH  33  35
ATOM     35  C   UNL     1     -10.340   3.478   7.703  1.00  0.00     0.194 C 
BRANCH  35  36
ATOM     36  C   UNL     1      -9.595   3.694   9.050  1.00  0.00     0.017 C 
ATOM     37  C   UNL     1      -8.097   3.367   8.919  1.00  0.00     0.010 C 
ATOM     38  C   UNL     1     -10.153   2.838  10.194  1.00  0.00     0.010 C 
ENDBRANCH  35  36
BRANCH  35  39
ATOM     39  C   UNL     1     -10.678   1.980   7.460  1.00  0.00     0.329 C 
ATOM     40  O   UNL     1      -9.850   1.077   7.490  1.00  0.00    -0.250 OA
BRANCH  39  41
ATOM     41  O   UNL     1     -12.019   1.770   7.296  1.00  0.00    -0.458 OA
BRANCH  41  42
ATOM     42  C   UNL     1     -12.864   2.109   8.421  1.00  0.00     0.205 CG0
ATOM     43  C   UNL     1     -13.472   0.808   8.941  1.00  0.00     0.056 C 
ATOM     44  G   UNL     1     -13.934   3.112   7.947  1.00  0.00     0.000 G0
ENDBRANCH  41  42
ENDBRANCH  39  41
ENDBRANCH  35  39
ENDBRANCH  33  35
ENDBRANCH  23  31
ENDBRANCH  21  23
ENDBRANCH  19  21
ENDBRANCH  14  19
ENDBRANCH   7  14
ENDBRANCH   2   5
BRANCH   3  45
ATOM     45  C   UNL     1     -14.618   6.693   9.220  1.00  0.00     0.171 C 
BRANCH  45  46
ATOM     46  N   UNL     1     -14.628   5.432   8.490  1.00  0.00    -0.342 N 
ATOM     47  C   UNL     1     -13.925   4.331   8.911  1.00  0.00     0.247 C 
ATOM     48  O   UNL     1     -13.296   4.304   9.969  1.00  0.00    -0.273 OA
ATOM     49  H   UNL     1     -15.182   5.393   7.636  1.00  0.00     0.164 HD
BRANCH  47  50
ATOM     50  C   UNL     1     -13.955   3.135   7.949  1.00  0.00     0.212 CG0
ATOM     51  G   UNL     1     -12.876   2.136   8.413  1.00  0.00     0.000 G0
BRANCH  50  52
ATOM     52  N   UNL     1     -15.311   2.600   8.034  1.00  0.00    -0.339 N 
ATOM     53  C   UNL     1     -16.275   2.830   7.083  1.00  0.00     0.243 C 
ATOM     54  O   UNL     1     -16.084   3.553   6.109  1.00  0.00    -0.273 OA
ATOM     55  H   UNL     1     -15.564   2.085   8.875  1.00  0.00     0.164 HD
BRANCH  53  56
ATOM     56  C   UNL     1     -17.655   2.236   7.432  1.00  0.00     0.182 C 
BRANCH  56  57
ATOM     57  N   UNL     1     -17.670   1.707   8.799  1.00  0.00    -0.344 N 
ATOM     58  C   UNL     1     -18.832   1.342   9.435  1.00  0.00     0.220 C 
ATOM     59  O   UNL     1     -19.940   1.501   8.934  1.00  0.00    -0.275 OA
ATOM     60  H   UNL     1     -16.772   1.465   9.210  1.00  0.00     0.164 HD
BRANCH  58  61
ATOM     61  C   UNL     1     -18.605   0.767  10.820  1.00  0.00     0.100 C 
BRANCH  61  62
ATOM     62  C   UNL     1     -17.138   0.760  11.252  1.00  0.00     0.010 C 
BRANCH  62  63
ATOM     63  C   UNL     1     -16.791   1.814  12.311  1.00  0.00     0.000 C 
BRANCH  63  64
ATOM     64  C   UNL     1     -15.698   2.793  11.886  1.00  0.00    -0.003 C 
ATOM     65  C   UNL     1     -16.118   4.235  12.131  1.00  0.00     0.004 C 
ENDBRANCH  63  64
ENDBRANCH  62  63
ENDBRANCH  61  62
ENDBRANCH  58  61
ENDBRANCH  56  57
BRANCH  56  66
ATOM     66  C   UNL     1     -18.090   1.192   6.405  1.00  0.00     0.157 C 
BRANCH  66  67
ATOM     67  C   UNL     1     -17.047   0.125   6.237  1.00  0.00     0.305 C 
ATOM     68  O   UNL     1     -16.205   0.056   5.356  1.00  0.00    -0.252 OA
BRANCH  67  69
ATOM     69  O   UNL     1     -17.082  -0.785   7.229  1.00  0.00    -0.481 OA
ATOM     70  H   UNL     1     -16.799  -0.294   8.029  1.00  0.00     0.296 HD
ENDBRANCH  67  69
ENDBRANCH  66  67
ENDBRANCH  56  66
ENDBRANCH  53  56
ENDBRANCH  50  52
ENDBRANCH  47  50
ENDBRANCH  45  46
BRANCH  45  71
ATOM     71  C   UNL     1     -16.038   7.179   9.528  1.00  0.00     0.037 C 
BRANCH  71  72
ATOM     72  C   UNL     1     -17.039   6.751   8.453  1.00  0.00     0.026 C 
BRANCH  72  73
ATOM     73  C   UNL     1     -18.215   7.722   8.362  1.00  0.00     0.146 C 
BRANCH  73  74
ATOM     74  N   UNL     1     -18.165   8.362   7.052  1.00  0.00    -0.254 NA
ATOM     75  C   UNL     1     -17.850   9.604   7.003  1.00  0.00     0.185 C 
ATOM     76  N   UNL     1     -17.795  10.221   5.812  1.00  0.00    -0.370 N 
ATOM     77  N   UNL     1     -17.546  10.439   8.012  1.00  0.00    -0.370 N 
ATOM     78  H   UNL     1     -18.017   9.665   4.998  1.00  0.00     0.159 HD
ATOM     79  H   UNL     1     -17.698  11.215   5.707  1.00  0.00     0.159 HD
ATOM     80  H   UNL     1     -17.543  10.111   8.967  1.00  0.00     0.159 HD
ATOM     81  H   UNL     1     -17.200  11.368   7.843  1.00  0.00     0.159 HD
ENDBRANCH  73  74
ENDBRANCH  72  73
ENDBRANCH  71  72
ENDBRANCH  45  71
ENDBRANCH   3  45
TORSDOF 20
ENDMDL
MODEL 21
REMARK VINA RESULT:    -6.972      4.128      7.583
REMARK INTER + INTRA:         -24.761
REMARK INTER:                 -19.875
REMARK INTRA:                  -4.886
REMARK UNBOUND:                -4.745
REMARK SMILES CCCCCC(=O)N[C@H](CC(=O)O)C(=O)N[C@H]1C(=O)N[C@H](CCCN=C(N)N)C(=O)N[C@@H]2CC[C@H](O)N(C2=O)[C@@H](CC(C)C)C(=O)N(C)[C@@H](Cc2ccccc2)C(=O)N[C@H](C(C)C)C(=O)O[C@@H]1C
REMARK SMILES IDX 30 1 31 2 29 3 32 5 35 6 37 7 34 8 38 9 33 10 39 11 36 12
REMARK SMILES IDX 40 14 41 15 42 16 43 17 44 18 45 19 46 20 47 21 48 22 49 23
REMARK SMILES IDX 50 24 51 25 52 26 56 27 53 28 55 29 54 30 57 31 58 32 59 33
REMARK SMILES IDX 60 35 61 36 62 37 63 38 64 39 65 40 66 41 67 42 68 43 21 45
REMARK SMILES IDX 20 46 18 47 19 48 17 50 16 52 14 53 15 54 9 56 8 57 6 58
REMARK SMILES IDX 7 59 5 61 4 62 3 63 2 64 1 65 10 66 11 67 12 68 13 69 22 71
REMARK SMILES IDX 23 72 24 73 25 74 26 75 27 76 28 77
REMARK H PARENT 31 4 36 13 59 34 20 49 16 55 8 60 13 70 27 78 27 79 28 80
REMARK H PARENT 28 81
REMARK Flexibility Score:  259.900
ROOT
ATOM      1  O   UNL     1     -11.052   6.243   3.032  1.00  0.00    -0.273 OA
ATOM      2  N   UNL     1     -10.757   6.611   5.270  1.00  0.00    -0.343 N 
ATOM      3  C   UNL     1     -10.552   5.903   4.105  1.00  0.00     0.243 C 
ATOM      4  H   UNL     1     -10.317   6.310   6.131  1.00  0.00     0.164 HD
ENDROOT
BRANCH   2   5
ATOM      5  C   UNL     1     -11.683   7.737   5.302  1.00  0.00     0.171 C 
ATOM      6  C   UNL     1     -12.368   9.660   7.361  1.00  0.00     0.214 C 
ATOM      7  N   UNL     1     -13.129   8.438   7.249  1.00  0.00    -0.303 N 
ATOM      8  C   UNL     1     -11.802  10.140   6.034  1.00  0.00     0.057 C 
ATOM      9  C   UNL     1     -12.823   7.455   6.322  1.00  0.00     0.247 C 
ATOM     10  C   UNL     1     -10.931   9.062   5.427  1.00  0.00     0.040 C 
ATOM     11  O   UNL     1     -13.425   6.373   6.290  1.00  0.00    -0.272 OA
BRANCH   6  12
ATOM     12  O   UNL     1     -11.329   9.438   8.287  1.00  0.00    -0.373 OA
ATOM     13  H   UNL     1     -10.646  10.122   8.122  1.00  0.00     0.213 HD
ENDBRANCH   6  12
BRANCH   7  14
ATOM     14  C   UNL     1     -14.171   8.201   8.270  1.00  0.00     0.177 C 
BRANCH  14  15
ATOM     15  C   UNL     1     -15.611   8.109   7.728  1.00  0.00     0.038 C 
BRANCH  15  16
ATOM     16  C   UNL     1     -16.434   9.401   7.531  1.00  0.00    -0.015 C 
ATOM     17  C   UNL     1     -17.917   9.205   7.862  1.00  0.00     0.007 C 
ATOM     18  C   UNL     1     -16.325   9.868   6.074  1.00  0.00     0.007 C 
ENDBRANCH  15  16
ENDBRANCH  14  15
BRANCH  14  19
ATOM     19  C   UNL     1     -13.591   7.352   9.453  1.00  0.00     0.245 C 
ATOM     20  O   UNL     1     -13.106   7.982  10.408  1.00  0.00    -0.272 OA
BRANCH  19  21
ATOM     21  N   UNL     1     -13.492   5.972   9.436  1.00  0.00    -0.332 N 
ATOM     22  C   UNL     1     -12.338   5.216   8.985  1.00  0.00     0.147 C 
BRANCH  21  23
ATOM     23  C   UNL     1     -14.664   5.185   9.907  1.00  0.00     0.178 C 
BRANCH  23  24
ATOM     24  C   UNL     1     -15.429   5.811  11.092  1.00  0.00     0.070 C 
BRANCH  24  25
ATOM     25  C   UNL     1     -15.673   4.932  12.296  1.00  0.00    -0.045 A 
ATOM     26  C   UNL     1     -15.350   5.375  13.585  1.00  0.00     0.004 A 
ATOM     27  C   UNL     1     -16.224   3.651  12.137  1.00  0.00     0.004 A 
ATOM     28  C   UNL     1     -15.562   4.549  14.691  1.00  0.00     0.000 A 
ATOM     29  C   UNL     1     -16.436   2.828  13.244  1.00  0.00     0.000 A 
ATOM     30  C   UNL     1     -16.103   3.277  14.520  1.00  0.00     0.000 A 
ENDBRANCH  24  25
ENDBRANCH  23  24
BRANCH  23  31
ATOM     31  C   UNL     1     -15.557   4.680   8.749  1.00  0.00     0.243 C 
ATOM     32  O   UNL     1     -16.509   5.307   8.292  1.00  0.00    -0.273 OA
ATOM     33  N   UNL     1     -15.307   3.366   8.390  1.00  0.00    -0.341 N 
ATOM     34  H   UNL     1     -14.503   2.893   8.810  1.00  0.00     0.164 HD
BRANCH  33  35
ATOM     35  C   UNL     1     -16.109   2.642   7.400  1.00  0.00     0.194 C 
BRANCH  35  36
ATOM     36  C   UNL     1     -17.048   1.564   8.009  1.00  0.00     0.017 C 
ATOM     37  C   UNL     1     -17.565   0.597   6.930  1.00  0.00     0.010 C 
ATOM     38  C   UNL     1     -18.272   2.158   8.717  1.00  0.00     0.010 C 
ENDBRANCH  35  36
BRANCH  35  39
ATOM     39  C   UNL     1     -15.250   2.073   6.236  1.00  0.00     0.329 C 
ATOM     40  O   UNL     1     -15.514   2.227   5.049  1.00  0.00    -0.250 OA
BRANCH  39  41
ATOM     41  O   UNL     1     -14.116   1.452   6.681  1.00  0.00    -0.458 OA
BRANCH  41  42
ATOM     42  C   UNL     1     -13.022   1.361   5.737  1.00  0.00     0.205 CG0
ATOM     43  C   UNL     1     -12.633  -0.113   5.635  1.00  0.00     0.056 C 
ATOM     44  G   UNL     1     -11.863   2.243   6.241  1.00  0.00     0.000 G0
ENDBRANCH  41  42
ENDBRANCH  39  41
ENDBRANCH  35  39
ENDBRANCH  33  35
ENDBRANCH  23  31
ENDBRANCH  21  23
ENDBRANCH  19  21
ENDBRANCH  14  19
ENDBRANCH   7  14
ENDBRANCH   2   5
BRANCH   3  45
ATOM     45  C   UNL     1      -9.640   4.676   4.233  1.00  0.00     0.171 C 
BRANCH  45  46
ATOM     46  N   UNL     1     -10.241   3.845   5.268  1.00  0.00    -0.342 N 
ATOM     47  C   UNL     1     -11.246   2.949   5.002  1.00  0.00     0.247 C 
ATOM     48  O   UNL     1     -11.661   2.729   3.863  1.00  0.00    -0.273 OA
ATOM     49  H   UNL     1      -9.888   3.954   6.217  1.00  0.00     0.164 HD
BRANCH  47  50
ATOM     50  C   UNL     1     -11.841   2.254   6.234  1.00  0.00     0.212 CG0
ATOM     51  G   UNL     1     -13.021   1.385   5.757  1.00  0.00     0.000 G0
BRANCH  50  52
ATOM     52  N   UNL     1     -10.746   1.476   6.809  1.00  0.00    -0.339 N 
ATOM     53  C   UNL     1     -10.501   1.398   8.158  1.00  0.00     0.243 C 
ATOM     54  O   UNL     1     -11.156   2.024   8.987  1.00  0.00    -0.273 OA
ATOM     55  H   UNL     1     -10.100   1.023   6.166  1.00  0.00     0.164 HD
BRANCH  53  56
ATOM     56  C   UNL     1      -9.240   0.588   8.521  1.00  0.00     0.182 C 
BRANCH  56  57
ATOM     57  N   UNL     1      -8.081   1.469   8.695  1.00  0.00    -0.344 N 
ATOM     58  C   UNL     1      -7.509   2.149   7.648  1.00  0.00     0.220 C 
ATOM     59  O   UNL     1      -7.879   2.012   6.487  1.00  0.00    -0.275 OA
ATOM     60  H   UNL     1      -7.809   1.689   9.650  1.00  0.00     0.164 HD
BRANCH  58  61
ATOM     61  C   UNL     1      -6.360   3.047   8.069  1.00  0.00     0.100 C 
BRANCH  61  62
ATOM     62  C   UNL     1      -6.641   4.537   7.878  1.00  0.00     0.010 C 
BRANCH  62  63
ATOM     63  C   UNL     1      -5.412   5.360   7.469  1.00  0.00     0.000 C 
BRANCH  63  64
ATOM     64  C   UNL     1      -4.996   5.180   6.009  1.00  0.00    -0.003 C 
ATOM     65  C   UNL     1      -4.596   6.506   5.379  1.00  0.00     0.004 C 
ENDBRANCH  63  64
ENDBRANCH  62  63
ENDBRANCH  61  62
ENDBRANCH  58  61
ENDBRANCH  56  57
BRANCH  56  66
ATOM     66  C   UNL     1      -8.974  -0.520   7.504  1.00  0.00     0.157 C 
BRANCH  66  67
ATOM     67  C   UNL     1      -9.682  -1.789   7.885  1.00  0.00     0.305 C 
ATOM     68  O   UNL     1     -10.151  -2.622   7.125  1.00  0.00    -0.252 OA
BRANCH  67  69
ATOM     69  O   UNL     1      -9.720  -1.973   9.218  1.00  0.00    -0.481 OA
ATOM     70  H   UNL     1     -10.382  -1.325   9.542  1.00  0.00     0.296 HD
ENDBRANCH  67  69
ENDBRANCH  66  67
ENDBRANCH  56  66
ENDBRANCH  53  56
ENDBRANCH  50  52
ENDBRANCH  47  50
ENDBRANCH  45  46
BRANCH  45  71
ATOM     71  C   UNL     1      -8.217   5.105   4.608  1.00  0.00     0.037 C 
BRANCH  71  72
ATOM     72  C   UNL     1      -7.207   4.771   3.508  1.00  0.00     0.026 C 
BRANCH  72  73
ATOM     73  C   UNL     1      -7.510   3.422   2.859  1.00  0.00     0.146 C 
BRANCH  73  74
ATOM     74  N   UNL     1      -6.545   2.453   3.371  1.00  0.00    -0.254 NA
ATOM     75  C   UNL     1      -6.164   1.514   2.586  1.00  0.00     0.185 C 
ATOM     76  N   UNL     1      -5.277   0.609   3.028  1.00  0.00    -0.370 N 
ATOM     77  N   UNL     1      -6.531   1.275   1.315  1.00  0.00    -0.370 N 
ATOM     78  H   UNL     1      -4.954   0.711   3.979  1.00  0.00     0.159 HD
ATOM     79  H   UNL     1      -5.044  -0.230   2.525  1.00  0.00     0.159 HD
ATOM     80  H   UNL     1      -7.192   1.879   0.848  1.00  0.00     0.159 HD
ATOM     81  H   UNL     1      -6.076   0.572   0.757  1.00  0.00     0.159 HD
ENDBRANCH  73  74
ENDBRANCH  72  73
ENDBRANCH  71  72
ENDBRANCH  45  71
ENDBRANCH   3  45
TORSDOF 20
ENDMDL
MODEL 22
REMARK VINA RESULT:    -6.965      4.567     10.679
REMARK INTER + INTRA:         -24.740
REMARK INTER:                 -20.376
REMARK INTRA:                  -4.363
REMARK UNBOUND:                -4.745
REMARK SMILES CCCCCC(=O)N[C@H](CC(=O)O)C(=O)N[C@H]1C(=O)N[C@H](CCCN=C(N)N)C(=O)N[C@@H]2CC[C@H](O)N(C2=O)[C@@H](CC(C)C)C(=O)N(C)[C@@H](Cc2ccccc2)C(=O)N[C@H](C(C)C)C(=O)O[C@@H]1C
REMARK SMILES IDX 30 1 31 2 29 3 32 5 35 6 37 7 34 8 38 9 33 10 39 11 36 12
REMARK SMILES IDX 40 14 41 15 42 16 43 17 44 18 45 19 46 20 47 21 48 22 49 23
REMARK SMILES IDX 50 24 51 25 52 26 56 27 53 28 55 29 54 30 57 31 58 32 59 33
REMARK SMILES IDX 60 35 61 36 62 37 63 38 64 39 65 40 66 41 67 42 68 43 21 45
REMARK SMILES IDX 20 46 18 47 19 48 17 50 16 52 14 53 15 54 9 56 8 57 6 58
REMARK SMILES IDX 7 59 5 61 4 62 3 63 2 64 1 65 10 66 11 67 12 68 13 69 22 71
REMARK SMILES IDX 23 72 24 73 25 74 26 75 27 76 28 77
REMARK H PARENT 31 4 36 13 59 34 20 49 16 55 8 60 13 70 27 78 27 79 28 80
REMARK H PARENT 28 81
REMARK Flexibility Score:  259.900
ROOT
ATOM      1  O   UNL     1     -15.217   0.848   7.491  1.00  0.00    -0.273 OA
ATOM      2  N   UNL     1     -13.098   1.693   7.332  1.00  0.00    -0.343 N 
ATOM      3  C   UNL     1     -14.172   1.200   8.040  1.00  0.00     0.243 C 
ATOM      4  H   UNL     1     -12.249   1.959   7.816  1.00  0.00     0.164 HD
ENDROOT
BRANCH   2   5
ATOM      5  C   UNL     1     -13.200   1.930   5.896  1.00  0.00     0.171 C 
ATOM      6  C   UNL     1     -11.357   1.507   3.699  1.00  0.00     0.214 C 
ATOM      7  N   UNL     1     -11.369   2.780   4.381  1.00  0.00    -0.303 N 
ATOM      8  C   UNL     1     -12.710   0.813   3.698  1.00  0.00     0.057 C 
ATOM      9  C   UNL     1     -12.187   3.031   5.470  1.00  0.00     0.247 C 
ATOM     10  C   UNL     1     -13.185   0.614   5.121  1.00  0.00     0.040 C 
ATOM     11  O   UNL     1     -12.130   4.094   6.103  1.00  0.00    -0.272 OA
BRANCH   6  12
ATOM     12  O   UNL     1     -10.388   0.695   4.319  1.00  0.00    -0.373 OA
ATOM     13  H   UNL     1      -9.569   0.765   3.783  1.00  0.00     0.213 HD
ENDBRANCH   6  12
BRANCH   7  14
ATOM     14  C   UNL     1     -10.357   3.774   3.963  1.00  0.00     0.177 C 
BRANCH  14  15
ATOM     15  C   UNL     1     -10.920   5.040   3.290  1.00  0.00     0.038 C 
BRANCH  15  16
ATOM     16  C   UNL     1     -10.306   5.532   1.960  1.00  0.00    -0.015 C 
ATOM     17  C   UNL     1      -9.246   4.571   1.415  1.00  0.00     0.007 C 
ATOM     18  C   UNL     1      -9.650   6.903   2.168  1.00  0.00     0.007 C 
ENDBRANCH  15  16
ENDBRANCH  14  15
BRANCH  14  19
ATOM     19  C   UNL     1      -9.124   3.733   4.930  1.00  0.00     0.245 C 
ATOM     20  O   UNL     1      -8.572   2.630   5.086  1.00  0.00    -0.272 OA
BRANCH  19  21
ATOM     21  N   UNL     1      -8.700   4.811   5.686  1.00  0.00    -0.332 N 
ATOM     22  C   UNL     1      -9.235   6.159   5.605  1.00  0.00     0.147 C 
BRANCH  21  23
ATOM     23  C   UNL     1      -7.596   4.587   6.660  1.00  0.00     0.178 C 
BRANCH  23  24
ATOM     24  C   UNL     1      -6.333   5.436   6.410  1.00  0.00     0.070 C 
BRANCH  24  25
ATOM     25  C   UNL     1      -5.507   5.097   5.190  1.00  0.00    -0.045 A 
ATOM     26  C   UNL     1      -5.108   6.097   4.294  1.00  0.00     0.004 A 
ATOM     27  C   UNL     1      -5.131   3.770   4.937  1.00  0.00     0.004 A 
ATOM     28  C   UNL     1      -4.359   5.773   3.160  1.00  0.00     0.000 A 
ATOM     29  C   UNL     1      -4.382   3.448   3.804  1.00  0.00     0.000 A 
ATOM     30  C   UNL     1      -3.999   4.450   2.915  1.00  0.00     0.000 A 
ENDBRANCH  24  25
ENDBRANCH  23  24
BRANCH  23  31
ATOM     31  C   UNL     1      -8.083   4.562   8.128  1.00  0.00     0.243 C 
ATOM     32  O   UNL     1      -7.404   4.929   9.084  1.00  0.00    -0.273 OA
ATOM     33  N   UNL     1      -9.293   3.911   8.298  1.00  0.00    -0.341 N 
ATOM     34  H   UNL     1      -9.811   3.622   7.464  1.00  0.00     0.164 HD
BRANCH  33  35
ATOM     35  C   UNL     1      -9.889   3.662   9.614  1.00  0.00     0.194 C 
BRANCH  35  36
ATOM     36  C   UNL     1     -10.013   2.156   9.981  1.00  0.00     0.017 C 
ATOM     37  C   UNL     1      -9.593   1.898  11.438  1.00  0.00     0.010 C 
ATOM     38  C   UNL     1      -9.161   1.245   9.089  1.00  0.00     0.010 C 
ENDBRANCH  35  36
BRANCH  35  39
ATOM     39  C   UNL     1     -11.230   4.421   9.817  1.00  0.00     0.329 C 
ATOM     40  O   UNL     1     -11.624   5.324   9.088  1.00  0.00    -0.250 OA
BRANCH  39  41
ATOM     41  O   UNL     1     -11.965   3.911  10.851  1.00  0.00    -0.458 OA
BRANCH  41  42
ATOM     42  C   UNL     1     -12.796   4.852  11.572  1.00  0.00     0.205 CG0
ATOM     43  C   UNL     1     -12.195   5.010  12.968  1.00  0.00     0.056 C 
ATOM     44  G   UNL     1     -14.238   4.308  11.609  1.00  0.00     0.000 G0
ENDBRANCH  41  42
ENDBRANCH  39  41
ENDBRANCH  35  39
ENDBRANCH  33  35
ENDBRANCH  23  31
ENDBRANCH  21  23
ENDBRANCH  19  21
ENDBRANCH  14  19
ENDBRANCH   7  14
ENDBRANCH   2   5
BRANCH   3  45
ATOM     45  C   UNL     1     -13.970   1.101   9.558  1.00  0.00     0.171 C 
BRANCH  45  46
ATOM     46  N   UNL     1     -13.916   2.475  10.039  1.00  0.00    -0.342 N 
ATOM     47  C   UNL     1     -14.254   2.819  11.324  1.00  0.00     0.247 C 
ATOM     48  O   UNL     1     -14.555   1.988  12.181  1.00  0.00    -0.273 OA
ATOM     49  H   UNL     1     -13.618   3.189   9.377  1.00  0.00     0.164 HD
BRANCH  47  50
ATOM     50  C   UNL     1     -14.258   4.327  11.613  1.00  0.00     0.212 CG0
ATOM     51  G   UNL     1     -12.797   4.816  11.561  1.00  0.00     0.000 G0
BRANCH  50  52
ATOM     52  N   UNL     1     -15.102   4.920  10.580  1.00  0.00    -0.339 N 
ATOM     53  C   UNL     1     -15.696   6.152  10.705  1.00  0.00     0.243 C 
ATOM     54  O   UNL     1     -15.605   6.831  11.724  1.00  0.00    -0.273 OA
ATOM     55  H   UNL     1     -15.306   4.358   9.756  1.00  0.00     0.164 HD
BRANCH  53  56
ATOM     56  C   UNL     1     -16.611   6.530   9.522  1.00  0.00     0.182 C 
BRANCH  56  57
ATOM     57  N   UNL     1     -17.089   5.334   8.822  1.00  0.00    -0.344 N 
ATOM     58  C   UNL     1     -16.296   4.623   7.954  1.00  0.00     0.220 C 
ATOM     59  O   UNL     1     -15.163   4.979   7.647  1.00  0.00    -0.275 OA
ATOM     60  H   UNL     1     -17.980   4.949   9.124  1.00  0.00     0.164 HD
BRANCH  58  61
ATOM     61  C   UNL     1     -16.976   3.389   7.391  1.00  0.00     0.100 C 
BRANCH  61  62
ATOM     62  C   UNL     1     -16.646   3.119   5.923  1.00  0.00     0.010 C 
BRANCH  62  63
ATOM     63  C   UNL     1     -17.861   3.161   4.988  1.00  0.00     0.000 C 
BRANCH  63  64
ATOM     64  C   UNL     1     -18.647   1.853   4.921  1.00  0.00    -0.003 C 
ATOM     65  C   UNL     1     -17.717   0.651   4.829  1.00  0.00     0.004 C 
ENDBRANCH  63  64
ENDBRANCH  62  63
ENDBRANCH  61  62
ENDBRANCH  58  61
ENDBRANCH  56  57
BRANCH  56  66
ATOM     66  C   UNL     1     -15.926   7.516   8.577  1.00  0.00     0.157 C 
BRANCH  66  67
ATOM     67  C   UNL     1     -16.916   8.476   7.982  1.00  0.00     0.305 C 
ATOM     68  O   UNL     1     -16.907   8.929   6.848  1.00  0.00    -0.252 OA
BRANCH  67  69
ATOM     69  O   UNL     1     -17.910   8.782   8.837  1.00  0.00    -0.481 OA
ATOM     70  H   UNL     1     -18.695   8.928   8.268  1.00  0.00     0.296 HD
ENDBRANCH  67  69
ENDBRANCH  66  67
ENDBRANCH  56  66
ENDBRANCH  53  56
ENDBRANCH  50  52
ENDBRANCH  47  50
ENDBRANCH  45  46
BRANCH  45  71
ATOM     71  C   UNL     1     -12.677   0.340   9.875  1.00  0.00     0.037 C 
BRANCH  71  72
ATOM     72  C   UNL     1     -12.945  -1.120  10.247  1.00  0.00     0.026 C 
BRANCH  72  73
ATOM     73  C   UNL     1     -12.063  -2.074   9.445  1.00  0.00     0.146 C 
BRANCH  73  74
ATOM     74  N   UNL     1     -11.747  -1.428   8.174  1.00  0.00    -0.254 NA
ATOM     75  C   UNL     1     -10.567  -1.587   7.698  1.00  0.00     0.185 C 
ATOM     76  N   UNL     1     -10.247  -1.006   6.531  1.00  0.00    -0.370 N 
ATOM     77  N   UNL     1      -9.537  -2.283   8.209  1.00  0.00    -0.370 N 
ATOM     78  H   UNL     1     -10.965  -0.456   6.081  1.00  0.00     0.159 HD
ATOM     79  H   UNL     1      -9.309  -0.966   6.171  1.00  0.00     0.159 HD
ATOM     80  H   UNL     1      -9.634  -2.777   9.084  1.00  0.00     0.159 HD
ATOM     81  H   UNL     1      -8.689  -2.433   7.687  1.00  0.00     0.159 HD
ENDBRANCH  73  74
ENDBRANCH  72  73
ENDBRANCH  71  72
ENDBRANCH  45  71
ENDBRANCH   3  45
TORSDOF 20
ENDMDL
MODEL 23
REMARK VINA RESULT:    -6.959      3.559     11.344
REMARK INTER + INTRA:         -24.723
REMARK INTER:                 -20.121
REMARK INTRA:                  -4.602
REMARK UNBOUND:                -4.745
REMARK SMILES CCCCCC(=O)N[C@H](CC(=O)O)C(=O)N[C@H]1C(=O)N[C@H](CCCN=C(N)N)C(=O)N[C@@H]2CC[C@H](O)N(C2=O)[C@@H](CC(C)C)C(=O)N(C)[C@@H](Cc2ccccc2)C(=O)N[C@H](C(C)C)C(=O)O[C@@H]1C
REMARK SMILES IDX 30 1 31 2 29 3 32 5 35 6 37 7 34 8 38 9 33 10 39 11 36 12
REMARK SMILES IDX 40 14 41 15 42 16 43 17 44 18 45 19 46 20 47 21 48 22 49 23
REMARK SMILES IDX 50 24 51 25 52 26 56 27 53 28 55 29 54 30 57 31 58 32 59 33
REMARK SMILES IDX 60 35 61 36 62 37 63 38 64 39 65 40 66 41 67 42 68 43 21 45
REMARK SMILES IDX 20 46 18 47 19 48 17 50 16 52 14 53 15 54 9 56 8 57 6 58
REMARK SMILES IDX 7 59 5 61 4 62 3 63 2 64 1 65 10 66 11 67 12 68 13 69 22 71
REMARK SMILES IDX 23 72 24 73 25 74 26 75 27 76 28 77
REMARK H PARENT 31 4 36 13 59 34 20 49 16 55 8 60 13 70 27 78 27 79 28 80
REMARK H PARENT 28 81
REMARK Flexibility Score:  259.900
ROOT
ATOM      1  O   UNL     1     -10.369   2.478   7.413  1.00  0.00    -0.273 OA
ATOM      2  N   UNL     1      -9.537   0.369   7.112  1.00  0.00    -0.343 N 
ATOM      3  C   UNL     1     -10.567   1.272   7.259  1.00  0.00     0.243 C 
ATOM      4  H   UNL     1      -9.738  -0.613   6.973  1.00  0.00     0.164 HD
ENDROOT
BRANCH   2   5
ATOM      5  C   UNL     1      -8.149   0.797   7.253  1.00  0.00     0.171 C 
ATOM      6  C   UNL     1      -6.932   3.372   7.791  1.00  0.00     0.214 C 
ATOM      7  N   UNL     1      -7.155   2.963   6.423  1.00  0.00    -0.303 N 
ATOM      8  C   UNL     1      -6.687   2.206   8.735  1.00  0.00     0.057 C 
ATOM      9  C   UNL     1      -7.777   1.769   6.097  1.00  0.00     0.247 C 
ATOM     10  C   UNL     1      -7.857   1.249   8.683  1.00  0.00     0.040 C 
ATOM     11  O   UNL     1      -8.042   1.466   4.927  1.00  0.00    -0.272 OA
BRANCH   6  12
ATOM     12  O   UNL     1      -8.055   4.114   8.206  1.00  0.00    -0.373 OA
ATOM     13  H   UNL     1      -7.765   4.684   8.950  1.00  0.00     0.213 HD
ENDBRANCH   6  12
BRANCH   7  14
ATOM     14  C   UNL     1      -6.822   3.943   5.368  1.00  0.00     0.177 C 
BRANCH  14  15
ATOM     15  C   UNL     1      -6.105   3.361   4.134  1.00  0.00     0.038 C 
BRANCH  15  16
ATOM     16  C   UNL     1      -4.712   3.899   3.739  1.00  0.00    -0.015 C 
ATOM     17  C   UNL     1      -4.781   5.295   3.112  1.00  0.00     0.007 C 
ATOM     18  C   UNL     1      -4.057   2.950   2.728  1.00  0.00     0.007 C 
ENDBRANCH  15  16
ENDBRANCH  14  15
BRANCH  14  19
ATOM     19  C   UNL     1      -7.887   5.094   5.339  1.00  0.00     0.245 C 
ATOM     20  O   UNL     1      -7.655   6.088   6.047  1.00  0.00    -0.272 OA
BRANCH  19  21
ATOM     21  N   UNL     1      -9.095   5.010   4.671  1.00  0.00    -0.332 N 
ATOM     22  C   UNL     1      -9.384   4.120   3.560  1.00  0.00     0.147 C 
BRANCH  21  23
ATOM     23  C   UNL     1     -10.198   5.909   5.110  1.00  0.00     0.178 C 
BRANCH  23  24
ATOM     24  C   UNL     1     -10.617   6.971   4.073  1.00  0.00     0.070 C 
BRANCH  24  25
ATOM     25  C   UNL     1      -9.740   8.195   3.949  1.00  0.00    -0.045 A 
ATOM     26  C   UNL     1      -8.640   8.205   3.082  1.00  0.00     0.004 A 
ATOM     27  C   UNL     1     -10.016   9.343   4.707  1.00  0.00     0.004 A 
ATOM     28  C   UNL     1      -7.824   9.335   2.986  1.00  0.00     0.000 A 
ATOM     29  C   UNL     1      -9.201  10.472   4.609  1.00  0.00     0.000 A 
ATOM     30  C   UNL     1      -8.104  10.466   3.750  1.00  0.00     0.000 A 
ENDBRANCH  24  25
ENDBRANCH  23  24
BRANCH  23  31
ATOM     31  C   UNL     1     -11.370   5.148   5.773  1.00  0.00     0.243 C 
ATOM     32  O   UNL     1     -12.146   4.416   5.164  1.00  0.00    -0.273 OA
ATOM     33  N   UNL     1     -11.587   5.508   7.093  1.00  0.00    -0.341 N 
ATOM     34  H   UNL     1     -10.909   6.126   7.545  1.00  0.00     0.164 HD
BRANCH  33  35
ATOM     35  C   UNL     1     -12.714   5.004   7.883  1.00  0.00     0.194 C 
BRANCH  35  36
ATOM     36  C   UNL     1     -14.061   5.729   7.602  1.00  0.00     0.017 C 
ATOM     37  C   UNL     1     -13.943   7.243   7.848  1.00  0.00     0.010 C 
ATOM     38  C   UNL     1     -15.217   5.212   8.466  1.00  0.00     0.010 C 
ENDBRANCH  35  36
BRANCH  35  39
ATOM     39  C   UNL     1     -12.397   4.939   9.403  1.00  0.00     0.329 C 
ATOM     40  O   UNL     1     -12.470   5.899  10.161  1.00  0.00    -0.250 OA
BRANCH  39  41
ATOM     41  O   UNL     1     -12.110   3.668   9.820  1.00  0.00    -0.458 OA
BRANCH  41  42
ATOM     42  C   UNL     1     -12.891   3.166  10.929  1.00  0.00     0.205 CG0
ATOM     43  C   UNL     1     -12.036   3.302  12.187  1.00  0.00     0.056 C 
ATOM     44  G   UNL     1     -13.278   1.702  10.635  1.00  0.00     0.000 G0
ENDBRANCH  41  42
ENDBRANCH  39  41
ENDBRANCH  35  39
ENDBRANCH  33  35
ENDBRANCH  23  31
ENDBRANCH  21  23
ENDBRANCH  19  21
ENDBRANCH  14  19
ENDBRANCH   7  14
ENDBRANCH   2   5
BRANCH   3  45
ATOM     45  C   UNL     1     -11.979   0.674   7.197  1.00  0.00     0.171 C 
BRANCH  45  46
ATOM     46  N   UNL     1     -12.708   1.269   8.309  1.00  0.00    -0.342 N 
ATOM     47  C   UNL     1     -12.340   1.078   9.617  1.00  0.00     0.247 C 
ATOM     48  O   UNL     1     -11.329   0.454   9.943  1.00  0.00    -0.273 OA
ATOM     49  H   UNL     1     -13.520   1.841   8.081  1.00  0.00     0.164 HD
BRANCH  47  50
ATOM     50  C   UNL     1     -13.298   1.678  10.656  1.00  0.00     0.212 CG0
ATOM     51  G   UNL     1     -12.876   3.142  10.891  1.00  0.00     0.000 G0
BRANCH  50  52
ATOM     52  N   UNL     1     -14.632   1.547  10.077  1.00  0.00    -0.339 N 
ATOM     53  C   UNL     1     -15.702   1.017  10.757  1.00  0.00     0.243 C 
ATOM     54  O   UNL     1     -15.605   0.560  11.892  1.00  0.00    -0.273 OA
ATOM     55  H   UNL     1     -14.751   1.806   9.100  1.00  0.00     0.164 HD
BRANCH  53  56
ATOM     56  C   UNL     1     -16.987   0.901   9.912  1.00  0.00     0.182 C 
BRANCH  56  57
ATOM     57  N   UNL     1     -17.034   1.942   8.880  1.00  0.00    -0.344 N 
ATOM     58  C   UNL     1     -17.201   1.651   7.548  1.00  0.00     0.220 C 
ATOM     59  O   UNL     1     -17.249   0.502   7.121  1.00  0.00    -0.275 OA
ATOM     60  H   UNL     1     -17.099   2.905   9.199  1.00  0.00     0.164 HD
BRANCH  58  61
ATOM     61  C   UNL     1     -17.279   2.884   6.667  1.00  0.00     0.100 C 
BRANCH  61  62
ATOM     62  C   UNL     1     -17.819   2.607   5.264  1.00  0.00     0.010 C 
BRANCH  62  63
ATOM     63  C   UNL     1     -16.765   2.710   4.155  1.00  0.00     0.000 C 
BRANCH  63  64
ATOM     64  C   UNL     1     -15.756   1.562   4.140  1.00  0.00    -0.003 C 
ATOM     65  C   UNL     1     -14.406   2.002   4.687  1.00  0.00     0.004 C 
ENDBRANCH  63  64
ENDBRANCH  62  63
ENDBRANCH  61  62
ENDBRANCH  58  61
ENDBRANCH  56  57
BRANCH  56  66
ATOM     66  C   UNL     1     -18.237   0.904  10.790  1.00  0.00     0.157 C 
BRANCH  66  67
ATOM     67  C   UNL     1     -19.349   0.119  10.155  1.00  0.00     0.305 C 
ATOM     68  O   UNL     1     -19.263  -0.625   9.190  1.00  0.00    -0.252 OA
BRANCH  67  69
ATOM     69  O   UNL     1     -20.518   0.270  10.806  1.00  0.00    -0.481 OA
ATOM     70  H   UNL     1     -20.441   1.135  11.261  1.00  0.00     0.296 HD
ENDBRANCH  67  69
ENDBRANCH  66  67
ENDBRANCH  56  66
ENDBRANCH  53  56
ENDBRANCH  50  52
ENDBRANCH  47  50
ENDBRANCH  45  46
BRANCH  45  71
ATOM     71  C   UNL     1     -11.918  -0.853   7.313  1.00  0.00     0.037 C 
BRANCH  71  72
ATOM     72  C   UNL     1     -12.021  -1.539   5.949  1.00  0.00     0.026 C 
BRANCH  72  73
ATOM     73  C   UNL     1     -11.707  -0.571   4.810  1.00  0.00     0.146 C 
BRANCH  73  74
ATOM     74  N   UNL     1     -12.589  -0.893   3.693  1.00  0.00    -0.254 NA
ATOM     75  C   UNL     1     -12.340  -0.354   2.557  1.00  0.00     0.185 C 
ATOM     76  N   UNL     1     -13.133  -0.632   1.510  1.00  0.00    -0.370 N 
ATOM     77  N   UNL     1     -11.352   0.495   2.224  1.00  0.00    -0.370 N 
ATOM     78  H   UNL     1     -13.907  -1.259   1.677  1.00  0.00     0.159 HD
ATOM     79  H   UNL     1     -13.088  -0.140   0.635  1.00  0.00     0.159 HD
ATOM     80  H   UNL     1     -10.675   0.791   2.911  1.00  0.00     0.159 HD
ATOM     81  H   UNL     1     -11.187   0.764   1.268  1.00  0.00     0.159 HD
ENDBRANCH  73  74
ENDBRANCH  72  73
ENDBRANCH  71  72
ENDBRANCH  45  71
ENDBRANCH   3  45
TORSDOF 20
ENDMDL
MODEL 24
REMARK VINA RESULT:    -6.954      3.795     12.033
REMARK INTER + INTRA:         -24.707
REMARK INTER:                 -17.207
REMARK INTRA:                  -7.500
REMARK UNBOUND:                -4.745
REMARK SMILES CCCCCC(=O)N[C@H](CC(=O)O)C(=O)N[C@H]1C(=O)N[C@H](CCCN=C(N)N)C(=O)N[C@@H]2CC[C@H](O)N(C2=O)[C@@H](CC(C)C)C(=O)N(C)[C@@H](Cc2ccccc2)C(=O)N[C@H](C(C)C)C(=O)O[C@@H]1C
REMARK SMILES IDX 30 1 31 2 29 3 32 5 35 6 37 7 34 8 38 9 33 10 39 11 36 12
REMARK SMILES IDX 40 14 41 15 42 16 43 17 44 18 45 19 46 20 47 21 48 22 49 23
REMARK SMILES IDX 50 24 51 25 52 26 56 27 53 28 55 29 54 30 57 31 58 32 59 33
REMARK SMILES IDX 60 35 61 36 62 37 63 38 64 39 65 40 66 41 67 42 68 43 21 45
REMARK SMILES IDX 20 46 18 47 19 48 17 50 16 52 14 53 15 54 9 56 8 57 6 58
REMARK SMILES IDX 7 59 5 61 4 62 3 63 2 64 1 65 10 66 11 67 12 68 13 69 22 71
REMARK SMILES IDX 23 72 24 73 25 74 26 75 27 76 28 77
REMARK H PARENT 31 4 36 13 59 34 20 49 16 55 8 60 13 70 27 78 27 79 28 80
REMARK H PARENT 28 81
REMARK Flexibility Score:  259.900
ROOT
ATOM      1  O   UNL     1      -9.601   2.368  10.058  1.00  0.00    -0.273 OA
ATOM      2  N   UNL     1     -11.058   0.747   9.363  1.00  0.00    -0.343 N 
ATOM      3  C   UNL     1     -10.684   1.794  10.179  1.00  0.00     0.243 C 
ATOM      4  H   UNL     1     -11.963   0.309   9.482  1.00  0.00     0.164 HD
ENDROOT
BRANCH   2   5
ATOM      5  C   UNL     1     -10.124   0.194   8.389  1.00  0.00     0.171 C 
ATOM      6  C   UNL     1      -7.313   0.678   7.869  1.00  0.00     0.214 C 
ATOM      7  N   UNL     1      -8.309   1.453   7.167  1.00  0.00    -0.303 N 
ATOM      8  C   UNL     1      -7.786  -0.720   8.234  1.00  0.00     0.057 C 
ATOM      9  C   UNL     1      -9.666   1.309   7.405  1.00  0.00     0.247 C 
ATOM     10  C   UNL     1      -9.039  -0.633   9.078  1.00  0.00     0.040 C 
ATOM     11  O   UNL     1     -10.508   2.037   6.864  1.00  0.00    -0.272 OA
BRANCH   6  12
ATOM     12  O   UNL     1      -6.948   1.393   9.027  1.00  0.00    -0.373 OA
ATOM     13  H   UNL     1      -6.317   0.830   9.525  1.00  0.00     0.213 HD
ENDBRANCH   6  12
BRANCH   7  14
ATOM     14  C   UNL     1      -7.818   2.527   6.277  1.00  0.00     0.177 C 
BRANCH  14  15
ATOM     15  C   UNL     1      -6.581   3.290   6.790  1.00  0.00     0.038 C 
BRANCH  15  16
ATOM     16  C   UNL     1      -6.730   4.756   7.253  1.00  0.00    -0.015 C 
ATOM     17  C   UNL     1      -5.420   5.331   7.801  1.00  0.00     0.007 C 
ATOM     18  C   UNL     1      -7.792   4.847   8.356  1.00  0.00     0.007 C 
ENDBRANCH  15  16
ENDBRANCH  14  15
BRANCH  14  19
ATOM     19  C   UNL     1      -8.103   2.164   4.779  1.00  0.00     0.245 C 
ATOM     20  O   UNL     1      -7.326   1.356   4.242  1.00  0.00    -0.272 OA
BRANCH  19  21
ATOM     21  N   UNL     1      -9.083   2.768   4.012  1.00  0.00    -0.332 N 
ATOM     22  C   UNL     1      -9.942   2.091   3.057  1.00  0.00     0.147 C 
BRANCH  21  23
ATOM     23  C   UNL     1      -9.276   4.237   4.161  1.00  0.00     0.178 C 
BRANCH  23  24
ATOM     24  C   UNL     1      -8.487   5.097   3.152  1.00  0.00     0.070 C 
BRANCH  24  25
ATOM     25  C   UNL     1      -7.039   5.383   3.477  1.00  0.00    -0.045 A 
ATOM     26  C   UNL     1      -6.042   4.438   3.203  1.00  0.00     0.004 A 
ATOM     27  C   UNL     1      -6.673   6.604   4.063  1.00  0.00     0.004 A 
ATOM     28  C   UNL     1      -4.709   4.703   3.522  1.00  0.00     0.000 A 
ATOM     29  C   UNL     1      -5.340   6.868   4.379  1.00  0.00     0.000 A 
ATOM     30  C   UNL     1      -4.359   5.916   4.111  1.00  0.00     0.000 A 
ENDBRANCH  24  25
ENDBRANCH  23  24
BRANCH  23  31
ATOM     31  C   UNL     1     -10.760   4.636   4.336  1.00  0.00     0.243 C 
ATOM     32  O   UNL     1     -11.397   5.291   3.515  1.00  0.00    -0.273 OA
ATOM     33  N   UNL     1     -11.266   4.349   5.593  1.00  0.00    -0.341 N 
ATOM     34  H   UNL     1     -10.685   3.806   6.237  1.00  0.00     0.164 HD
BRANCH  33  35
ATOM     35  C   UNL     1     -12.610   4.745   6.023  1.00  0.00     0.194 C 
BRANCH  35  36
ATOM     36  C   UNL     1     -12.649   5.463   7.402  1.00  0.00     0.017 C 
ATOM     37  C   UNL     1     -12.628   6.992   7.237  1.00  0.00     0.010 C 
ATOM     38  C   UNL     1     -11.477   5.083   8.315  1.00  0.00     0.010 C 
ENDBRANCH  35  36
BRANCH  35  39
ATOM     39  C   UNL     1     -13.630   3.574   5.949  1.00  0.00     0.329 C 
ATOM     40  O   UNL     1     -13.654   2.742   5.050  1.00  0.00    -0.250 OA
BRANCH  39  41
ATOM     41  O   UNL     1     -14.445   3.525   7.046  1.00  0.00    -0.458 OA
BRANCH  41  42
ATOM     42  C   UNL     1     -14.598   2.229   7.672  1.00  0.00     0.205 CG0
ATOM     43  C   UNL     1     -15.724   1.501   6.942  1.00  0.00     0.056 C 
ATOM     44  G   UNL     1     -14.905   2.439   9.168  1.00  0.00     0.000 G0
ENDBRANCH  41  42
ENDBRANCH  39  41
ENDBRANCH  35  39
ENDBRANCH  33  35
ENDBRANCH  23  31
ENDBRANCH  21  23
ENDBRANCH  19  21
ENDBRANCH  14  19
ENDBRANCH   7  14
ENDBRANCH   2   5
BRANCH   3  45
ATOM     45  C   UNL     1     -11.719   2.208  11.233  1.00  0.00     0.171 C 
BRANCH  45  46
ATOM     46  N   UNL     1     -12.882   2.667  10.484  1.00  0.00    -0.342 N 
ATOM     47  C   UNL     1     -13.850   1.807  10.029  1.00  0.00     0.247 C 
ATOM     48  O   UNL     1     -13.846   0.602  10.281  1.00  0.00    -0.273 OA
ATOM     49  H   UNL     1     -12.954   3.666  10.301  1.00  0.00     0.164 HD
BRANCH  47  50
ATOM     50  C   UNL     1     -14.933   2.453   9.154  1.00  0.00     0.212 CG0
ATOM     51  G   UNL     1     -14.551   2.209   7.680  1.00  0.00     0.000 G0
BRANCH  50  52
ATOM     52  N   UNL     1     -16.184   1.805   9.540  1.00  0.00    -0.339 N 
ATOM     53  C   UNL     1     -17.099   2.375  10.391  1.00  0.00     0.243 C 
ATOM     54  O   UNL     1     -16.909   3.458  10.938  1.00  0.00    -0.273 OA
ATOM     55  H   UNL     1     -16.348   0.857   9.207  1.00  0.00     0.164 HD
BRANCH  53  56
ATOM     56  C   UNL     1     -18.301   1.467  10.720  1.00  0.00     0.182 C 
BRANCH  56  57
ATOM     57  N   UNL     1     -17.863   0.233  11.380  1.00  0.00    -0.344 N 
ATOM     58  C   UNL     1     -17.662   0.155  12.736  1.00  0.00     0.220 C 
ATOM     59  O   UNL     1     -17.761   1.126  13.479  1.00  0.00    -0.275 OA
ATOM     60  H   UNL     1     -17.868  -0.615  10.819  1.00  0.00     0.164 HD
BRANCH  58  61
ATOM     61  C   UNL     1     -17.268  -1.233  13.207  1.00  0.00     0.100 C 
BRANCH  61  62
ATOM     62  C   UNL     1     -18.122  -1.757  14.362  1.00  0.00     0.010 C 
BRANCH  62  63
ATOM     63  C   UNL     1     -19.084  -2.886  13.970  1.00  0.00     0.000 C 
BRANCH  63  64
ATOM     64  C   UNL     1     -19.823  -2.651  12.653  1.00  0.00    -0.003 C 
ATOM     65  C   UNL     1     -20.970  -1.666  12.829  1.00  0.00     0.004 C 
ENDBRANCH  63  64
ENDBRANCH  62  63
ENDBRANCH  61  62
ENDBRANCH  58  61
ENDBRANCH  56  57
BRANCH  56  66
ATOM     66  C   UNL     1     -19.149   1.189   9.480  1.00  0.00     0.157 C 
BRANCH  66  67
ATOM     67  C   UNL     1     -19.123  -0.268   9.119  1.00  0.00     0.305 C 
ATOM     68  O   UNL     1     -19.899  -1.131   9.500  1.00  0.00    -0.252 OA
BRANCH  67  69
ATOM     69  O   UNL     1     -18.141  -0.562   8.245  1.00  0.00    -0.481 OA
ATOM     70  H   UNL     1     -17.310  -0.377   8.732  1.00  0.00     0.296 HD
ENDBRANCH  67  69
ENDBRANCH  66  67
ENDBRANCH  56  66
ENDBRANCH  53  56
ENDBRANCH  50  52
ENDBRANCH  47  50
ENDBRANCH  45  46
BRANCH  45  71
ATOM     71  C   UNL     1     -11.153   3.314  12.131  1.00  0.00     0.037 C 
BRANCH  71  72
ATOM     72  C   UNL     1     -12.246   4.008  12.948  1.00  0.00     0.026 C 
BRANCH  72  73
ATOM     73  C   UNL     1     -12.608   5.369  12.357  1.00  0.00     0.146 C 
BRANCH  73  74
ATOM     74  N   UNL     1     -13.769   5.186  11.490  1.00  0.00    -0.254 NA
ATOM     75  C   UNL     1     -14.256   6.223  10.915  1.00  0.00     0.185 C 
ATOM     76  N   UNL     1     -15.323   6.086  10.111  1.00  0.00    -0.370 N 
ATOM     77  N   UNL     1     -13.848   7.501  10.990  1.00  0.00    -0.370 N 
ATOM     78  H   UNL     1     -15.699   5.155  10.005  1.00  0.00     0.159 HD
ATOM     79  H   UNL     1     -15.844   6.864   9.745  1.00  0.00     0.159 HD
ATOM     80  H   UNL     1     -13.052   7.754  11.557  1.00  0.00     0.159 HD
ATOM     81  H   UNL     1     -14.240   8.217  10.400  1.00  0.00     0.159 HD
ENDBRANCH  73  74
ENDBRANCH  72  73
ENDBRANCH  71  72
ENDBRANCH  45  71
ENDBRANCH   3  45
TORSDOF 20
ENDMDL
MODEL 25
REMARK VINA RESULT:    -6.933      3.799     10.980
REMARK INTER + INTRA:         -24.648
REMARK INTER:                 -19.899
REMARK INTRA:                  -4.748
REMARK UNBOUND:                -4.745
REMARK SMILES CCCCCC(=O)N[C@H](CC(=O)O)C(=O)N[C@H]1C(=O)N[C@H](CCCN=C(N)N)C(=O)N[C@@H]2CC[C@H](O)N(C2=O)[C@@H](CC(C)C)C(=O)N(C)[C@@H](Cc2ccccc2)C(=O)N[C@H](C(C)C)C(=O)O[C@@H]1C
REMARK SMILES IDX 30 1 31 2 29 3 32 5 35 6 37 7 34 8 38 9 33 10 39 11 36 12
REMARK SMILES IDX 40 14 41 15 42 16 43 17 44 18 45 19 46 20 47 21 48 22 49 23
REMARK SMILES IDX 50 24 51 25 52 26 56 27 53 28 55 29 54 30 57 31 58 32 59 33
REMARK SMILES IDX 60 35 61 36 62 37 63 38 64 39 65 40 66 41 67 42 68 43 21 45
REMARK SMILES IDX 20 46 18 47 19 48 17 50 16 52 14 53 15 54 9 56 8 57 6 58
REMARK SMILES IDX 7 59 5 61 4 62 3 63 2 64 1 65 10 66 11 67 12 68 13 69 22 71
REMARK SMILES IDX 23 72 24 73 25 74 26 75 27 76 28 77
REMARK H PARENT 31 4 36 13 59 34 20 49 16 55 8 60 13 70 27 78 27 79 28 80
REMARK H PARENT 28 81
REMARK Flexibility Score:  259.900
ROOT
ATOM      1  O   UNL     1      -8.127   1.013   9.705  1.00  0.00    -0.273 OA
ATOM      2  N   UNL     1      -8.800   1.896   7.706  1.00  0.00    -0.343 N 
ATOM      3  C   UNL     1      -8.986   1.121   8.830  1.00  0.00     0.243 C 
ATOM      4  H   UNL     1      -9.535   1.973   7.014  1.00  0.00     0.164 HD
ENDROOT
BRANCH   2   5
ATOM      5  C   UNL     1      -7.514   2.534   7.449  1.00  0.00     0.171 C 
ATOM      6  C   UNL     1      -6.787   5.160   6.457  1.00  0.00     0.214 C 
ATOM      7  N   UNL     1      -6.959   4.071   5.524  1.00  0.00    -0.303 N 
ATOM      8  C   UNL     1      -6.308   4.708   7.828  1.00  0.00     0.057 C 
ATOM      9  C   UNL     1      -7.355   2.805   5.925  1.00  0.00     0.247 C 
ATOM     10  C   UNL     1      -7.281   3.703   8.405  1.00  0.00     0.040 C 
ATOM     11  O   UNL     1      -7.584   1.901   5.111  1.00  0.00    -0.272 OA
BRANCH   6  12
ATOM     12  O   UNL     1      -8.020   5.834   6.564  1.00  0.00    -0.373 OA
ATOM     13  H   UNL     1      -8.082   6.442   5.797  1.00  0.00     0.213 HD
ENDBRANCH   6  12
BRANCH   7  14
ATOM     14  C   UNL     1      -6.838   4.394   4.087  1.00  0.00     0.177 C 
BRANCH  14  15
ATOM     15  C   UNL     1      -5.492   4.014   3.440  1.00  0.00     0.038 C 
BRANCH  15  16
ATOM     16  C   UNL     1      -4.645   5.106   2.750  1.00  0.00    -0.015 C 
ATOM     17  C   UNL     1      -3.280   4.583   2.290  1.00  0.00     0.007 C 
ATOM     18  C   UNL     1      -4.411   6.271   3.719  1.00  0.00     0.007 C 
ENDBRANCH  15  16
ENDBRANCH  14  15
BRANCH  14  19
ATOM     19  C   UNL     1      -8.239   4.299   3.389  1.00  0.00     0.245 C 
ATOM     20  O   UNL     1      -8.411   3.349   2.607  1.00  0.00    -0.272 OA
BRANCH  19  21
ATOM     21  N   UNL     1      -9.227   5.260   3.509  1.00  0.00    -0.332 N 
ATOM     22  C   UNL     1      -9.054   6.682   3.269  1.00  0.00     0.147 C 
BRANCH  21  23
ATOM     23  C   UNL     1     -10.584   4.813   3.931  1.00  0.00     0.178 C 
BRANCH  23  24
ATOM     24  C   UNL     1     -10.621   3.444   4.639  1.00  0.00     0.070 C 
BRANCH  24  25
ATOM     25  C   UNL     1     -11.796   2.543   4.333  1.00  0.00    -0.045 A 
ATOM     26  C   UNL     1     -11.597   1.243   3.852  1.00  0.00     0.004 A 
ATOM     27  C   UNL     1     -13.108   3.003   4.524  1.00  0.00     0.004 A 
ATOM     28  C   UNL     1     -12.688   0.423   3.556  1.00  0.00     0.000 A 
ATOM     29  C   UNL     1     -14.197   2.182   4.228  1.00  0.00     0.000 A 
ATOM     30  C   UNL     1     -13.986   0.893   3.742  1.00  0.00     0.000 A 
ENDBRANCH  24  25
ENDBRANCH  23  24
BRANCH  23  31
ATOM     31  C   UNL     1     -11.397   5.930   4.629  1.00  0.00     0.243 C 
ATOM     32  O   UNL     1     -12.061   6.772   4.030  1.00  0.00    -0.273 OA
ATOM     33  N   UNL     1     -11.164   6.015   5.991  1.00  0.00    -0.341 N 
ATOM     34  H   UNL     1     -10.597   5.286   6.433  1.00  0.00     0.164 HD
BRANCH  33  35
ATOM     35  C   UNL     1     -11.733   7.069   6.834  1.00  0.00     0.194 C 
BRANCH  35  36
ATOM     36  C   UNL     1     -10.757   8.244   7.127  1.00  0.00     0.017 C 
ATOM     37  C   UNL     1     -11.513   9.487   7.628  1.00  0.00     0.010 C 
ATOM     38  C   UNL     1      -9.937   8.668   5.903  1.00  0.00     0.010 C 
ENDBRANCH  35  36
BRANCH  35  39
ATOM     39  C   UNL     1     -12.377   6.512   8.135  1.00  0.00     0.329 C 
ATOM     40  O   UNL     1     -13.031   7.189   8.921  1.00  0.00    -0.250 OA
BRANCH  39  41
ATOM     41  O   UNL     1     -12.208   5.161   8.262  1.00  0.00    -0.458 OA
BRANCH  41  42
ATOM     42  C   UNL     1     -12.061   4.657   9.611  1.00  0.00     0.205 CG0
ATOM     43  C   UNL     1     -10.565   4.582   9.907  1.00  0.00     0.056 C 
ATOM     44  G   UNL     1     -12.750   3.281   9.699  1.00  0.00     0.000 G0
ENDBRANCH  41  42
ENDBRANCH  39  41
ENDBRANCH  35  39
ENDBRANCH  33  35
ENDBRANCH  23  31
ENDBRANCH  21  23
ENDBRANCH  19  21
ENDBRANCH  14  19
ENDBRANCH   7  14
ENDBRANCH   2   5
BRANCH   3  45
ATOM     45  C   UNL     1     -10.347   0.418   8.926  1.00  0.00     0.171 C 
BRANCH  45  46
ATOM     46  N   UNL     1     -11.240   1.373   9.568  1.00  0.00    -0.342 N 
ATOM     47  C   UNL     1     -11.992   2.273   8.855  1.00  0.00     0.247 C 
ATOM     48  O   UNL     1     -12.023   2.290   7.624  1.00  0.00    -0.273 OA
ATOM     49  H   UNL     1     -11.287   1.355  10.585  1.00  0.00     0.164 HD
BRANCH  47  50
ATOM     50  C   UNL     1     -12.776   3.282   9.705  1.00  0.00     0.212 CG0
ATOM     51  G   UNL     1     -12.042   4.635   9.620  1.00  0.00     0.000 G0
BRANCH  50  52
ATOM     52  N   UNL     1     -14.118   3.317   9.130  1.00  0.00    -0.339 N 
ATOM     53  C   UNL     1     -15.256   3.049   9.850  1.00  0.00     0.243 C 
ATOM     54  O   UNL     1     -15.229   2.706  11.029  1.00  0.00    -0.273 OA
ATOM     55  H   UNL     1     -14.199   3.486   8.129  1.00  0.00     0.164 HD
BRANCH  53  56
ATOM     56  C   UNL     1     -16.549   3.061   9.009  1.00  0.00     0.182 C 
BRANCH  56  57
ATOM     57  N   UNL     1     -17.233   4.354   9.114  1.00  0.00    -0.344 N 
ATOM     58  C   UNL     1     -16.784   5.480   8.469  1.00  0.00     0.220 C 
ATOM     59  O   UNL     1     -15.743   5.502   7.821  1.00  0.00    -0.275 OA
ATOM     60  H   UNL     1     -18.149   4.355   9.555  1.00  0.00     0.164 HD
BRANCH  58  61
ATOM     61  C   UNL     1     -17.679   6.688   8.672  1.00  0.00     0.100 C 
BRANCH  61  62
ATOM     62  C   UNL     1     -17.460   7.798   7.644  1.00  0.00     0.010 C 
BRANCH  62  63
ATOM     63  C   UNL     1     -18.081   9.145   8.033  1.00  0.00     0.000 C 
BRANCH  63  64
ATOM     64  C   UNL     1     -17.297  10.361   7.542  1.00  0.00    -0.003 C 
ATOM     65  C   UNL     1     -16.187   9.957   6.583  1.00  0.00     0.004 C 
ENDBRANCH  63  64
ENDBRANCH  62  63
ENDBRANCH  61  62
ENDBRANCH  58  61
ENDBRANCH  56  57
BRANCH  56  66
ATOM     66  C   UNL     1     -17.464   1.893   9.371  1.00  0.00     0.157 C 
BRANCH  66  67
ATOM     67  C   UNL     1     -17.731   1.021   8.177  1.00  0.00     0.305 C 
ATOM     68  O   UNL     1     -17.172  -0.028   7.897  1.00  0.00    -0.252 OA
BRANCH  67  69
ATOM     69  O   UNL     1     -18.735   1.492   7.414  1.00  0.00    -0.481 OA
ATOM     70  H   UNL     1     -18.906   0.782   6.760  1.00  0.00     0.296 HD
ENDBRANCH  67  69
ENDBRANCH  66  67
ENDBRANCH  56  66
ENDBRANCH  53  56
ENDBRANCH  50  52
ENDBRANCH  47  50
ENDBRANCH  45  46
BRANCH  45  71
ATOM     71  C   UNL     1     -10.224  -0.876   9.739  1.00  0.00     0.037 C 
BRANCH  71  72
ATOM     72  C   UNL     1     -11.394  -1.830   9.484  1.00  0.00     0.026 C 
BRANCH  72  73
ATOM     73  C   UNL     1     -12.220  -1.393   8.276  1.00  0.00     0.146 C 
BRANCH  73  74
ATOM     74  N   UNL     1     -12.144  -2.453   7.276  1.00  0.00    -0.254 NA
ATOM     75  C   UNL     1     -11.344  -2.288   6.288  1.00  0.00     0.185 C 
ATOM     76  N   UNL     1     -11.251  -3.246   5.352  1.00  0.00    -0.370 N 
ATOM     77  N   UNL     1     -10.534  -1.249   6.021  1.00  0.00    -0.370 N 
ATOM     78  H   UNL     1     -11.835  -4.062   5.472  1.00  0.00     0.159 HD
ATOM     79  H   UNL     1     -10.761  -3.126   4.483  1.00  0.00     0.159 HD
ATOM     80  H   UNL     1     -10.495  -0.455   6.643  1.00  0.00     0.159 HD
ATOM     81  H   UNL     1      -9.861  -1.281   5.273  1.00  0.00     0.159 HD
ENDBRANCH  73  74
ENDBRANCH  72  73
ENDBRANCH  71  72
ENDBRANCH  45  71
ENDBRANCH   3  45
TORSDOF 20
ENDMDL
MODEL 26
REMARK VINA RESULT:    -6.922      3.939     10.518
REMARK INTER + INTRA:         -24.615
REMARK INTER:                 -20.159
REMARK INTRA:                  -4.457
REMARK UNBOUND:                -4.745
REMARK SMILES CCCCCC(=O)N[C@H](CC(=O)O)C(=O)N[C@H]1C(=O)N[C@H](CCCN=C(N)N)C(=O)N[C@@H]2CC[C@H](O)N(C2=O)[C@@H](CC(C)C)C(=O)N(C)[C@@H](Cc2ccccc2)C(=O)N[C@H](C(C)C)C(=O)O[C@@H]1C
REMARK SMILES IDX 30 1 31 2 29 3 32 5 35 6 37 7 34 8 38 9 33 10 39 11 36 12
REMARK SMILES IDX 40 14 41 15 42 16 43 17 44 18 45 19 46 20 47 21 48 22 49 23
REMARK SMILES IDX 50 24 51 25 52 26 56 27 53 28 55 29 54 30 57 31 58 32 59 33
REMARK SMILES IDX 60 35 61 36 62 37 63 38 64 39 65 40 66 41 67 42 68 43 21 45
REMARK SMILES IDX 20 46 18 47 19 48 17 50 16 52 14 53 15 54 9 56 8 57 6 58
REMARK SMILES IDX 7 59 5 61 4 62 3 63 2 64 1 65 10 66 11 67 12 68 13 69 22 71
REMARK SMILES IDX 23 72 24 73 25 74 26 75 27 76 28 77
REMARK H PARENT 31 4 36 13 59 34 20 49 16 55 8 60 13 70 27 78 27 79 28 80
REMARK H PARENT 28 81
REMARK Flexibility Score:  259.900
ROOT
ATOM      1  O   UNL     1      -9.601   4.586   7.604  1.00  0.00    -0.273 OA
ATOM      2  N   UNL     1      -8.612   2.810   8.651  1.00  0.00    -0.343 N 
ATOM      3  C   UNL     1      -9.669   3.663   8.415  1.00  0.00     0.243 C 
ATOM      4  H   UNL     1      -8.709   2.052   9.315  1.00  0.00     0.164 HD
ENDROOT
BRANCH   2   5
ATOM      5  C   UNL     1      -7.315   3.046   8.027  1.00  0.00     0.171 C 
ATOM      6  C   UNL     1      -6.441   4.847   5.930  1.00  0.00     0.214 C 
ATOM      7  N   UNL     1      -6.888   3.517   5.584  1.00  0.00    -0.303 N 
ATOM      8  C   UNL     1      -5.811   4.930   7.311  1.00  0.00     0.057 C 
ATOM      9  C   UNL     1      -7.365   2.625   6.530  1.00  0.00     0.247 C 
ATOM     10  C   UNL     1      -6.795   4.445   8.354  1.00  0.00     0.040 C 
ATOM     11  O   UNL     1      -7.826   1.520   6.216  1.00  0.00    -0.272 OA
BRANCH   6  12
ATOM     12  O   UNL     1      -7.552   5.710   5.843  1.00  0.00    -0.373 OA
ATOM     13  H   UNL     1      -8.336   5.151   5.658  1.00  0.00     0.213 HD
ENDBRANCH   6  12
BRANCH   7  14
ATOM     14  C   UNL     1      -6.956   3.186   4.145  1.00  0.00     0.177 C 
BRANCH  14  15
ATOM     15  C   UNL     1      -6.477   1.769   3.775  1.00  0.00     0.038 C 
BRANCH  15  16
ATOM     16  C   UNL     1      -5.065   1.574   3.180  1.00  0.00    -0.015 C 
ATOM     17  C   UNL     1      -4.328   2.902   2.978  1.00  0.00     0.007 C 
ATOM     18  C   UNL     1      -5.167   0.870   1.821  1.00  0.00     0.007 C 
ENDBRANCH  15  16
ENDBRANCH  14  15
BRANCH  14  19
ATOM     19  C   UNL     1      -8.148   3.947   3.468  1.00  0.00     0.245 C 
ATOM     20  O   UNL     1      -7.931   5.114   3.101  1.00  0.00    -0.272 OA
BRANCH  19  21
ATOM     21  N   UNL     1      -9.429   3.436   3.365  1.00  0.00    -0.332 N 
ATOM     22  C   UNL     1      -9.846   2.383   2.456  1.00  0.00     0.147 C 
BRANCH  21  23
ATOM     23  C   UNL     1     -10.482   4.012   4.247  1.00  0.00     0.178 C 
BRANCH  23  24
ATOM     24  C   UNL     1     -11.185   5.263   3.681  1.00  0.00     0.070 C 
BRANCH  24  25
ATOM     25  C   UNL     1     -11.119   6.524   4.510  1.00  0.00    -0.045 A 
ATOM     26  C   UNL     1     -11.962   6.700   5.616  1.00  0.00     0.004 A 
ATOM     27  C   UNL     1     -10.213   7.542   4.180  1.00  0.00     0.004 A 
ATOM     28  C   UNL     1     -11.907   7.876   6.367  1.00  0.00     0.000 A 
ATOM     29  C   UNL     1     -10.158   8.716   4.933  1.00  0.00     0.000 A 
ATOM     30  C   UNL     1     -11.008   8.883   6.024  1.00  0.00     0.000 A 
ENDBRANCH  24  25
ENDBRANCH  23  24
BRANCH  23  31
ATOM     31  C   UNL     1     -11.431   2.941   4.834  1.00  0.00     0.243 C 
ATOM     32  O   UNL     1     -12.614   3.142   5.099  1.00  0.00    -0.273 OA
ATOM     33  N   UNL     1     -10.785   1.776   5.212  1.00  0.00    -0.341 N 
ATOM     34  H   UNL     1      -9.797   1.669   4.969  1.00  0.00     0.164 HD
BRANCH  33  35
ATOM     35  C   UNL     1     -11.463   0.673   5.898  1.00  0.00     0.194 C 
BRANCH  35  36
ATOM     36  C   UNL     1     -10.505  -0.437   6.417  1.00  0.00     0.017 C 
ATOM     37  C   UNL     1     -11.213  -1.801   6.482  1.00  0.00     0.010 C 
ATOM     38  C   UNL     1      -9.942  -0.145   7.813  1.00  0.00     0.010 C 
ENDBRANCH  35  36
BRANCH  35  39
ATOM     39  C   UNL     1     -12.637   0.084   5.067  1.00  0.00     0.329 C 
ATOM     40  O   UNL     1     -12.491  -0.581   4.048  1.00  0.00    -0.250 OA
BRANCH  39  41
ATOM     41  O   UNL     1     -13.853   0.316   5.648  1.00  0.00    -0.458 OA
BRANCH  41  42
ATOM     42  C   UNL     1     -13.849   0.531   7.080  1.00  0.00     0.205 CG0
ATOM     43  C   UNL     1     -14.968  -0.324   7.671  1.00  0.00     0.056 C 
ATOM     44  G   UNL     1     -14.049   2.035   7.352  1.00  0.00     0.000 G0
ENDBRANCH  41  42
ENDBRANCH  39  41
ENDBRANCH  35  39
ENDBRANCH  33  35
ENDBRANCH  23  31
ENDBRANCH  21  23
ENDBRANCH  19  21
ENDBRANCH  14  19
ENDBRANCH   7  14
ENDBRANCH   2   5
BRANCH   3  45
ATOM     45  C   UNL     1     -10.943   3.367   9.217  1.00  0.00     0.171 C 
BRANCH  45  46
ATOM     46  N   UNL     1     -11.965   3.047   8.229  1.00  0.00    -0.342 N 
ATOM     47  C   UNL     1     -13.136   2.411   8.560  1.00  0.00     0.247 C 
ATOM     48  O   UNL     1     -13.440   2.132   9.721  1.00  0.00    -0.273 OA
ATOM     49  H   UNL     1     -11.779   3.311   7.264  1.00  0.00     0.164 HD
BRANCH  47  50
ATOM     50  C   UNL     1     -14.035   2.045   7.371  1.00  0.00     0.212 CG0
ATOM     51  G   UNL     1     -13.839   0.543   7.083  1.00  0.00     0.000 G0
BRANCH  50  52
ATOM     52  N   UNL     1     -15.393   2.380   7.792  1.00  0.00    -0.339 N 
ATOM     53  C   UNL     1     -16.343   2.890   6.942  1.00  0.00     0.243 C 
ATOM     54  O   UNL     1     -16.106   3.156   5.767  1.00  0.00    -0.273 OA
ATOM     55  H   UNL     1     -15.618   2.287   8.781  1.00  0.00     0.164 HD
BRANCH  53  56
ATOM     56  C   UNL     1     -17.676   3.247   7.632  1.00  0.00     0.182 C 
BRANCH  56  57
ATOM     57  N   UNL     1     -17.844   4.700   7.731  1.00  0.00    -0.344 N 
ATOM     58  C   UNL     1     -16.972   5.496   8.433  1.00  0.00     0.220 C 
ATOM     59  O   UNL     1     -16.036   5.042   9.083  1.00  0.00    -0.275 OA
ATOM     60  H   UNL     1     -18.543   5.125   7.128  1.00  0.00     0.164 HD
BRANCH  58  61
ATOM     61  C   UNL     1     -17.307   6.974   8.351  1.00  0.00     0.100 C 
BRANCH  61  62
ATOM     62  C   UNL     1     -16.115   7.857   7.981  1.00  0.00     0.010 C 
BRANCH  62  63
ATOM     63  C   UNL     1     -16.481   9.083   7.135  1.00  0.00     0.000 C 
BRANCH  63  64
ATOM     64  C   UNL     1     -15.292   9.968   6.767  1.00  0.00    -0.003 C 
ATOM     65  C   UNL     1     -14.960   9.864   5.286  1.00  0.00     0.004 C 
ENDBRANCH  63  64
ENDBRANCH  62  63
ENDBRANCH  61  62
ENDBRANCH  58  61
ENDBRANCH  56  57
BRANCH  56  66
ATOM     66  C   UNL     1     -17.806   2.557   8.988  1.00  0.00     0.157 C 
BRANCH  66  67
ATOM     67  C   UNL     1     -18.628   1.304   8.884  1.00  0.00     0.305 C 
ATOM     68  O   UNL     1     -18.532   0.434   8.032  1.00  0.00    -0.252 OA
BRANCH  67  69
ATOM     69  O   UNL     1     -19.504   1.181   9.899  1.00  0.00    -0.481 OA
ATOM     70  H   UNL     1     -19.298   0.312  10.304  1.00  0.00     0.296 HD
ENDBRANCH  67  69
ENDBRANCH  66  67
ENDBRANCH  56  66
ENDBRANCH  53  56
ENDBRANCH  50  52
ENDBRANCH  47  50
ENDBRANCH  45  46
BRANCH  45  71
ATOM     71  C   UNL     1     -11.336   4.584  10.063  1.00  0.00     0.037 C 
BRANCH  71  72
ATOM     72  C   UNL     1     -11.116   4.340  11.558  1.00  0.00     0.026 C 
BRANCH  72  73
ATOM     73  C   UNL     1     -12.413   3.935  12.256  1.00  0.00     0.146 C 
BRANCH  73  74
ATOM     74  N   UNL     1     -13.491   4.751  11.705  1.00  0.00    -0.254 NA
ATOM     75  C   UNL     1     -14.497   5.003  12.458  1.00  0.00     0.185 C 
ATOM     76  N   UNL     1     -15.504   5.752  11.980  1.00  0.00    -0.370 N 
ATOM     77  N   UNL     1     -14.720   4.618  13.727  1.00  0.00    -0.370 N 
ATOM     78  H   UNL     1     -15.419   6.078  11.027  1.00  0.00     0.159 HD
ATOM     79  H   UNL     1     -16.381   5.869  12.455  1.00  0.00     0.159 HD
ATOM     80  H   UNL     1     -14.044   4.052  14.218  1.00  0.00     0.159 HD
ATOM     81  H   UNL     1     -15.496   4.975  14.259  1.00  0.00     0.159 HD
ENDBRANCH  73  74
ENDBRANCH  72  73
ENDBRANCH  71  72
ENDBRANCH  45  71
ENDBRANCH   3  45
TORSDOF 20
ENDMDL
MODEL 27
REMARK VINA RESULT:    -6.915      4.155      8.099
REMARK INTER + INTRA:         -24.597
REMARK INTER:                 -19.693
REMARK INTRA:                  -4.904
REMARK UNBOUND:                -4.745
REMARK SMILES CCCCCC(=O)N[C@H](CC(=O)O)C(=O)N[C@H]1C(=O)N[C@H](CCCN=C(N)N)C(=O)N[C@@H]2CC[C@H](O)N(C2=O)[C@@H](CC(C)C)C(=O)N(C)[C@@H](Cc2ccccc2)C(=O)N[C@H](C(C)C)C(=O)O[C@@H]1C
REMARK SMILES IDX 30 1 31 2 29 3 32 5 35 6 37 7 34 8 38 9 33 10 39 11 36 12
REMARK SMILES IDX 40 14 41 15 42 16 43 17 44 18 45 19 46 20 47 21 48 22 49 23
REMARK SMILES IDX 50 24 51 25 52 26 56 27 53 28 55 29 54 30 57 31 58 32 59 33
REMARK SMILES IDX 60 35 61 36 62 37 63 38 64 39 65 40 66 41 67 42 68 43 21 45
REMARK SMILES IDX 20 46 18 47 19 48 17 50 16 52 14 53 15 54 9 56 8 57 6 58
REMARK SMILES IDX 7 59 5 61 4 62 3 63 2 64 1 65 10 66 11 67 12 68 13 69 22 71
REMARK SMILES IDX 23 72 24 73 25 74 26 75 27 76 28 77
REMARK H PARENT 31 4 36 13 59 34 20 49 16 55 8 60 13 70 27 78 27 79 28 80
REMARK H PARENT 28 81
REMARK Flexibility Score:  259.900
ROOT
ATOM      1  O   UNL     1     -14.127   0.147   3.007  1.00  0.00    -0.273 OA
ATOM      2  N   UNL     1     -14.170   0.713   5.222  1.00  0.00    -0.343 N 
ATOM      3  C   UNL     1     -13.538   0.267   4.082  1.00  0.00     0.243 C 
ATOM      4  H   UNL     1     -13.651   0.813   6.086  1.00  0.00     0.164 HD
ENDROOT
BRANCH   2   5
ATOM      5  C   UNL     1     -15.609   0.953   5.228  1.00  0.00     0.171 C 
ATOM      6  C   UNL     1     -17.260   2.969   6.499  1.00  0.00     0.214 C 
ATOM      7  N   UNL     1     -16.994   1.730   7.191  1.00  0.00    -0.303 N 
ATOM      8  C   UNL     1     -17.273   2.823   4.986  1.00  0.00     0.057 C 
ATOM      9  C   UNL     1     -16.173   0.746   6.663  1.00  0.00     0.247 C 
ATOM     10  C   UNL     1     -15.950   2.260   4.514  1.00  0.00     0.040 C 
ATOM     11  O   UNL     1     -15.880  -0.275   7.299  1.00  0.00    -0.272 OA
BRANCH   6  12
ATOM     12  O   UNL     1     -16.281   3.902   6.895  1.00  0.00    -0.373 OA
ATOM     13  H   UNL     1     -15.654   3.429   7.483  1.00  0.00     0.213 HD
ENDBRANCH   6  12
BRANCH   7  14
ATOM     14  C   UNL     1     -17.518   1.604   8.568  1.00  0.00     0.177 C 
BRANCH  14  15
ATOM     15  C   UNL     1     -18.712   0.644   8.730  1.00  0.00     0.038 C 
BRANCH  15  16
ATOM     16  C   UNL     1     -19.670   0.818   9.929  1.00  0.00    -0.015 C 
ATOM     17  C   UNL     1     -20.249  -0.515  10.412  1.00  0.00     0.007 C 
ATOM     18  C   UNL     1     -20.837   1.732   9.532  1.00  0.00     0.007 C 
ENDBRANCH  15  16
ENDBRANCH  14  15
BRANCH  14  19
ATOM     19  C   UNL     1     -16.362   1.799   9.609  1.00  0.00     0.245 C 
ATOM     20  O   UNL     1     -16.039   0.803  10.278  1.00  0.00    -0.272 OA
BRANCH  19  21
ATOM     21  N   UNL     1     -15.778   3.020   9.892  1.00  0.00    -0.332 N 
ATOM     22  C   UNL     1     -16.482   4.285  10.010  1.00  0.00     0.147 C 
BRANCH  21  23
ATOM     23  C   UNL     1     -14.301   3.058  10.085  1.00  0.00     0.178 C 
BRANCH  23  24
ATOM     24  C   UNL     1     -13.798   2.347  11.358  1.00  0.00     0.070 C 
BRANCH  24  25
ATOM     25  C   UNL     1     -13.535   3.212  12.569  1.00  0.00    -0.045 A 
ATOM     26  C   UNL     1     -14.238   3.008  13.763  1.00  0.00     0.004 A 
ATOM     27  C   UNL     1     -12.580   4.238  12.512  1.00  0.00     0.004 A 
ATOM     28  C   UNL     1     -14.001   3.822  14.873  1.00  0.00     0.000 A 
ATOM     29  C   UNL     1     -12.343   5.050  13.622  1.00  0.00     0.000 A 
ATOM     30  C   UNL     1     -13.056   4.843  14.801  1.00  0.00     0.000 A 
ENDBRANCH  24  25
ENDBRANCH  23  24
BRANCH  23  31
ATOM     31  C   UNL     1     -13.516   2.717   8.796  1.00  0.00     0.243 C 
ATOM     32  O   UNL     1     -13.659   1.677   8.159  1.00  0.00    -0.273 OA
ATOM     33  N   UNL     1     -12.495   3.611   8.518  1.00  0.00    -0.341 N 
ATOM     34  H   UNL     1     -12.423   4.457   9.088  1.00  0.00     0.164 HD
BRANCH  33  35
ATOM     35  C   UNL     1     -11.548   3.423   7.416  1.00  0.00     0.194 C 
BRANCH  35  36
ATOM     36  C   UNL     1     -10.056   3.575   7.828  1.00  0.00     0.017 C 
ATOM     37  C   UNL     1      -9.781   2.908   9.188  1.00  0.00     0.010 C 
ATOM     38  C   UNL     1      -9.604   5.036   7.934  1.00  0.00     0.010 C 
ENDBRANCH  35  36
BRANCH  35  39
ATOM     39  C   UNL     1     -11.897   4.290   6.173  1.00  0.00     0.329 C 
ATOM     40  O   UNL     1     -12.300   5.445   6.234  1.00  0.00    -0.250 OA
BRANCH  39  41
ATOM     41  O   UNL     1     -11.621   3.647   4.998  1.00  0.00    -0.458 OA
BRANCH  41  42
ATOM     42  C   UNL     1     -10.481   4.136   4.252  1.00  0.00     0.205 CG0
ATOM     43  C   UNL     1     -11.014   5.060   3.160  1.00  0.00     0.056 C 
ATOM     44  G   UNL     1      -9.713   2.928   3.680  1.00  0.00     0.000 G0
ENDBRANCH  41  42
ENDBRANCH  39  41
ENDBRANCH  35  39
ENDBRANCH  33  35
ENDBRANCH  23  31
ENDBRANCH  21  23
ENDBRANCH  19  21
ENDBRANCH  14  19
ENDBRANCH   7  14
ENDBRANCH   2   5
BRANCH   3  45
ATOM     45  C   UNL     1     -12.045  -0.052   4.240  1.00  0.00     0.171 C 
BRANCH  45  46
ATOM     46  N   UNL     1     -11.338   1.104   3.704  1.00  0.00    -0.342 N 
ATOM     47  C   UNL     1     -10.225   1.632   4.310  1.00  0.00     0.247 C 
ATOM     48  O   UNL     1      -9.703   1.127   5.304  1.00  0.00    -0.273 OA
ATOM     49  H   UNL     1     -11.704   1.519   2.849  1.00  0.00     0.164 HD
BRANCH  47  50
ATOM     50  C   UNL     1      -9.689   2.921   3.673  1.00  0.00     0.212 CG0
ATOM     51  G   UNL     1     -10.491   4.101   4.257  1.00  0.00     0.000 G0
BRANCH  50  52
ATOM     52  N   UNL     1      -8.270   2.964   4.014  1.00  0.00    -0.339 N 
ATOM     53  C   UNL     1      -7.267   2.709   3.110  1.00  0.00     0.243 C 
ATOM     54  O   UNL     1      -7.491   2.372   1.951  1.00  0.00    -0.273 OA
ATOM     55  H   UNL     1      -8.022   3.128   4.988  1.00  0.00     0.164 HD
BRANCH  53  56
ATOM     56  C   UNL     1      -5.851   2.727   3.722  1.00  0.00     0.182 C 
BRANCH  56  57
ATOM     57  N   UNL     1      -5.418   4.099   4.004  1.00  0.00    -0.344 N 
ATOM     58  C   UNL     1      -5.411   4.623   5.274  1.00  0.00     0.220 C 
ATOM     59  O   UNL     1      -5.835   4.008   6.247  1.00  0.00    -0.275 OA
ATOM     60  H   UNL     1      -4.966   4.605   3.247  1.00  0.00     0.164 HD
BRANCH  58  61
ATOM     61  C   UNL     1      -4.869   6.038   5.339  1.00  0.00     0.100 C 
BRANCH  61  62
ATOM     62  C   UNL     1      -5.292   6.915   4.160  1.00  0.00     0.010 C 
BRANCH  62  63
ATOM     63  C   UNL     1      -4.363   6.819   2.942  1.00  0.00     0.000 C 
BRANCH  63  64
ATOM     64  C   UNL     1      -3.803   8.161   2.474  1.00  0.00    -0.003 C 
ATOM     65  C   UNL     1      -2.538   7.977   1.648  1.00  0.00     0.004 C 
ENDBRANCH  63  64
ENDBRANCH  62  63
ENDBRANCH  61  62
ENDBRANCH  58  61
ENDBRANCH  56  57
BRANCH  56  66
ATOM     66  C   UNL     1      -4.852   1.976   2.844  1.00  0.00     0.157 C 
BRANCH  66  67
ATOM     67  C   UNL     1      -5.139   0.502   2.833  1.00  0.00     0.305 C 
ATOM     68  O   UNL     1      -5.113  -0.257   3.789  1.00  0.00    -0.252 OA
BRANCH  67  69
ATOM     69  O   UNL     1      -5.499   0.060   1.613  1.00  0.00    -0.481 OA
ATOM     70  H   UNL     1      -6.101  -0.694   1.787  1.00  0.00     0.296 HD
ENDBRANCH  67  69
ENDBRANCH  66  67
ENDBRANCH  56  66
ENDBRANCH  53  56
ENDBRANCH  50  52
ENDBRANCH  47  50
ENDBRANCH  45  46
BRANCH  45  71
ATOM     71  C   UNL     1     -11.690  -1.335   3.481  1.00  0.00     0.037 C 
BRANCH  71  72
ATOM     72  C   UNL     1     -11.496  -2.526   4.423  1.00  0.00     0.026 C 
BRANCH  72  73
ATOM     73  C   UNL     1     -11.808  -2.152   5.871  1.00  0.00     0.146 C 
BRANCH  73  74
ATOM     74  N   UNL     1     -10.565  -2.237   6.632  1.00  0.00    -0.254 NA
ATOM     75  C   UNL     1     -10.366  -1.369   7.554  1.00  0.00     0.185 C 
ATOM     76  N   UNL     1      -9.233  -1.422   8.272  1.00  0.00    -0.370 N 
ATOM     77  N   UNL     1     -11.157  -0.353   7.942  1.00  0.00    -0.370 N 
ATOM     78  H   UNL     1      -8.578  -2.154   8.039  1.00  0.00     0.159 HD
ATOM     79  H   UNL     1      -8.944  -0.697   8.905  1.00  0.00     0.159 HD
ATOM     80  H   UNL     1     -12.046  -0.193   7.492  1.00  0.00     0.159 HD
ATOM     81  H   UNL     1     -10.948   0.197   8.759  1.00  0.00     0.159 HD
ENDBRANCH  73  74
ENDBRANCH  72  73
ENDBRANCH  71  72
ENDBRANCH  45  71
ENDBRANCH   3  45
TORSDOF 20
ENDMDL
MODEL 28
REMARK VINA RESULT:    -6.858      3.459     11.392
REMARK INTER + INTRA:         -24.433
REMARK INTER:                 -19.036
REMARK INTRA:                  -5.397
REMARK UNBOUND:                -4.745
REMARK SMILES CCCCCC(=O)N[C@H](CC(=O)O)C(=O)N[C@H]1C(=O)N[C@H](CCCN=C(N)N)C(=O)N[C@@H]2CC[C@H](O)N(C2=O)[C@@H](CC(C)C)C(=O)N(C)[C@@H](Cc2ccccc2)C(=O)N[C@H](C(C)C)C(=O)O[C@@H]1C
REMARK SMILES IDX 30 1 31 2 29 3 32 5 35 6 37 7 34 8 38 9 33 10 39 11 36 12
REMARK SMILES IDX 40 14 41 15 42 16 43 17 44 18 45 19 46 20 47 21 48 22 49 23
REMARK SMILES IDX 50 24 51 25 52 26 56 27 53 28 55 29 54 30 57 31 58 32 59 33
REMARK SMILES IDX 60 35 61 36 62 37 63 38 64 39 65 40 66 41 67 42 68 43 21 45
REMARK SMILES IDX 20 46 18 47 19 48 17 50 16 52 14 53 15 54 9 56 8 57 6 58
REMARK SMILES IDX 7 59 5 61 4 62 3 63 2 64 1 65 10 66 11 67 12 68 13 69 22 71
REMARK SMILES IDX 23 72 24 73 25 74 26 75 27 76 28 77
REMARK H PARENT 31 4 36 13 59 34 20 49 16 55 8 60 13 70 27 78 27 79 28 80
REMARK H PARENT 28 81
REMARK Flexibility Score:  259.900
ROOT
ATOM      1  O   UNL     1     -12.176   0.973  10.282  1.00  0.00    -0.273 OA
ATOM      2  N   UNL     1     -10.504   2.504   9.984  1.00  0.00    -0.343 N 
ATOM      3  C   UNL     1     -11.728   2.104  10.474  1.00  0.00     0.243 C 
ATOM      4  H   UNL     1     -10.161   3.438  10.174  1.00  0.00     0.164 HD
ENDROOT
BRANCH   2   5
ATOM      5  C   UNL     1      -9.733   1.630   9.107  1.00  0.00     0.171 C 
ATOM      6  C   UNL     1      -7.234   1.986   7.681  1.00  0.00     0.214 C 
ATOM      7  N   UNL     1      -8.478   2.318   7.028  1.00  0.00    -0.303 N 
ATOM      8  C   UNL     1      -7.371   0.868   8.703  1.00  0.00     0.057 C 
ATOM      9  C   UNL     1      -9.703   2.220   7.668  1.00  0.00     0.247 C 
ATOM     10  C   UNL     1      -8.398   1.250   9.746  1.00  0.00     0.040 C 
ATOM     11  O   UNL     1     -10.755   2.589   7.131  1.00  0.00    -0.272 OA
BRANCH   6  12
ATOM     12  O   UNL     1      -6.743   3.155   8.295  1.00  0.00    -0.373 OA
ATOM     13  H   UNL     1      -6.164   3.602   7.641  1.00  0.00     0.213 HD
ENDBRANCH   6  12
BRANCH   7  14
ATOM     14  C   UNL     1      -8.387   2.915   5.678  1.00  0.00     0.177 C 
BRANCH  14  15
ATOM     15  C   UNL     1      -9.044   2.093   4.552  1.00  0.00     0.038 C 
BRANCH  15  16
ATOM     16  C   UNL     1     -10.164   2.730   3.699  1.00  0.00    -0.015 C 
ATOM     17  C   UNL     1     -11.492   1.977   3.823  1.00  0.00     0.007 C 
ATOM     18  C   UNL     1      -9.751   2.736   2.222  1.00  0.00     0.007 C 
ENDBRANCH  15  16
ENDBRANCH  14  15
BRANCH  14  19
ATOM     19  C   UNL     1      -8.383   4.480   5.775  1.00  0.00     0.245 C 
ATOM     20  O   UNL     1      -8.535   4.971   6.906  1.00  0.00    -0.272 OA
BRANCH  19  21
ATOM     21  N   UNL     1      -8.333   5.320   4.677  1.00  0.00    -0.332 N 
ATOM     22  C   UNL     1      -7.555   5.088   3.473  1.00  0.00     0.147 C 
BRANCH  21  23
ATOM     23  C   UNL     1      -9.130   6.577   4.726  1.00  0.00     0.178 C 
BRANCH  23  24
ATOM     24  C   UNL     1      -8.911   7.527   3.531  1.00  0.00     0.070 C 
BRANCH  24  25
ATOM     25  C   UNL     1      -8.779   9.000   3.838  1.00  0.00    -0.045 A 
ATOM     26  C   UNL     1      -7.682   9.735   3.369  1.00  0.00     0.004 A 
ATOM     27  C   UNL     1      -9.754   9.654   4.606  1.00  0.00     0.004 A 
ATOM     28  C   UNL     1      -7.558  11.093   3.672  1.00  0.00     0.000 A 
ATOM     29  C   UNL     1      -9.629  11.011   4.907  1.00  0.00     0.000 A 
ATOM     30  C   UNL     1      -8.530  11.729   4.442  1.00  0.00     0.000 A 
ENDBRANCH  24  25
ENDBRANCH  23  24
BRANCH  23  31
ATOM     31  C   UNL     1     -10.611   6.338   5.105  1.00  0.00     0.243 C 
ATOM     32  O   UNL     1     -11.457   5.899   4.330  1.00  0.00    -0.273 OA
ATOM     33  N   UNL     1     -10.951   6.838   6.351  1.00  0.00    -0.341 N 
ATOM     34  H   UNL     1     -10.203   7.197   6.950  1.00  0.00     0.164 HD
BRANCH  33  35
ATOM     35  C   UNL     1     -12.322   6.831   6.868  1.00  0.00     0.194 C 
BRANCH  35  36
ATOM     36  C   UNL     1     -12.971   8.240   6.967  1.00  0.00     0.017 C 
ATOM     37  C   UNL     1     -13.429   8.743   5.587  1.00  0.00     0.010 C 
ATOM     38  C   UNL     1     -12.028   9.300   7.551  1.00  0.00     0.010 C 
ENDBRANCH  35  36
BRANCH  35  39
ATOM     39  C   UNL     1     -12.455   6.036   8.197  1.00  0.00     0.329 C 
ATOM     40  O   UNL     1     -11.614   5.248   8.613  1.00  0.00    -0.250 OA
BRANCH  39  41
ATOM     41  O   UNL     1     -13.579   6.378   8.897  1.00  0.00    -0.458 OA
BRANCH  41  42
ATOM     42  C   UNL     1     -14.804   5.710   8.510  1.00  0.00     0.205 CG0
ATOM     43  C   UNL     1     -15.723   6.766   7.900  1.00  0.00     0.056 C 
ATOM     44  G   UNL     1     -15.416   5.046   9.759  1.00  0.00     0.000 G0
ENDBRANCH  41  42
ENDBRANCH  39  41
ENDBRANCH  35  39
ENDBRANCH  33  35
ENDBRANCH  23  31
ENDBRANCH  21  23
ENDBRANCH  19  21
ENDBRANCH  14  19
ENDBRANCH   7  14
ENDBRANCH   2   5
BRANCH   3  45
ATOM     45  C   UNL     1     -12.485   3.158  11.293  1.00  0.00     0.171 C 
BRANCH  45  46
ATOM     46  N   UNL     1     -13.524   3.671  10.411  1.00  0.00    -0.342 N 
ATOM     47  C   UNL     1     -14.336   4.721  10.762  1.00  0.00     0.247 C 
ATOM     48  O   UNL     1     -14.198   5.350  11.811  1.00  0.00    -0.273 OA
ATOM     49  H   UNL     1     -13.635   3.215   9.507  1.00  0.00     0.164 HD
BRANCH  47  50
ATOM     50  C   UNL     1     -15.453   5.041   9.759  1.00  0.00     0.212 CG0
ATOM     51  G   UNL     1     -14.800   5.692   8.523  1.00  0.00     0.000 G0
BRANCH  50  52
ATOM     52  N   UNL     1     -16.094   3.762   9.467  1.00  0.00    -0.339 N 
ATOM     53  C   UNL     1     -16.760   3.017  10.410  1.00  0.00     0.243 C 
ATOM     54  O   UNL     1     -16.823   3.348  11.591  1.00  0.00    -0.273 OA
ATOM     55  H   UNL     1     -15.981   3.379   8.530  1.00  0.00     0.164 HD
BRANCH  53  56
ATOM     56  C   UNL     1     -17.279   1.662   9.888  1.00  0.00     0.182 C 
BRANCH  56  57
ATOM     57  N   UNL     1     -16.431   1.157   8.804  1.00  0.00    -0.344 N 
ATOM     58  C   UNL     1     -15.451   0.218   9.012  1.00  0.00     0.220 C 
ATOM     59  O   UNL     1     -15.166  -0.208  10.126  1.00  0.00    -0.275 OA
ATOM     60  H   UNL     1     -16.700   1.406   7.855  1.00  0.00     0.164 HD
BRANCH  58  61
ATOM     61  C   UNL     1     -14.739  -0.201   7.739  1.00  0.00     0.100 C 
BRANCH  61  62
ATOM     62  C   UNL     1     -15.426   0.282   6.461  1.00  0.00     0.010 C 
BRANCH  62  63
ATOM     63  C   UNL     1     -14.712   1.450   5.768  1.00  0.00     0.000 C 
BRANCH  63  64
ATOM     64  C   UNL     1     -15.445   2.786   5.876  1.00  0.00    -0.003 C 
ATOM     65  C   UNL     1     -16.733   2.780   5.064  1.00  0.00     0.004 C 
ENDBRANCH  63  64
ENDBRANCH  62  63
ENDBRANCH  61  62
ENDBRANCH  58  61
ENDBRANCH  56  57
BRANCH  56  66
ATOM     66  C   UNL     1     -18.749   1.744   9.482  1.00  0.00     0.157 C 
BRANCH  66  67
ATOM     67  C   UNL     1     -19.476   0.472   9.810  1.00  0.00     0.305 C 
ATOM     68  O   UNL     1     -20.441   0.349  10.549  1.00  0.00    -0.252 OA
BRANCH  67  69
ATOM     69  O   UNL     1     -18.979  -0.588   9.145  1.00  0.00    -0.481 OA
ATOM     70  H   UNL     1     -18.152  -0.259   8.732  1.00  0.00     0.296 HD
ENDBRANCH  67  69
ENDBRANCH  66  67
ENDBRANCH  56  66
ENDBRANCH  53  56
ENDBRANCH  50  52
ENDBRANCH  47  50
ENDBRANCH  45  46
BRANCH  45  71
ATOM     71  C   UNL     1     -11.530   4.267  11.748  1.00  0.00     0.037 C 
BRANCH  71  72
ATOM     72  C   UNL     1     -11.176   4.151  13.232  1.00  0.00     0.026 C 
BRANCH  72  73
ATOM     73  C   UNL     1     -12.086   5.023  14.095  1.00  0.00     0.146 C 
BRANCH  73  74
ATOM     74  N   UNL     1     -12.618   4.189  15.169  1.00  0.00    -0.254 NA
ATOM     75  C   UNL     1     -13.890   4.055  15.250  1.00  0.00     0.185 C 
ATOM     76  N   UNL     1     -14.409   3.293  16.226  1.00  0.00    -0.370 N 
ATOM     77  N   UNL     1     -14.847   4.585  14.468  1.00  0.00    -0.370 N 
ATOM     78  H   UNL     1     -13.756   2.862  16.865  1.00  0.00     0.159 HD
ATOM     79  H   UNL     1     -15.390   3.258  16.439  1.00  0.00     0.159 HD
ATOM     80  H   UNL     1     -14.603   5.178  13.689  1.00  0.00     0.159 HD
ATOM     81  H   UNL     1     -15.812   4.315  14.558  1.00  0.00     0.159 HD
ENDBRANCH  73  74
ENDBRANCH  72  73
ENDBRANCH  71  72
ENDBRANCH  45  71
ENDBRANCH   3  45
TORSDOF 20
ENDMDL
MODEL 29
REMARK VINA RESULT:    -6.857      1.781      2.681
REMARK INTER + INTRA:         -24.429
REMARK INTER:                 -19.455
REMARK INTRA:                  -4.973
REMARK UNBOUND:                -4.745
REMARK SMILES CCCCCC(=O)N[C@H](CC(=O)O)C(=O)N[C@H]1C(=O)N[C@H](CCCN=C(N)N)C(=O)N[C@@H]2CC[C@H](O)N(C2=O)[C@@H](CC(C)C)C(=O)N(C)[C@@H](Cc2ccccc2)C(=O)N[C@H](C(C)C)C(=O)O[C@@H]1C
REMARK SMILES IDX 30 1 31 2 29 3 32 5 35 6 37 7 34 8 38 9 33 10 39 11 36 12
REMARK SMILES IDX 40 14 41 15 42 16 43 17 44 18 45 19 46 20 47 21 48 22 49 23
REMARK SMILES IDX 50 24 51 25 52 26 56 27 53 28 55 29 54 30 57 31 58 32 59 33
REMARK SMILES IDX 60 35 61 36 62 37 63 38 64 39 65 40 66 41 67 42 68 43 21 45
REMARK SMILES IDX 20 46 18 47 19 48 17 50 16 52 14 53 15 54 9 56 8 57 6 58
REMARK SMILES IDX 7 59 5 61 4 62 3 63 2 64 1 65 10 66 11 67 12 68 13 69 22 71
REMARK SMILES IDX 23 72 24 73 25 74 26 75 27 76 28 77
REMARK H PARENT 31 4 36 13 59 34 20 49 16 55 8 60 13 70 27 78 27 79 28 80
REMARK H PARENT 28 81
REMARK Flexibility Score:  259.900
ROOT
ATOM      1  O   UNL     1     -12.762   6.662   5.886  1.00  0.00    -0.273 OA
ATOM      2  N   UNL     1     -11.926   5.669   7.769  1.00  0.00    -0.343 N 
ATOM      3  C   UNL     1     -11.833   6.095   6.462  1.00  0.00     0.243 C 
ATOM      4  H   UNL     1     -11.137   5.219   8.215  1.00  0.00     0.164 HD
ENDROOT
BRANCH   2   5
ATOM      5  C   UNL     1     -13.188   5.770   8.495  1.00  0.00     0.171 C 
ATOM      6  C   UNL     1     -14.214   4.425  10.849  1.00  0.00     0.214 C 
ATOM      7  N   UNL     1     -14.473   3.867   9.543  1.00  0.00    -0.303 N 
ATOM      8  C   UNL     1     -14.078   5.939  10.840  1.00  0.00     0.057 C 
ATOM      9  C   UNL     1     -13.970   4.430   8.381  1.00  0.00     0.247 C 
ATOM     10  C   UNL     1     -12.973   6.350   9.892  1.00  0.00     0.040 C 
ATOM     11  O   UNL     1     -14.124   3.898   7.274  1.00  0.00    -0.272 OA
BRANCH   6  12
ATOM     12  O   UNL     1     -13.038   3.829  11.346  1.00  0.00    -0.373 OA
ATOM     13  H   UNL     1     -13.315   3.124  11.971  1.00  0.00     0.213 HD
ENDBRANCH   6  12
BRANCH   7  14
ATOM     14  C   UNL     1     -15.183   2.571   9.497  1.00  0.00     0.177 C 
BRANCH  14  15
ATOM     15  C   UNL     1     -14.324   1.339   9.843  1.00  0.00     0.038 C 
BRANCH  15  16
ATOM     16  C   UNL     1     -13.264   0.843   8.834  1.00  0.00    -0.015 C 
ATOM     17  C   UNL     1     -13.472  -0.622   8.442  1.00  0.00     0.007 C 
ATOM     18  C   UNL     1     -11.863   0.983   9.444  1.00  0.00     0.007 C 
ENDBRANCH  15  16
ENDBRANCH  14  15
BRANCH  14  19
ATOM     19  C   UNL     1     -16.690   2.763   9.883  1.00  0.00     0.245 C 
ATOM     20  O   UNL     1     -17.105   3.932   9.956  1.00  0.00    -0.272 OA
BRANCH  19  21
ATOM     21  N   UNL     1     -17.531   1.726  10.248  1.00  0.00    -0.332 N 
ATOM     22  C   UNL     1     -17.555   1.079  11.548  1.00  0.00     0.147 C 
BRANCH  21  23
ATOM     23  C   UNL     1     -18.489   1.215   9.229  1.00  0.00     0.178 C 
BRANCH  23  24
ATOM     24  C   UNL     1     -17.860   0.315   8.146  1.00  0.00     0.070 C 
BRANCH  24  25
ATOM     25  C   UNL     1     -17.327   0.998   6.908  1.00  0.00    -0.045 A 
ATOM     26  C   UNL     1     -17.942   2.151   6.404  1.00  0.00     0.004 A 
ATOM     27  C   UNL     1     -16.207   0.480   6.240  1.00  0.00     0.004 A 
ATOM     28  C   UNL     1     -17.454   2.767   5.249  1.00  0.00     0.000 A 
ATOM     29  C   UNL     1     -15.720   1.097   5.087  1.00  0.00     0.000 A 
ATOM     30  C   UNL     1     -16.345   2.239   4.591  1.00  0.00     0.000 A 
ENDBRANCH  24  25
ENDBRANCH  23  24
BRANCH  23  31
ATOM     31  C   UNL     1     -19.797   0.670   9.850  1.00  0.00     0.243 C 
ATOM     32  O   UNL     1     -20.733   1.378  10.213  1.00  0.00    -0.273 OA
ATOM     33  N   UNL     1     -19.751  -0.684  10.137  1.00  0.00    -0.341 N 
ATOM     34  H   UNL     1     -18.942  -1.221   9.815  1.00  0.00     0.164 HD
BRANCH  33  35
ATOM     35  C   UNL     1     -20.829  -1.390  10.835  1.00  0.00     0.194 C 
BRANCH  35  36
ATOM     36  C   UNL     1     -20.434  -1.919  12.242  1.00  0.00     0.017 C 
ATOM     37  C   UNL     1     -20.972  -1.003  13.355  1.00  0.00     0.010 C 
ATOM     38  C   UNL     1     -18.918  -2.039  12.440  1.00  0.00     0.010 C 
ENDBRANCH  35  36
BRANCH  35  39
ATOM     39  C   UNL     1     -21.482  -2.497   9.961  1.00  0.00     0.329 C 
ATOM     40  O   UNL     1     -21.484  -2.492   8.735  1.00  0.00    -0.250 OA
BRANCH  39  41
ATOM     41  O   UNL     1     -21.981  -3.526  10.712  1.00  0.00    -0.458 OA
BRANCH  41  42
ATOM     42  C   UNL     1     -23.421  -3.669  10.726  1.00  0.00     0.205 CG0
ATOM     43  C   UNL     1     -23.840  -3.909  12.175  1.00  0.00     0.056 C 
ATOM     44  G   UNL     1     -23.808  -4.839   9.799  1.00  0.00     0.000 G0
ENDBRANCH  41  42
ENDBRANCH  39  41
ENDBRANCH  35  39
ENDBRANCH  33  35
ENDBRANCH  23  31
ENDBRANCH  21  23
ENDBRANCH  19  21
ENDBRANCH  14  19
ENDBRANCH   7  14
ENDBRANCH   2   5
BRANCH   3  45
ATOM     45  C   UNL     1     -10.484   5.831   5.780  1.00  0.00     0.171 C 
BRANCH  45  46
ATOM     46  N   UNL     1     -10.171   7.049   5.043  1.00  0.00    -0.342 N 
ATOM     47  C   UNL     1     -10.056   8.271   5.655  1.00  0.00     0.247 C 
ATOM     48  O   UNL     1     -10.135   8.418   6.876  1.00  0.00    -0.273 OA
ATOM     49  H   UNL     1     -10.041   6.963   4.037  1.00  0.00     0.164 HD
BRANCH  47  50
ATOM     50  C   UNL     1      -9.846   9.458   4.704  1.00  0.00     0.212 CG0
ATOM     51  G   UNL     1     -10.081  10.750   5.510  1.00  0.00     0.000 G0
BRANCH  50  52
ATOM     52  N   UNL     1      -8.478   9.325   4.211  1.00  0.00    -0.339 N 
ATOM     53  C   UNL     1      -8.150   8.642   3.065  1.00  0.00     0.243 C 
ATOM     54  O   UNL     1      -8.983   8.041   2.392  1.00  0.00    -0.273 OA
ATOM     55  H   UNL     1      -7.729   9.707   4.785  1.00  0.00     0.164 HD
BRANCH  53  56
ATOM     56  C   UNL     1      -6.634   8.564   2.793  1.00  0.00     0.182 C 
BRANCH  56  57
ATOM     57  N   UNL     1      -5.940   7.861   3.877  1.00  0.00    -0.344 N 
ATOM     58  C   UNL     1      -5.465   6.579   3.738  1.00  0.00     0.220 C 
ATOM     59  O   UNL     1      -5.651   5.909   2.728  1.00  0.00    -0.275 OA
ATOM     60  H   UNL     1      -5.677   8.412   4.689  1.00  0.00     0.164 HD
BRANCH  58  61
ATOM     61  C   UNL     1      -4.730   6.074   4.965  1.00  0.00     0.100 C 
BRANCH  61  62
ATOM     62  C   UNL     1      -4.736   4.551   5.103  1.00  0.00     0.010 C 
BRANCH  62  63
ATOM     63  C   UNL     1      -5.833   4.009   6.028  1.00  0.00     0.000 C 
BRANCH  63  64
ATOM     64  C   UNL     1      -5.511   4.125   7.517  1.00  0.00    -0.003 C 
ATOM     65  C   UNL     1      -6.545   4.973   8.244  1.00  0.00     0.004 C 
ENDBRANCH  63  64
ENDBRANCH  62  63
ENDBRANCH  61  62
ENDBRANCH  58  61
ENDBRANCH  56  57
BRANCH  56  66
ATOM     66  C   UNL     1      -6.041   9.946   2.529  1.00  0.00     0.157 C 
BRANCH  66  67
ATOM     67  C   UNL     1      -4.900   9.872   1.556  1.00  0.00     0.305 C 
ATOM     68  O   UNL     1      -4.201   8.899   1.319  1.00  0.00    -0.252 OA
BRANCH  67  69
ATOM     69  O   UNL     1      -4.727  11.025   0.882  1.00  0.00    -0.481 OA
ATOM     70  H   UNL     1      -4.178  11.581   1.474  1.00  0.00     0.296 HD
ENDBRANCH  67  69
ENDBRANCH  66  67
ENDBRANCH  56  66
ENDBRANCH  53  56
ENDBRANCH  50  52
ENDBRANCH  47  50
ENDBRANCH  45  46
BRANCH  45  71
ATOM     71  C   UNL     1     -10.583   4.617   4.850  1.00  0.00     0.037 C 
BRANCH  71  72
ATOM     72  C   UNL     1      -9.582   3.521   5.226  1.00  0.00     0.026 C 
BRANCH  72  73
ATOM     73  C   UNL     1     -10.068   2.705   6.422  1.00  0.00     0.146 C 
BRANCH  73  74
ATOM     74  N   UNL     1      -9.662   1.319   6.212  1.00  0.00    -0.254 NA
ATOM     75  C   UNL     1      -8.702   0.861   6.927  1.00  0.00     0.185 C 
ATOM     76  N   UNL     1      -8.307  -0.412   6.758  1.00  0.00    -0.370 N 
ATOM     77  N   UNL     1      -7.984   1.484   7.877  1.00  0.00    -0.370 N 
ATOM     78  H   UNL     1      -8.792  -0.951   6.055  1.00  0.00     0.159 HD
ATOM     79  H   UNL     1      -7.476  -0.794   7.173  1.00  0.00     0.159 HD
ATOM     80  H   UNL     1      -8.173   2.446   8.115  1.00  0.00     0.159 HD
ATOM     81  H   UNL     1      -7.328   0.986   8.456  1.00  0.00     0.159 HD
ENDBRANCH  73  74
ENDBRANCH  72  73
ENDBRANCH  71  72
ENDBRANCH  45  71
ENDBRANCH   3  45
TORSDOF 20
ENDMDL
MODEL 30
REMARK VINA RESULT:    -6.835      4.123     10.008
REMARK INTER + INTRA:         -24.366
REMARK INTER:                 -18.937
REMARK INTRA:                  -5.429
REMARK UNBOUND:                -4.745
REMARK SMILES CCCCCC(=O)N[C@H](CC(=O)O)C(=O)N[C@H]1C(=O)N[C@H](CCCN=C(N)N)C(=O)N[C@@H]2CC[C@H](O)N(C2=O)[C@@H](CC(C)C)C(=O)N(C)[C@@H](Cc2ccccc2)C(=O)N[C@H](C(C)C)C(=O)O[C@@H]1C
REMARK SMILES IDX 30 1 31 2 29 3 32 5 35 6 37 7 34 8 38 9 33 10 39 11 36 12
REMARK SMILES IDX 40 14 41 15 42 16 43 17 44 18 45 19 46 20 47 21 48 22 49 23
REMARK SMILES IDX 50 24 51 25 52 26 56 27 53 28 55 29 54 30 57 31 58 32 59 33
REMARK SMILES IDX 60 35 61 36 62 37 63 38 64 39 65 40 66 41 67 42 68 43 21 45
REMARK SMILES IDX 20 46 18 47 19 48 17 50 16 52 14 53 15 54 9 56 8 57 6 58
REMARK SMILES IDX 7 59 5 61 4 62 3 63 2 64 1 65 10 66 11 67 12 68 13 69 22 71
REMARK SMILES IDX 23 72 24 73 25 74 26 75 27 76 28 77
REMARK H PARENT 31 4 36 13 59 34 20 49 16 55 8 60 13 70 27 78 27 79 28 80
REMARK H PARENT 28 81
REMARK Flexibility Score:  259.900
ROOT
ATOM      1  O   UNL     1     -15.139   4.168  10.871  1.00  0.00    -0.273 OA
ATOM      2  N   UNL     1     -12.869   4.035  10.625  1.00  0.00    -0.343 N 
ATOM      3  C   UNL     1     -14.118   3.482  10.811  1.00  0.00     0.243 C 
ATOM      4  H   UNL     1     -12.053   3.439  10.566  1.00  0.00     0.164 HD
ENDROOT
BRANCH   2   5
ATOM      5  C   UNL     1     -12.693   5.484  10.612  1.00  0.00     0.171 C 
ATOM      6  C   UNL     1     -14.542   7.684  10.232  1.00  0.00     0.214 C 
ATOM      7  N   UNL     1     -13.860   7.124   9.089  1.00  0.00    -0.303 N 
ATOM      8  C   UNL     1     -13.741   7.581  11.521  1.00  0.00     0.057 C 
ATOM      9  C   UNL     1     -13.004   6.040   9.193  1.00  0.00     0.247 C 
ATOM     10  C   UNL     1     -13.402   6.133  11.800  1.00  0.00     0.040 C 
ATOM     11  O   UNL     1     -12.491   5.511   8.198  1.00  0.00    -0.272 OA
BRANCH   6  12
ATOM     12  O   UNL     1     -15.777   7.019  10.366  1.00  0.00    -0.373 OA
ATOM     13  H   UNL     1     -16.285   7.189   9.544  1.00  0.00     0.213 HD
ENDBRANCH   6  12
BRANCH   7  14
ATOM     14  C   UNL     1     -14.225   7.661   7.761  1.00  0.00     0.177 C 
BRANCH  14  15
ATOM     15  C   UNL     1     -15.735   7.853   7.523  1.00  0.00     0.038 C 
BRANCH  15  16
ATOM     16  C   UNL     1     -16.324   9.280   7.483  1.00  0.00    -0.015 C 
ATOM     17  C   UNL     1     -17.758   9.336   8.019  1.00  0.00     0.007 C 
ATOM     18  C   UNL     1     -16.331   9.798   6.039  1.00  0.00     0.007 C 
ENDBRANCH  15  16
ENDBRANCH  14  15
BRANCH  14  19
ATOM     19  C   UNL     1     -13.095   8.610   7.230  1.00  0.00     0.245 C 
ATOM     20  O   UNL     1     -12.602   9.405   8.048  1.00  0.00    -0.272 OA
BRANCH  19  21
ATOM     21  N   UNL     1     -12.710   8.683   5.903  1.00  0.00    -0.332 N 
ATOM     22  C   UNL     1     -13.578   9.030   4.791  1.00  0.00     0.147 C 
BRANCH  21  23
ATOM     23  C   UNL     1     -11.292   8.371   5.572  1.00  0.00     0.178 C 
BRANCH  23  24
ATOM     24  C   UNL     1     -10.289   9.494   5.907  1.00  0.00     0.070 C 
BRANCH  24  25
ATOM     25  C   UNL     1      -9.270   9.845   4.848  1.00  0.00    -0.045 A 
ATOM     26  C   UNL     1      -8.661   8.845   4.079  1.00  0.00     0.004 A 
ATOM     27  C   UNL     1      -8.915  11.183   4.624  1.00  0.00     0.004 A 
ATOM     28  C   UNL     1      -7.708   9.177   3.114  1.00  0.00     0.000 A 
ATOM     29  C   UNL     1      -7.963  11.513   3.659  1.00  0.00     0.000 A 
ATOM     30  C   UNL     1      -7.358  10.509   2.906  1.00  0.00     0.000 A 
ENDBRANCH  24  25
ENDBRANCH  23  24
BRANCH  23  31
ATOM     31  C   UNL     1     -10.863   6.956   6.028  1.00  0.00     0.243 C 
ATOM     32  O   UNL     1     -10.108   6.738   6.972  1.00  0.00    -0.273 OA
ATOM     33  N   UNL     1     -11.258   5.952   5.161  1.00  0.00    -0.341 N 
ATOM     34  H   UNL     1     -11.882   6.196   4.388  1.00  0.00     0.164 HD
BRANCH  33  35
ATOM     35  C   UNL     1     -10.862   4.551   5.328  1.00  0.00     0.194 C 
BRANCH  35  36
ATOM     36  C   UNL     1      -9.622   4.136   4.488  1.00  0.00     0.017 C 
ATOM     37  C   UNL     1      -9.403   2.613   4.527  1.00  0.00     0.010 C 
ATOM     38  C   UNL     1      -8.322   4.798   4.962  1.00  0.00     0.010 C 
ENDBRANCH  35  36
BRANCH  35  39
ATOM     39  C   UNL     1     -12.050   3.567   5.133  1.00  0.00     0.329 C 
ATOM     40  O   UNL     1     -12.631   3.396   4.068  1.00  0.00    -0.250 OA
BRANCH  39  41
ATOM     41  O   UNL     1     -12.320   2.847   6.264  1.00  0.00    -0.458 OA
BRANCH  41  42
ATOM     42  C   UNL     1     -13.643   2.266   6.354  1.00  0.00     0.205 CG0
ATOM     43  C   UNL     1     -14.568   3.331   6.940  1.00  0.00     0.056 C 
ATOM     44  G   UNL     1     -13.566   1.003   7.234  1.00  0.00     0.000 G0
ENDBRANCH  41  42
ENDBRANCH  39  41
ENDBRANCH  35  39
ENDBRANCH  33  35
ENDBRANCH  23  31
ENDBRANCH  21  23
ENDBRANCH  19  21
ENDBRANCH  14  19
ENDBRANCH   7  14
ENDBRANCH   2   5
BRANCH   3  45
ATOM     45  C   UNL     1     -14.150   1.952  10.915  1.00  0.00     0.171 C 
BRANCH  45  46
ATOM     46  N   UNL     1     -14.289   1.467   9.548  1.00  0.00    -0.342 N 
ATOM     47  C   UNL     1     -13.228   1.396   8.681  1.00  0.00     0.247 C 
ATOM     48  O   UNL     1     -12.073   1.665   9.014  1.00  0.00    -0.273 OA
ATOM     49  H   UNL     1     -15.219   1.180   9.248  1.00  0.00     0.164 HD
BRANCH  47  50
ATOM     50  C   UNL     1     -13.587   0.980   7.247  1.00  0.00     0.212 CG0
ATOM     51  G   UNL     1     -13.640   2.259   6.389  1.00  0.00     0.000 G0
BRANCH  50  52
ATOM     52  N   UNL     1     -12.536   0.052   6.836  1.00  0.00    -0.339 N 
ATOM     53  C   UNL     1     -12.706  -1.310   6.792  1.00  0.00     0.243 C 
ATOM     54  O   UNL     1     -13.745  -1.860   7.148  1.00  0.00    -0.273 OA
ATOM     55  H   UNL     1     -11.616   0.439   6.635  1.00  0.00     0.164 HD
BRANCH  53  56
ATOM     56  C   UNL     1     -11.431  -2.089   6.411  1.00  0.00     0.182 C 
BRANCH  56  57
ATOM     57  N   UNL     1     -10.246  -1.227   6.482  1.00  0.00    -0.344 N 
ATOM     58  C   UNL     1      -9.310  -1.344   7.480  1.00  0.00     0.220 C 
ATOM     59  O   UNL     1      -9.434  -2.123   8.418  1.00  0.00    -0.275 OA
ATOM     60  H   UNL     1     -10.054  -0.642   5.673  1.00  0.00     0.164 HD
BRANCH  58  61
ATOM     61  C   UNL     1      -8.140  -0.390   7.321  1.00  0.00     0.100 C 
BRANCH  61  62
ATOM     62  C   UNL     1      -8.403   1.007   7.883  1.00  0.00     0.010 C 
BRANCH  62  63
ATOM     63  C   UNL     1      -7.334   2.043   7.513  1.00  0.00     0.000 C 
BRANCH  63  64
ATOM     64  C   UNL     1      -7.436   3.354   8.292  1.00  0.00    -0.003 C 
ATOM     65  C   UNL     1      -8.885   3.712   8.589  1.00  0.00     0.004 C 
ENDBRANCH  63  64
ENDBRANCH  62  63
ENDBRANCH  61  62
ENDBRANCH  58  61
ENDBRANCH  56  57
BRANCH  56  66
ATOM     66  C   UNL     1     -11.573  -2.764   5.048  1.00  0.00     0.157 C 
BRANCH  66  67
ATOM     67  C   UNL     1     -11.855  -1.757   3.970  1.00  0.00     0.305 C 
ATOM     68  O   UNL     1     -12.323  -0.638   4.116  1.00  0.00    -0.252 OA
BRANCH  67  69
ATOM     69  O   UNL     1     -11.482  -2.194   2.752  1.00  0.00    -0.481 OA
ATOM     70  H   UNL     1     -11.592  -1.417   2.163  1.00  0.00     0.296 HD
ENDBRANCH  67  69
ENDBRANCH  66  67
ENDBRANCH  56  66
ENDBRANCH  53  56
ENDBRANCH  50  52
ENDBRANCH  47  50
ENDBRANCH  45  46
BRANCH  45  71
ATOM     71  C   UNL     1     -15.320   1.501  11.796  1.00  0.00     0.037 C 
BRANCH  71  72
ATOM     72  C   UNL     1     -16.282   0.575  11.047  1.00  0.00     0.026 C 
BRANCH  72  73
ATOM     73  C   UNL     1     -17.672   1.194  10.920  1.00  0.00     0.146 C 
BRANCH  73  74
ATOM     74  N   UNL     1     -18.079   1.096   9.521  1.00  0.00    -0.254 NA
ATOM     75  C   UNL     1     -17.933   2.132   8.781  1.00  0.00     0.185 C 
ATOM     76  N   UNL     1     -18.297   2.072   7.490  1.00  0.00    -0.370 N 
ATOM     77  N   UNL     1     -17.444   3.341   9.107  1.00  0.00    -0.370 N 
ATOM     78  H   UNL     1     -18.682   1.197   7.163  1.00  0.00     0.159 HD
ATOM     79  H   UNL     1     -18.348   2.877   6.891  1.00  0.00     0.159 HD
ATOM     80  H   UNL     1     -17.127   3.531  10.045  1.00  0.00     0.159 HD
ATOM     81  H   UNL     1     -17.269   4.046   8.409  1.00  0.00     0.159 HD
ENDBRANCH  73  74
ENDBRANCH  72  73
ENDBRANCH  71  72
ENDBRANCH  45  71
ENDBRANCH   3  45
TORSDOF 20
ENDMDL
MODEL 31
REMARK VINA RESULT:    -6.821      3.354     11.448
REMARK INTER + INTRA:         -24.328
REMARK INTER:                 -20.407
REMARK INTRA:                  -3.921
REMARK UNBOUND:                -4.745
REMARK SMILES CCCCCC(=O)N[C@H](CC(=O)O)C(=O)N[C@H]1C(=O)N[C@H](CCCN=C(N)N)C(=O)N[C@@H]2CC[C@H](O)N(C2=O)[C@@H](CC(C)C)C(=O)N(C)[C@@H](Cc2ccccc2)C(=O)N[C@H](C(C)C)C(=O)O[C@@H]1C
REMARK SMILES IDX 30 1 31 2 29 3 32 5 35 6 37 7 34 8 38 9 33 10 39 11 36 12
REMARK SMILES IDX 40 14 41 15 42 16 43 17 44 18 45 19 46 20 47 21 48 22 49 23
REMARK SMILES IDX 50 24 51 25 52 26 56 27 53 28 55 29 54 30 57 31 58 32 59 33
REMARK SMILES IDX 60 35 61 36 62 37 63 38 64 39 65 40 66 41 67 42 68 43 21 45
REMARK SMILES IDX 20 46 18 47 19 48 17 50 16 52 14 53 15 54 9 56 8 57 6 58
REMARK SMILES IDX 7 59 5 61 4 62 3 63 2 64 1 65 10 66 11 67 12 68 13 69 22 71
REMARK SMILES IDX 23 72 24 73 25 74 26 75 27 76 28 77
REMARK H PARENT 31 4 36 13 59 34 20 49 16 55 8 60 13 70 27 78 27 79 28 80
REMARK H PARENT 28 81
REMARK Flexibility Score:  259.900
ROOT
ATOM      1  O   UNL     1     -12.946   7.205   6.066  1.00  0.00    -0.273 OA
ATOM      2  N   UNL     1     -11.852   7.390   8.066  1.00  0.00    -0.343 N 
ATOM      3  C   UNL     1     -12.940   7.056   7.288  1.00  0.00     0.243 C 
ATOM      4  H   UNL     1     -11.877   7.240   9.067  1.00  0.00     0.164 HD
ENDROOT
BRANCH   2   5
ATOM      5  C   UNL     1     -10.694   8.053   7.476  1.00  0.00     0.171 C 
ATOM      6  C   UNL     1      -9.979   8.695   4.741  1.00  0.00     0.214 C 
ATOM      7  N   UNL     1      -9.553   7.438   5.310  1.00  0.00    -0.303 N 
ATOM      8  C   UNL     1     -10.113   9.807   5.770  1.00  0.00     0.057 C 
ATOM      9  C   UNL     1      -9.903   7.047   6.593  1.00  0.00     0.247 C 
ATOM     10  C   UNL     1     -11.088   9.390   6.850  1.00  0.00     0.040 C 
ATOM     11  O   UNL     1      -9.607   5.932   7.042  1.00  0.00    -0.272 OA
BRANCH   6  12
ATOM     12  O   UNL     1     -11.208   8.477   4.088  1.00  0.00    -0.373 OA
ATOM     13  H   UNL     1     -11.284   9.157   3.385  1.00  0.00     0.213 HD
ENDBRANCH   6  12
BRANCH   7  14
ATOM     14  C   UNL     1      -8.842   6.502   4.414  1.00  0.00     0.177 C 
BRANCH  14  15
ATOM     15  C   UNL     1      -7.316   6.430   4.617  1.00  0.00     0.038 C 
BRANCH  15  16
ATOM     16  C   UNL     1      -6.374   6.916   3.494  1.00  0.00    -0.015 C 
ATOM     17  C   UNL     1      -4.900   6.879   3.910  1.00  0.00     0.007 C 
ATOM     18  C   UNL     1      -6.728   8.357   3.107  1.00  0.00     0.007 C 
ENDBRANCH  15  16
ENDBRANCH  14  15
BRANCH  14  19
ATOM     19  C   UNL     1      -9.766   5.290   4.048  1.00  0.00     0.245 C 
ATOM     20  O   UNL     1     -10.969   5.397   4.340  1.00  0.00    -0.272 OA
BRANCH  19  21
ATOM     21  N   UNL     1      -9.302   4.093   3.534  1.00  0.00    -0.332 N 
ATOM     22  C   UNL     1      -9.218   3.758   2.123  1.00  0.00     0.147 C 
BRANCH  21  23
ATOM     23  C   UNL     1      -8.857   3.048   4.496  1.00  0.00     0.178 C 
BRANCH  23  24
ATOM     24  C   UNL     1      -7.439   3.256   5.066  1.00  0.00     0.070 C 
BRANCH  24  25
ATOM     25  C   UNL     1      -6.287   2.687   4.271  1.00  0.00    -0.045 A 
ATOM     26  C   UNL     1      -5.166   3.472   3.970  1.00  0.00     0.004 A 
ATOM     27  C   UNL     1      -6.328   1.361   3.816  1.00  0.00     0.004 A 
ATOM     28  C   UNL     1      -4.113   2.944   3.220  1.00  0.00     0.000 A 
ATOM     29  C   UNL     1      -5.274   0.834   3.068  1.00  0.00     0.000 A 
ATOM     30  C   UNL     1      -4.169   1.627   2.767  1.00  0.00     0.000 A 
ENDBRANCH  24  25
ENDBRANCH  23  24
BRANCH  23  31
ATOM     31  C   UNL     1      -9.936   2.697   5.548  1.00  0.00     0.243 C 
ATOM     32  O   UNL     1     -11.139   2.633   5.303  1.00  0.00    -0.273 OA
ATOM     33  N   UNL     1      -9.450   2.640   6.843  1.00  0.00    -0.341 N 
ATOM     34  H   UNL     1      -8.439   2.706   6.984  1.00  0.00     0.164 HD
BRANCH  33  35
ATOM     35  C   UNL     1     -10.311   2.441   8.012  1.00  0.00     0.194 C 
BRANCH  35  36
ATOM     36  C   UNL     1      -9.665   2.877   9.357  1.00  0.00     0.017 C 
ATOM     37  C   UNL     1      -9.980   1.874  10.480  1.00  0.00     0.010 C 
ATOM     38  C   UNL     1     -10.133   4.259   9.832  1.00  0.00     0.010 C 
ENDBRANCH  35  36
BRANCH  35  39
ATOM     39  C   UNL     1     -10.893   1.002   8.087  1.00  0.00     0.329 C 
ATOM     40  O   UNL     1     -10.245   0.016   8.420  1.00  0.00    -0.250 OA
BRANCH  39  41
ATOM     41  O   UNL     1     -12.235   0.969   7.825  1.00  0.00    -0.458 OA
BRANCH  41  42
ATOM     42  C   UNL     1     -13.083   1.719   8.727  1.00  0.00     0.205 CG0
ATOM     43  C   UNL     1     -13.853   0.707   9.573  1.00  0.00     0.056 C 
ATOM     44  G   UNL     1     -14.014   2.620   7.892  1.00  0.00     0.000 G0
ENDBRANCH  41  42
ENDBRANCH  39  41
ENDBRANCH  35  39
ENDBRANCH  33  35
ENDBRANCH  23  31
ENDBRANCH  21  23
ENDBRANCH  19  21
ENDBRANCH  14  19
ENDBRANCH   7  14
ENDBRANCH   2   5
BRANCH   3  45
ATOM     45  C   UNL     1     -14.134   6.465   8.049  1.00  0.00     0.171 C 
BRANCH  45  46
ATOM     46  N   UNL     1     -14.209   5.068   7.641  1.00  0.00    -0.342 N 
ATOM     47  C   UNL     1     -14.020   4.033   8.522  1.00  0.00     0.247 C 
ATOM     48  O   UNL     1     -13.847   4.205   9.729  1.00  0.00    -0.273 OA
ATOM     49  H   UNL     1     -14.406   4.879   6.660  1.00  0.00     0.164 HD
BRANCH  47  50
ATOM     50  C   UNL     1     -14.011   2.634   7.889  1.00  0.00     0.212 CG0
ATOM     51  G   UNL     1     -13.111   1.733   8.758  1.00  0.00     0.000 G0
BRANCH  50  52
ATOM     52  N   UNL     1     -15.407   2.207   7.868  1.00  0.00    -0.339 N 
ATOM     53  C   UNL     1     -16.305   2.605   6.908  1.00  0.00     0.243 C 
ATOM     54  O   UNL     1     -16.014   3.398   6.017  1.00  0.00    -0.273 OA
ATOM     55  H   UNL     1     -15.739   1.637   8.644  1.00  0.00     0.164 HD
BRANCH  53  56
ATOM     56  C   UNL     1     -17.742   2.096   7.143  1.00  0.00     0.182 C 
BRANCH  56  57
ATOM     57  N   UNL     1     -17.804   1.218   8.316  1.00  0.00    -0.344 N 
ATOM     58  C   UNL     1     -18.857   1.241   9.197  1.00  0.00     0.220 C 
ATOM     59  O   UNL     1     -19.779   2.044   9.108  1.00  0.00    -0.275 OA
ATOM     60  H   UNL     1     -17.115   0.472   8.370  1.00  0.00     0.164 HD
BRANCH  58  61
ATOM     61  C   UNL     1     -18.739   0.207  10.302  1.00  0.00     0.100 C 
BRANCH  61  62
ATOM     62  C   UNL     1     -20.083  -0.215  10.897  1.00  0.00     0.010 C 
BRANCH  62  63
ATOM     63  C   UNL     1     -20.496  -1.652  10.555  1.00  0.00     0.000 C 
BRANCH  63  64
ATOM     64  C   UNL     1     -21.923  -1.785  10.026  1.00  0.00    -0.003 C 
ATOM     65  C   UNL     1     -22.249  -3.227   9.664  1.00  0.00     0.004 C 
ENDBRANCH  63  64
ENDBRANCH  62  63
ENDBRANCH  61  62
ENDBRANCH  58  61
ENDBRANCH  56  57
BRANCH  56  66
ATOM     66  C   UNL     1     -18.311   1.428   5.892  1.00  0.00     0.157 C 
BRANCH  66  67
ATOM     67  C   UNL     1     -17.332   0.454   5.302  1.00  0.00     0.305 C 
ATOM     68  O   UNL     1     -17.054  -0.655   5.730  1.00  0.00    -0.252 OA
BRANCH  67  69
ATOM     69  O   UNL     1     -16.782   0.909   4.160  1.00  0.00    -0.481 OA
ATOM     70  H   UNL     1     -16.876   1.884   4.208  1.00  0.00     0.296 HD
ENDBRANCH  67  69
ENDBRANCH  66  67
ENDBRANCH  56  66
ENDBRANCH  53  56
ENDBRANCH  50  52
ENDBRANCH  47  50
ENDBRANCH  45  46
BRANCH  45  71
ATOM     71  C   UNL     1     -15.418   7.225   7.700  1.00  0.00     0.037 C 
BRANCH  71  72
ATOM     72  C   UNL     1     -16.649   6.617   8.378  1.00  0.00     0.026 C 
BRANCH  72  73
ATOM     73  C   UNL     1     -17.681   7.687   8.729  1.00  0.00     0.146 C 
BRANCH  73  74
ATOM     74  N   UNL     1     -18.262   8.174   7.481  1.00  0.00    -0.254 NA
ATOM     75  C   UNL     1     -18.174   9.427   7.228  1.00  0.00     0.185 C 
ATOM     76  N   UNL     1     -18.698   9.905   6.088  1.00  0.00    -0.370 N 
ATOM     77  N   UNL     1     -17.607  10.400   7.963  1.00  0.00    -0.370 N 
ATOM     78  H   UNL     1     -19.152   9.239   5.478  1.00  0.00     0.159 HD
ATOM     79  H   UNL     1     -18.796  10.885   5.891  1.00  0.00     0.159 HD
ATOM     80  H   UNL     1     -17.169  10.187   8.846  1.00  0.00     0.159 HD
ATOM     81  H   UNL     1     -17.497  11.335   7.607  1.00  0.00     0.159 HD
ENDBRANCH  73  74
ENDBRANCH  72  73
ENDBRANCH  71  72
ENDBRANCH  45  71
ENDBRANCH   3  45
TORSDOF 20
ENDMDL
MODEL 32
REMARK VINA RESULT:    -6.794      3.760      6.932
REMARK INTER + INTRA:         -24.248
REMARK INTER:                 -20.167
REMARK INTRA:                  -4.081
REMARK UNBOUND:                -4.745
REMARK SMILES CCCCCC(=O)N[C@H](CC(=O)O)C(=O)N[C@H]1C(=O)N[C@H](CCCN=C(N)N)C(=O)N[C@@H]2CC[C@H](O)N(C2=O)[C@@H](CC(C)C)C(=O)N(C)[C@@H](Cc2ccccc2)C(=O)N[C@H](C(C)C)C(=O)O[C@@H]1C
REMARK SMILES IDX 30 1 31 2 29 3 32 5 35 6 37 7 34 8 38 9 33 10 39 11 36 12
REMARK SMILES IDX 40 14 41 15 42 16 43 17 44 18 45 19 46 20 47 21 48 22 49 23
REMARK SMILES IDX 50 24 51 25 52 26 56 27 53 28 55 29 54 30 57 31 58 32 59 33
REMARK SMILES IDX 60 35 61 36 62 37 63 38 64 39 65 40 66 41 67 42 68 43 21 45
REMARK SMILES IDX 20 46 18 47 19 48 17 50 16 52 14 53 15 54 9 56 8 57 6 58
REMARK SMILES IDX 7 59 5 61 4 62 3 63 2 64 1 65 10 66 11 67 12 68 13 69 22 71
REMARK SMILES IDX 23 72 24 73 25 74 26 75 27 76 28 77
REMARK H PARENT 31 4 36 13 59 34 20 49 16 55 8 60 13 70 27 78 27 79 28 80
REMARK H PARENT 28 81
REMARK Flexibility Score:  259.900
ROOT
ATOM      1  O   UNL     1     -11.858   2.808   7.174  1.00  0.00    -0.273 OA
ATOM      2  N   UNL     1      -9.999   1.800   8.045  1.00  0.00    -0.343 N 
ATOM      3  C   UNL     1     -10.652   2.569   7.105  1.00  0.00     0.243 C 
ATOM      4  H   UNL     1      -9.004   1.636   7.964  1.00  0.00     0.164 HD
ENDROOT
BRANCH   2   5
ATOM      5  C   UNL     1     -10.745   1.134   9.107  1.00  0.00     0.171 C 
ATOM      6  C   UNL     1     -13.560   1.082   9.796  1.00  0.00     0.214 C 
ATOM      7  N   UNL     1     -12.702   2.081  10.389  1.00  0.00    -0.303 N 
ATOM      8  C   UNL     1     -12.837  -0.215   9.468  1.00  0.00     0.057 C 
ATOM      9  C   UNL     1     -11.360   2.194  10.065  1.00  0.00     0.247 C 
ATOM     10  C   UNL     1     -11.678   0.067   8.536  1.00  0.00     0.040 C 
ATOM     11  O   UNL     1     -10.652   3.106  10.511  1.00  0.00    -0.272 OA
BRANCH   6  12
ATOM     12  O   UNL     1     -14.128   1.637   8.632  1.00  0.00    -0.373 OA
ATOM     13  H   UNL     1     -13.838   1.082   7.878  1.00  0.00     0.213 HD
ENDBRANCH   6  12
BRANCH   7  14
ATOM     14  C   UNL     1     -13.347   3.089  11.257  1.00  0.00     0.177 C 
BRANCH  14  15
ATOM     15  C   UNL     1     -12.881   3.084  12.726  1.00  0.00     0.038 C 
BRANCH  15  16
ATOM     16  C   UNL     1     -12.611   4.426  13.443  1.00  0.00    -0.015 C 
ATOM     17  C   UNL     1     -11.119   4.667  13.690  1.00  0.00     0.007 C 
ATOM     18  C   UNL     1     -13.332   4.444  14.797  1.00  0.00     0.007 C 
ENDBRANCH  15  16
ENDBRANCH  14  15
BRANCH  14  19
ATOM     19  C   UNL     1     -13.716   4.366  10.426  1.00  0.00     0.245 C 
ATOM     20  O   UNL     1     -12.772   4.996   9.921  1.00  0.00    -0.272 OA
BRANCH  19  21
ATOM     21  N   UNL     1     -14.998   4.877  10.326  1.00  0.00    -0.332 N 
ATOM     22  C   UNL     1     -16.008   4.830  11.368  1.00  0.00     0.147 C 
BRANCH  21  23
ATOM     23  C   UNL     1     -15.391   5.522   9.043  1.00  0.00     0.178 C 
BRANCH  23  24
ATOM     24  C   UNL     1     -16.855   5.279   8.621  1.00  0.00     0.070 C 
BRANCH  24  25
ATOM     25  C   UNL     1     -17.179   3.941   7.999  1.00  0.00    -0.045 A 
ATOM     26  C   UNL     1     -16.520   3.510   6.840  1.00  0.00     0.004 A 
ATOM     27  C   UNL     1     -18.153   3.111   8.574  1.00  0.00     0.004 A 
ATOM     28  C   UNL     1     -16.838   2.279   6.262  1.00  0.00     0.000 A 
ATOM     29  C   UNL     1     -18.469   1.880   7.995  1.00  0.00     0.000 A 
ATOM     30  C   UNL     1     -17.812   1.467   6.837  1.00  0.00     0.000 A 
ENDBRANCH  24  25
ENDBRANCH  23  24
BRANCH  23  31
ATOM     31  C   UNL     1     -14.917   6.990   8.935  1.00  0.00     0.243 C 
ATOM     32  O   UNL     1     -14.673   7.706   9.902  1.00  0.00    -0.273 OA
ATOM     33  N   UNL     1     -14.968   7.495   7.646  1.00  0.00    -0.341 N 
ATOM     34  H   UNL     1     -15.184   6.851   6.881  1.00  0.00     0.164 HD
BRANCH  33  35
ATOM     35  C   UNL     1     -14.679   8.895   7.324  1.00  0.00     0.194 C 
BRANCH  35  36
ATOM     36  C   UNL     1     -15.781   9.593   6.478  1.00  0.00     0.017 C 
ATOM     37  C   UNL     1     -15.604  11.121   6.481  1.00  0.00     0.010 C 
ATOM     38  C   UNL     1     -17.202   9.294   6.972  1.00  0.00     0.010 C 
ENDBRANCH  35  36
BRANCH  35  39
ATOM     39  C   UNL     1     -13.265   9.087   6.707  1.00  0.00     0.329 C 
ATOM     40  O   UNL     1     -12.480   9.963   7.050  1.00  0.00    -0.250 OA
BRANCH  39  41
ATOM     41  O   UNL     1     -12.959   8.113   5.797  1.00  0.00    -0.458 OA
BRANCH  41  42
ATOM     42  C   UNL     1     -12.144   7.018   6.280  1.00  0.00     0.205 CG0
ATOM     43  C   UNL     1     -11.462   7.490   7.563  1.00  0.00     0.056 C 
ATOM     44  G   UNL     1     -11.132   6.637   5.181  1.00  0.00     0.000 G0
ENDBRANCH  41  42
ENDBRANCH  39  41
ENDBRANCH  35  39
ENDBRANCH  33  35
ENDBRANCH  23  31
ENDBRANCH  21  23
ENDBRANCH  19  21
ENDBRANCH  14  19
ENDBRANCH   7  14
ENDBRANCH   2   5
BRANCH   3  45
ATOM     45  C   UNL     1      -9.768   3.122   5.980  1.00  0.00     0.171 C 
BRANCH  45  46
ATOM     46  N   UNL     1     -10.494   4.261   5.433  1.00  0.00    -0.342 N 
ATOM     47  C   UNL     1     -10.162   5.558   5.731  1.00  0.00     0.247 C 
ATOM     48  O   UNL     1      -9.186   5.857   6.421  1.00  0.00    -0.273 OA
ATOM     49  H   UNL     1     -11.276   4.060   4.811  1.00  0.00     0.164 HD
BRANCH  47  50
ATOM     50  C   UNL     1     -11.115   6.621   5.164  1.00  0.00     0.212 CG0
ATOM     51  G   UNL     1     -12.123   6.983   6.272  1.00  0.00     0.000 G0
BRANCH  50  52
ATOM     52  N   UNL     1     -10.262   7.739   4.772  1.00  0.00    -0.339 N 
ATOM     53  C   UNL     1      -9.737   7.883   3.510  1.00  0.00     0.243 C 
ATOM     54  O   UNL     1      -9.903   7.049   2.625  1.00  0.00    -0.273 OA
ATOM     55  H   UNL     1      -9.996   8.407   5.493  1.00  0.00     0.164 HD
BRANCH  53  56
ATOM     56  C   UNL     1      -8.797   9.095   3.356  1.00  0.00     0.182 C 
BRANCH  56  57
ATOM     57  N   UNL     1      -7.458   8.673   2.933  1.00  0.00    -0.344 N 
ATOM     58  C   UNL     1      -6.759   7.685   3.582  1.00  0.00     0.220 C 
ATOM     59  O   UNL     1      -7.171   7.139   4.600  1.00  0.00    -0.275 OA
ATOM     60  H   UNL     1      -7.125   9.025   2.039  1.00  0.00     0.164 HD
BRANCH  58  61
ATOM     61  C   UNL     1      -5.421   7.371   2.937  1.00  0.00     0.100 C 
BRANCH  61  62
ATOM     62  C   UNL     1      -4.711   6.162   3.547  1.00  0.00     0.010 C 
BRANCH  62  63
ATOM     63  C   UNL     1      -3.977   5.284   2.525  1.00  0.00     0.000 C 
BRANCH  63  64
ATOM     64  C   UNL     1      -2.805   5.976   1.832  1.00  0.00    -0.003 C 
ATOM     65  C   UNL     1      -2.906   5.856   0.318  1.00  0.00     0.004 C 
ENDBRANCH  63  64
ENDBRANCH  62  63
ENDBRANCH  61  62
ENDBRANCH  58  61
ENDBRANCH  56  57
BRANCH  56  66
ATOM     66  C   UNL     1      -8.759   9.940   4.628  1.00  0.00     0.157 C 
BRANCH  66  67
ATOM     67  C   UNL     1      -9.530  11.218   4.456  1.00  0.00     0.305 C 
ATOM     68  O   UNL     1      -9.299  12.110   3.654  1.00  0.00    -0.252 OA
BRANCH  67  69
ATOM     69  O   UNL     1     -10.596  11.287   5.275  1.00  0.00    -0.481 OA
ATOM     70  H   UNL     1     -10.264  11.734   6.081  1.00  0.00     0.296 HD
ENDBRANCH  67  69
ENDBRANCH  66  67
ENDBRANCH  56  66
ENDBRANCH  53  56
ENDBRANCH  50  52
ENDBRANCH  47  50
ENDBRANCH  45  46
BRANCH  45  71
ATOM     71  C   UNL     1      -9.521   2.046   4.917  1.00  0.00     0.037 C 
BRANCH  71  72
ATOM     72  C   UNL     1      -8.158   2.209   4.239  1.00  0.00     0.026 C 
BRANCH  72  73
ATOM     73  C   UNL     1      -7.025   2.249   5.263  1.00  0.00     0.146 C 
BRANCH  73  74
ATOM     74  N   UNL     1      -6.599   3.638   5.404  1.00  0.00    -0.254 NA
ATOM     75  C   UNL     1      -6.304   4.057   6.579  1.00  0.00     0.185 C 
ATOM     76  N   UNL     1      -5.907   5.329   6.741  1.00  0.00    -0.370 N 
ATOM     77  N   UNL     1      -6.328   3.388   7.746  1.00  0.00    -0.370 N 
ATOM     78  H   UNL     1      -5.868   5.906   5.913  1.00  0.00     0.159 HD
ATOM     79  H   UNL     1      -5.801   5.766   7.640  1.00  0.00     0.159 HD
ATOM     80  H   UNL     1      -6.603   2.418   7.776  1.00  0.00     0.159 HD
ATOM     81  H   UNL     1      -5.963   3.791   8.593  1.00  0.00     0.159 HD
ENDBRANCH  73  74
ENDBRANCH  72  73
ENDBRANCH  71  72
ENDBRANCH  45  71
ENDBRANCH   3  45
TORSDOF 20
ENDMDL
MODEL 33
REMARK VINA RESULT:    -6.777      4.919     10.621
REMARK INTER + INTRA:         -24.199
REMARK INTER:                 -17.909
REMARK INTRA:                  -6.290
REMARK UNBOUND:                -4.745
REMARK SMILES CCCCCC(=O)N[C@H](CC(=O)O)C(=O)N[C@H]1C(=O)N[C@H](CCCN=C(N)N)C(=O)N[C@@H]2CC[C@H](O)N(C2=O)[C@@H](CC(C)C)C(=O)N(C)[C@@H](Cc2ccccc2)C(=O)N[C@H](C(C)C)C(=O)O[C@@H]1C
REMARK SMILES IDX 30 1 31 2 29 3 32 5 35 6 37 7 34 8 38 9 33 10 39 11 36 12
REMARK SMILES IDX 40 14 41 15 42 16 43 17 44 18 45 19 46 20 47 21 48 22 49 23
REMARK SMILES IDX 50 24 51 25 52 26 56 27 53 28 55 29 54 30 57 31 58 32 59 33
REMARK SMILES IDX 60 35 61 36 62 37 63 38 64 39 65 40 66 41 67 42 68 43 21 45
REMARK SMILES IDX 20 46 18 47 19 48 17 50 16 52 14 53 15 54 9 56 8 57 6 58
REMARK SMILES IDX 7 59 5 61 4 62 3 63 2 64 1 65 10 66 11 67 12 68 13 69 22 71
REMARK SMILES IDX 23 72 24 73 25 74 26 75 27 76 28 77
REMARK H PARENT 31 4 36 13 59 34 20 49 16 55 8 60 13 70 27 78 27 79 28 80
REMARK H PARENT 28 81
REMARK Flexibility Score:  259.900
ROOT
ATOM      1  O   UNL     1     -11.135   1.002   7.325  1.00  0.00    -0.273 OA
ATOM      2  N   UNL     1     -12.517  -0.502   8.353  1.00  0.00    -0.343 N 
ATOM      3  C   UNL     1     -11.354   0.232   8.260  1.00  0.00     0.243 C 
ATOM      4  H   UNL     1     -12.670  -1.115   9.145  1.00  0.00     0.164 HD
ENDROOT
BRANCH   2   5
ATOM      5  C   UNL     1     -13.496  -0.482   7.272  1.00  0.00     0.171 C 
ATOM      6  C   UNL     1     -14.244   1.542   5.336  1.00  0.00     0.214 C 
ATOM      7  N   UNL     1     -14.947   1.469   6.595  1.00  0.00    -0.303 N 
ATOM      8  C   UNL     1     -13.721   0.196   4.860  1.00  0.00     0.057 C 
ATOM      9  C   UNL     1     -14.607   0.560   7.584  1.00  0.00     0.247 C 
ATOM     10  C   UNL     1     -12.807  -0.398   5.910  1.00  0.00     0.040 C 
ATOM     11  O   UNL     1     -15.157   0.562   8.693  1.00  0.00    -0.272 OA
BRANCH   6  12
ATOM     12  O   UNL     1     -13.184   2.457   5.487  1.00  0.00    -0.373 OA
ATOM     13  H   UNL     1     -13.055   2.894   4.618  1.00  0.00     0.213 HD
ENDBRANCH   6  12
BRANCH   7  14
ATOM     14  C   UNL     1     -15.964   2.510   6.857  1.00  0.00     0.177 C 
BRANCH  14  15
ATOM     15  C   UNL     1     -17.425   2.022   6.830  1.00  0.00     0.038 C 
BRANCH  15  16
ATOM     16  C   UNL     1     -18.231   2.105   5.515  1.00  0.00    -0.015 C 
ATOM     17  C   UNL     1     -17.968   0.911   4.593  1.00  0.00     0.007 C 
ATOM     18  C   UNL     1     -17.861   3.387   4.759  1.00  0.00     0.007 C 
ENDBRANCH  15  16
ENDBRANCH  14  15
BRANCH  14  19
ATOM     19  C   UNL     1     -15.389   3.600   7.827  1.00  0.00     0.245 C 
ATOM     20  O   UNL     1     -14.272   3.375   8.321  1.00  0.00    -0.272 OA
BRANCH  19  21
ATOM     21  N   UNL     1     -16.094   4.717   8.237  1.00  0.00    -0.332 N 
ATOM     22  C   UNL     1     -17.414   4.704   8.843  1.00  0.00     0.147 C 
BRANCH  21  23
ATOM     23  C   UNL     1     -15.464   6.051   8.035  1.00  0.00     0.178 C 
BRANCH  23  24
ATOM     24  C   UNL     1     -16.230   7.229   8.671  1.00  0.00     0.070 C 
BRANCH  24  25
ATOM     25  C   UNL     1     -16.565   8.397   7.773  1.00  0.00    -0.045 A 
ATOM     26  C   UNL     1     -15.557   9.084   7.084  1.00  0.00     0.004 A 
ATOM     27  C   UNL     1     -17.896   8.815   7.622  1.00  0.00     0.004 A 
ATOM     28  C   UNL     1     -15.873  10.174   6.269  1.00  0.00     0.000 A 
ATOM     29  C   UNL     1     -18.210   9.903   6.806  1.00  0.00     0.000 A 
ATOM     30  C   UNL     1     -17.197  10.584   6.133  1.00  0.00     0.000 A 
ENDBRANCH  24  25
ENDBRANCH  23  24
BRANCH  23  31
ATOM     31  C   UNL     1     -13.940   6.045   8.301  1.00  0.00     0.243 C 
ATOM     32  O   UNL     1     -13.425   6.410   9.355  1.00  0.00    -0.273 OA
ATOM     33  N   UNL     1     -13.184   5.765   7.176  1.00  0.00    -0.341 N 
ATOM     34  H   UNL     1     -13.670   5.472   6.325  1.00  0.00     0.164 HD
BRANCH  33  35
ATOM     35  C   UNL     1     -11.719   5.821   7.163  1.00  0.00     0.194 C 
BRANCH  35  36
ATOM     36  C   UNL     1     -11.131   6.833   6.140  1.00  0.00     0.017 C 
ATOM     37  C   UNL     1      -9.987   7.654   6.760  1.00  0.00     0.010 C 
ATOM     38  C   UNL     1     -12.171   7.826   5.606  1.00  0.00     0.010 C 
ENDBRANCH  35  36
BRANCH  35  39
ATOM     39  C   UNL     1     -11.068   4.416   7.030  1.00  0.00     0.329 C 
ATOM     40  O   UNL     1     -10.621   3.964   5.982  1.00  0.00    -0.250 OA
BRANCH  39  41
ATOM     41  O   UNL     1     -10.971   3.772   8.232  1.00  0.00    -0.458 OA
BRANCH  41  42
ATOM     42  C   UNL     1     -10.199   4.441   9.257  1.00  0.00     0.205 CG0
ATOM     43  C   UNL     1      -8.741   4.436   8.804  1.00  0.00     0.056 C 
ATOM     44  G   UNL     1     -10.404   3.697  10.592  1.00  0.00     0.000 G0
ENDBRANCH  41  42
ENDBRANCH  39  41
ENDBRANCH  35  39
ENDBRANCH  33  35
ENDBRANCH  23  31
ENDBRANCH  21  23
ENDBRANCH  19  21
ENDBRANCH  14  19
ENDBRANCH   7  14
ENDBRANCH   2   5
BRANCH   3  45
ATOM     45  C   UNL     1     -10.361   0.038   9.414  1.00  0.00     0.171 C 
BRANCH  45  46
ATOM     46  N   UNL     1     -10.002   1.379   9.854  1.00  0.00    -0.342 N 
ATOM     47  C   UNL     1     -10.934   2.279  10.307  1.00  0.00     0.247 C 
ATOM     48  O   UNL     1     -12.125   1.997  10.443  1.00  0.00    -0.273 OA
ATOM     49  H   UNL     1      -9.018   1.636   9.812  1.00  0.00     0.164 HD
BRANCH  47  50
ATOM     50  C   UNL     1     -10.389   3.683  10.609  1.00  0.00     0.212 CG0
ATOM     51  G   UNL     1     -10.193   4.408   9.263  1.00  0.00     0.000 G0
BRANCH  50  52
ATOM     52  N   UNL     1     -11.391   4.314  11.464  1.00  0.00    -0.339 N 
ATOM     53  C   UNL     1     -11.320   4.318  12.836  1.00  0.00     0.243 C 
ATOM     54  O   UNL     1     -10.430   3.741  13.454  1.00  0.00    -0.273 OA
ATOM     55  H   UNL     1     -12.212   4.713  11.014  1.00  0.00     0.164 HD
BRANCH  53  56
ATOM     56  C   UNL     1     -12.536   4.969  13.525  1.00  0.00     0.182 C 
BRANCH  56  57
ATOM     57  N   UNL     1     -13.271   3.990  14.331  1.00  0.00    -0.344 N 
ATOM     58  C   UNL     1     -13.640   4.235  15.632  1.00  0.00     0.220 C 
ATOM     59  O   UNL     1     -13.318   5.255  16.231  1.00  0.00    -0.275 OA
ATOM     60  H   UNL     1     -13.644   3.179  13.844  1.00  0.00     0.164 HD
BRANCH  58  61
ATOM     61  C   UNL     1     -14.443   3.106  16.252  1.00  0.00     0.100 C 
BRANCH  61  62
ATOM     62  C   UNL     1     -15.637   2.663  15.407  1.00  0.00     0.010 C 
BRANCH  62  63
ATOM     63  C   UNL     1     -16.906   2.371  16.218  1.00  0.00     0.000 C 
BRANCH  63  64
ATOM     64  C   UNL     1     -17.839   1.346  15.574  1.00  0.00    -0.003 C 
ATOM     65  C   UNL     1     -19.189   1.307  16.276  1.00  0.00     0.004 C 
ENDBRANCH  63  64
ENDBRANCH  62  63
ENDBRANCH  61  62
ENDBRANCH  58  61
ENDBRANCH  56  57
BRANCH  56  66
ATOM     66  C   UNL     1     -13.437   5.679  12.517  1.00  0.00     0.157 C 
BRANCH  66  67
ATOM     67  C   UNL     1     -14.663   4.866  12.216  1.00  0.00     0.305 C 
ATOM     68  O   UNL     1     -15.735   4.912  12.802  1.00  0.00    -0.252 OA
BRANCH  67  69
ATOM     69  O   UNL     1     -14.496   4.063  11.149  1.00  0.00    -0.481 OA
ATOM     70  H   UNL     1     -13.611   3.660  11.275  1.00  0.00     0.296 HD
ENDBRANCH  67  69
ENDBRANCH  66  67
ENDBRANCH  56  66
ENDBRANCH  53  56
ENDBRANCH  50  52
ENDBRANCH  47  50
ENDBRANCH  45  46
BRANCH  45  71
ATOM     71  C   UNL     1      -9.135  -0.747   8.936  1.00  0.00     0.037 C 
BRANCH  71  72
ATOM     72  C   UNL     1      -8.007   0.176   8.466  1.00  0.00     0.026 C 
BRANCH  72  73
ATOM     73  C   UNL     1      -7.723  -0.001   6.976  1.00  0.00     0.146 C 
BRANCH  73  74
ATOM     74  N   UNL     1      -7.505   1.323   6.402  1.00  0.00    -0.254 NA
ATOM     75  C   UNL     1      -8.302   1.714   5.478  1.00  0.00     0.185 C 
ATOM     76  N   UNL     1      -8.128   2.928   4.931  1.00  0.00    -0.370 N 
ATOM     77  N   UNL     1      -9.349   1.067   4.935  1.00  0.00    -0.370 N 
ATOM     78  H   UNL     1      -7.356   3.479   5.278  1.00  0.00     0.159 HD
ATOM     79  H   UNL     1      -8.617   3.242   4.111  1.00  0.00     0.159 HD
ATOM     80  H   UNL     1      -9.602   0.143   5.251  1.00  0.00     0.159 HD
ATOM     81  H   UNL     1      -9.976   1.523   4.293  1.00  0.00     0.159 HD
ENDBRANCH  73  74
ENDBRANCH  72  73
ENDBRANCH  71  72
ENDBRANCH  45  71
ENDBRANCH   3  45
TORSDOF 20
ENDMDL
MODEL 34
REMARK VINA RESULT:    -6.771      3.873     11.335
REMARK INTER + INTRA:         -24.184
REMARK INTER:                 -19.739
REMARK INTRA:                  -4.445
REMARK UNBOUND:                -4.745
REMARK SMILES CCCCCC(=O)N[C@H](CC(=O)O)C(=O)N[C@H]1C(=O)N[C@H](CCCN=C(N)N)C(=O)N[C@@H]2CC[C@H](O)N(C2=O)[C@@H](CC(C)C)C(=O)N(C)[C@@H](Cc2ccccc2)C(=O)N[C@H](C(C)C)C(=O)O[C@@H]1C
REMARK SMILES IDX 30 1 31 2 29 3 32 5 35 6 37 7 34 8 38 9 33 10 39 11 36 12
REMARK SMILES IDX 40 14 41 15 42 16 43 17 44 18 45 19 46 20 47 21 48 22 49 23
REMARK SMILES IDX 50 24 51 25 52 26 56 27 53 28 55 29 54 30 57 31 58 32 59 33
REMARK SMILES IDX 60 35 61 36 62 37 63 38 64 39 65 40 66 41 67 42 68 43 21 45
REMARK SMILES IDX 20 46 18 47 19 48 17 50 16 52 14 53 15 54 9 56 8 57 6 58
REMARK SMILES IDX 7 59 5 61 4 62 3 63 2 64 1 65 10 66 11 67 12 68 13 69 22 71
REMARK SMILES IDX 23 72 24 73 25 74 26 75 27 76 28 77
REMARK H PARENT 31 4 36 13 59 34 20 49 16 55 8 60 13 70 27 78 27 79 28 80
REMARK H PARENT 28 81
REMARK Flexibility Score:  259.900
ROOT
ATOM      1  O   UNL     1     -13.125   6.747   6.756  1.00  0.00    -0.273 OA
ATOM      2  N   UNL     1     -12.343   7.835   8.609  1.00  0.00    -0.343 N 
ATOM      3  C   UNL     1     -13.047   6.830   7.982  1.00  0.00     0.243 C 
ATOM      4  H   UNL     1     -12.288   7.864   9.619  1.00  0.00     0.164 HD
ENDROOT
BRANCH   2   5
ATOM      5  C   UNL     1     -11.754   8.923   7.835  1.00  0.00     0.171 C 
ATOM      6  C   UNL     1     -11.872   9.623   5.025  1.00  0.00     0.214 C 
ATOM      7  N   UNL     1     -10.811   8.764   5.499  1.00  0.00    -0.303 N 
ATOM      8  C   UNL     1     -12.360  10.610   6.072  1.00  0.00     0.057 C 
ATOM      9  C   UNL     1     -10.725   8.350   6.818  1.00  0.00     0.247 C 
ATOM     10  C   UNL     1     -12.833   9.862   7.300  1.00  0.00     0.040 C 
ATOM     11  O   UNL     1      -9.865   7.545   7.199  1.00  0.00    -0.272 OA
BRANCH   6  12
ATOM     12  O   UNL     1     -12.930   8.800   4.591  1.00  0.00    -0.373 OA
ATOM     13  H   UNL     1     -13.401   8.491   5.394  1.00  0.00     0.213 HD
ENDBRANCH   6  12
BRANCH   7  14
ATOM     14  C   UNL     1      -9.889   8.215   4.483  1.00  0.00     0.177 C 
BRANCH  14  15
ATOM     15  C   UNL     1      -8.425   8.683   4.604  1.00  0.00     0.038 C 
BRANCH  15  16
ATOM     16  C   UNL     1      -7.875   9.725   3.605  1.00  0.00    -0.015 C 
ATOM     17  C   UNL     1      -8.436  11.127   3.855  1.00  0.00     0.007 C 
ATOM     18  C   UNL     1      -8.235   9.311   2.173  1.00  0.00     0.007 C 
ENDBRANCH  15  16
ENDBRANCH  14  15
BRANCH  14  19
ATOM     19  C   UNL     1     -10.349   6.780   4.050  1.00  0.00     0.245 C 
ATOM     20  O   UNL     1     -11.360   6.324   4.609  1.00  0.00    -0.272 OA
BRANCH  19  21
ATOM     21  N   UNL     1      -9.638   5.972   3.181  1.00  0.00    -0.332 N 
ATOM     22  C   UNL     1      -9.950   5.762   1.778  1.00  0.00     0.147 C 
BRANCH  21  23
ATOM     23  C   UNL     1      -8.457   5.241   3.719  1.00  0.00     0.178 C 
BRANCH  23  24
ATOM     24  C   UNL     1      -7.209   6.115   3.956  1.00  0.00     0.070 C 
BRANCH  24  25
ATOM     25  C   UNL     1      -5.899   5.610   3.399  1.00  0.00    -0.045 A 
ATOM     26  C   UNL     1      -5.587   4.245   3.424  1.00  0.00     0.004 A 
ATOM     27  C   UNL     1      -4.971   6.508   2.850  1.00  0.00     0.004 A 
ATOM     28  C   UNL     1      -4.366   3.788   2.922  1.00  0.00     0.000 A 
ATOM     29  C   UNL     1      -3.752   6.050   2.347  1.00  0.00     0.000 A 
ATOM     30  C   UNL     1      -3.449   4.690   2.387  1.00  0.00     0.000 A 
ENDBRANCH  24  25
ENDBRANCH  23  24
BRANCH  23  31
ATOM     31  C   UNL     1      -8.816   4.289   4.885  1.00  0.00     0.243 C 
ATOM     32  O   UNL     1      -9.857   3.639   4.945  1.00  0.00    -0.273 OA
ATOM     33  N   UNL     1      -7.943   4.371   5.956  1.00  0.00    -0.341 N 
ATOM     34  H   UNL     1      -7.095   4.934   5.848  1.00  0.00     0.164 HD
BRANCH  33  35
ATOM     35  C   UNL     1      -8.151   3.651   7.215  1.00  0.00     0.194 C 
BRANCH  35  36
ATOM     36  C   UNL     1      -7.121   4.001   8.325  1.00  0.00     0.017 C 
ATOM     37  C   UNL     1      -7.480   5.324   9.024  1.00  0.00     0.010 C 
ATOM     38  C   UNL     1      -5.687   4.134   7.799  1.00  0.00     0.010 C 
ENDBRANCH  35  36
BRANCH  35  39
ATOM     39  C   UNL     1      -8.284   2.116   7.010  1.00  0.00     0.329 C 
ATOM     40  O   UNL     1      -7.352   1.381   6.705  1.00  0.00    -0.250 OA
BRANCH  39  41
ATOM     41  O   UNL     1      -9.542   1.660   7.292  1.00  0.00    -0.458 OA
BRANCH  41  42
ATOM     42  C   UNL     1     -10.208   2.275   8.421  1.00  0.00     0.205 CG0
ATOM     43  C   UNL     1     -10.234   1.245   9.549  1.00  0.00     0.056 C 
ATOM     44  G   UNL     1     -11.622   2.705   7.984  1.00  0.00     0.000 G0
ENDBRANCH  41  42
ENDBRANCH  39  41
ENDBRANCH  35  39
ENDBRANCH  33  35
ENDBRANCH  23  31
ENDBRANCH  21  23
ENDBRANCH  19  21
ENDBRANCH  14  19
ENDBRANCH   7  14
ENDBRANCH   2   5
BRANCH   3  45
ATOM     45  C   UNL     1     -13.708   5.809   8.917  1.00  0.00     0.171 C 
BRANCH  45  46
ATOM     46  N   UNL     1     -13.255   4.503   8.458  1.00  0.00    -0.342 N 
ATOM     47  C   UNL     1     -11.969   4.062   8.643  1.00  0.00     0.247 C 
ATOM     48  O   UNL     1     -11.127   4.704   9.272  1.00  0.00    -0.273 OA
ATOM     49  H   UNL     1     -13.936   3.915   7.981  1.00  0.00     0.164 HD
BRANCH  47  50
ATOM     50  C   UNL     1     -11.641   2.715   7.983  1.00  0.00     0.212 CG0
ATOM     51  G   UNL     1     -10.232   2.298   8.447  1.00  0.00     0.000 G0
BRANCH  50  52
ATOM     52  N   UNL     1     -12.689   1.800   8.425  1.00  0.00    -0.339 N 
ATOM     53  C   UNL     1     -13.115   0.724   7.685  1.00  0.00     0.243 C 
ATOM     54  O   UNL     1     -12.681   0.479   6.562  1.00  0.00    -0.273 OA
ATOM     55  H   UNL     1     -13.167   2.014   9.298  1.00  0.00     0.164 HD
BRANCH  53  56
ATOM     56  C   UNL     1     -14.291  -0.047   8.317  1.00  0.00     0.182 C 
BRANCH  56  57
ATOM     57  N   UNL     1     -15.566   0.626   8.049  1.00  0.00    -0.344 N 
ATOM     58  C   UNL     1     -16.653  -0.035   7.530  1.00  0.00     0.220 C 
ATOM     59  O   UNL     1     -16.612  -1.211   7.187  1.00  0.00    -0.275 OA
ATOM     60  H   UNL     1     -15.674   1.570   8.412  1.00  0.00     0.164 HD
BRANCH  58  61
ATOM     61  C   UNL     1     -17.882   0.845   7.392  1.00  0.00     0.100 C 
BRANCH  61  62
ATOM     62  C   UNL     1     -18.158   1.296   5.958  1.00  0.00     0.010 C 
BRANCH  62  63
ATOM     63  C   UNL     1     -17.435   2.588   5.556  1.00  0.00     0.000 C 
BRANCH  63  64
ATOM     64  C   UNL     1     -16.350   2.396   4.497  1.00  0.00    -0.003 C 
ATOM     65  C   UNL     1     -14.961   2.616   5.079  1.00  0.00     0.004 C 
ENDBRANCH  63  64
ENDBRANCH  62  63
ENDBRANCH  61  62
ENDBRANCH  58  61
ENDBRANCH  56  57
BRANCH  56  66
ATOM     66  C   UNL     1     -14.067  -0.286   9.809  1.00  0.00     0.157 C 
BRANCH  66  67
ATOM     67  C   UNL     1     -15.047   0.493  10.638  1.00  0.00     0.305 C 
ATOM     68  O   UNL     1     -16.015   0.050  11.238  1.00  0.00    -0.252 OA
BRANCH  67  69
ATOM     69  O   UNL     1     -14.728   1.800  10.714  1.00  0.00    -0.481 OA
ATOM     70  H   UNL     1     -14.744   2.005  11.673  1.00  0.00     0.296 HD
ENDBRANCH  67  69
ENDBRANCH  66  67
ENDBRANCH  56  66
ENDBRANCH  53  56
ENDBRANCH  50  52
ENDBRANCH  47  50
ENDBRANCH  45  46
BRANCH  45  71
ATOM     71  C   UNL     1     -15.234   5.934   8.850  1.00  0.00     0.037 C 
BRANCH  71  72
ATOM     72  C   UNL     1     -15.695   7.393   8.894  1.00  0.00     0.026 C 
BRANCH  72  73
ATOM     73  C   UNL     1     -16.714   7.692   7.797  1.00  0.00     0.146 C 
BRANCH  73  74
ATOM     74  N   UNL     1     -16.220   8.827   7.024  1.00  0.00    -0.254 NA
ATOM     75  C   UNL     1     -16.793   9.961   7.192  1.00  0.00     0.185 C 
ATOM     76  N   UNL     1     -16.360  11.025   6.496  1.00  0.00    -0.370 N 
ATOM     77  N   UNL     1     -17.820  10.278   8.000  1.00  0.00    -0.370 N 
ATOM     78  H   UNL     1     -15.593  10.872   5.857  1.00  0.00     0.159 HD
ATOM     79  H   UNL     1     -16.848  11.903   6.466  1.00  0.00     0.159 HD
ATOM     80  H   UNL     1     -18.246   9.577   8.587  1.00  0.00     0.159 HD
ATOM     81  H   UNL     1     -18.113  11.231   8.134  1.00  0.00     0.159 HD
ENDBRANCH  73  74
ENDBRANCH  72  73
ENDBRANCH  71  72
ENDBRANCH  45  71
ENDBRANCH   3  45
TORSDOF 20
ENDMDL
MODEL 35
REMARK VINA RESULT:    -6.756      4.309      7.476
REMARK INTER + INTRA:         -24.140
REMARK INTER:                 -19.248
REMARK INTRA:                  -4.891
REMARK UNBOUND:                -4.745
REMARK SMILES CCCCCC(=O)N[C@H](CC(=O)O)C(=O)N[C@H]1C(=O)N[C@H](CCCN=C(N)N)C(=O)N[C@@H]2CC[C@H](O)N(C2=O)[C@@H](CC(C)C)C(=O)N(C)[C@@H](Cc2ccccc2)C(=O)N[C@H](C(C)C)C(=O)O[C@@H]1C
REMARK SMILES IDX 30 1 31 2 29 3 32 5 35 6 37 7 34 8 38 9 33 10 39 11 36 12
REMARK SMILES IDX 40 14 41 15 42 16 43 17 44 18 45 19 46 20 47 21 48 22 49 23
REMARK SMILES IDX 50 24 51 25 52 26 56 27 53 28 55 29 54 30 57 31 58 32 59 33
REMARK SMILES IDX 60 35 61 36 62 37 63 38 64 39 65 40 66 41 67 42 68 43 21 45
REMARK SMILES IDX 20 46 18 47 19 48 17 50 16 52 14 53 15 54 9 56 8 57 6 58
REMARK SMILES IDX 7 59 5 61 4 62 3 63 2 64 1 65 10 66 11 67 12 68 13 69 22 71
REMARK SMILES IDX 23 72 24 73 25 74 26 75 27 76 28 77
REMARK H PARENT 31 4 36 13 59 34 20 49 16 55 8 60 13 70 27 78 27 79 28 80
REMARK H PARENT 28 81
REMARK Flexibility Score:  259.900
ROOT
ATOM      1  O   UNL     1     -10.874   4.881   5.285  1.00  0.00    -0.273 OA
ATOM      2  N   UNL     1     -10.398   2.931   4.188  1.00  0.00    -0.343 N 
ATOM      3  C   UNL     1     -10.202   4.269   4.455  1.00  0.00     0.243 C 
ATOM      4  H   UNL     1      -9.816   2.458   3.509  1.00  0.00     0.164 HD
ENDROOT
BRANCH   2   5
ATOM      5  C   UNL     1     -11.505   2.207   4.803  1.00  0.00     0.171 C 
ATOM      6  C   UNL     1     -13.661   3.033   6.556  1.00  0.00     0.214 C 
ATOM      7  N   UNL     1     -12.422   2.560   7.128  1.00  0.00    -0.303 N 
ATOM      8  C   UNL     1     -13.979   2.407   5.207  1.00  0.00     0.057 C 
ATOM      9  C   UNL     1     -11.335   2.198   6.350  1.00  0.00     0.247 C 
ATOM     10  C   UNL     1     -12.846   2.673   4.240  1.00  0.00     0.040 C 
ATOM     11  O   UNL     1     -10.249   1.876   6.849  1.00  0.00    -0.272 OA
BRANCH   6  12
ATOM     12  O   UNL     1     -13.574   4.434   6.440  1.00  0.00    -0.373 OA
ATOM     13  H   UNL     1     -12.622   4.666   6.463  1.00  0.00     0.213 HD
ENDBRANCH   6  12
BRANCH   7  14
ATOM     14  C   UNL     1     -12.300   2.613   8.601  1.00  0.00     0.177 C 
BRANCH  14  15
ATOM     15  C   UNL     1     -11.977   1.269   9.281  1.00  0.00     0.038 C 
BRANCH  15  16
ATOM     16  C   UNL     1     -12.872   0.041   9.006  1.00  0.00    -0.015 C 
ATOM     17  C   UNL     1     -14.353   0.413   8.889  1.00  0.00     0.007 C 
ATOM     18  C   UNL     1     -12.720  -0.977  10.143  1.00  0.00     0.007 C 
ENDBRANCH  15  16
ENDBRANCH  14  15
BRANCH  14  19
ATOM     19  C   UNL     1     -11.755   4.013   9.050  1.00  0.00     0.245 C 
ATOM     20  O   UNL     1     -10.572   4.269   8.769  1.00  0.00    -0.272 OA
BRANCH  19  21
ATOM     21  N   UNL     1     -12.472   4.907   9.825  1.00  0.00    -0.332 N 
ATOM     22  C   UNL     1     -12.238   5.180  11.231  1.00  0.00     0.147 C 
BRANCH  21  23
ATOM     23  C   UNL     1     -13.587   5.651   9.176  1.00  0.00     0.178 C 
BRANCH  23  24
ATOM     24  C   UNL     1     -14.922   5.615   9.948  1.00  0.00     0.070 C 
BRANCH  24  25
ATOM     25  C   UNL     1     -15.975   4.649   9.458  1.00  0.00    -0.045 A 
ATOM     26  C   UNL     1     -16.364   3.554  10.240  1.00  0.00     0.004 A 
ATOM     27  C   UNL     1     -16.577   4.835   8.205  1.00  0.00     0.004 A 
ATOM     28  C   UNL     1     -17.325   2.656   9.772  1.00  0.00     0.000 A 
ATOM     29  C   UNL     1     -17.539   3.937   7.739  1.00  0.00     0.000 A 
ATOM     30  C   UNL     1     -17.910   2.846   8.523  1.00  0.00     0.000 A 
ENDBRANCH  24  25
ENDBRANCH  23  24
BRANCH  23  31
ATOM     31  C   UNL     1     -13.165   7.050   8.669  1.00  0.00     0.243 C 
ATOM     32  O   UNL     1     -12.878   7.990   9.406  1.00  0.00    -0.273 OA
ATOM     33  N   UNL     1     -13.317   7.212   7.302  1.00  0.00    -0.341 N 
ATOM     34  H   UNL     1     -13.563   6.394   6.741  1.00  0.00     0.164 HD
BRANCH  33  35
ATOM     35  C   UNL     1     -13.091   8.489   6.619  1.00  0.00     0.194 C 
BRANCH  35  36
ATOM     36  C   UNL     1     -14.396   9.250   6.248  1.00  0.00     0.017 C 
ATOM     37  C   UNL     1     -14.174  10.772   6.246  1.00  0.00     0.010 C 
ATOM     38  C   UNL     1     -15.558   8.958   7.205  1.00  0.00     0.010 C 
ENDBRANCH  35  36
BRANCH  35  39
ATOM     39  C   UNL     1     -12.132   8.356   5.404  1.00  0.00     0.329 C 
ATOM     40  O   UNL     1     -12.146   7.415   4.619  1.00  0.00    -0.250 OA
BRANCH  39  41
ATOM     41  O   UNL     1     -11.326   9.450   5.255  1.00  0.00    -0.458 OA
BRANCH  41  42
ATOM     42  C   UNL     1      -9.900   9.212   5.337  1.00  0.00     0.205 CG0
ATOM     43  C   UNL     1      -9.244  10.525   5.761  1.00  0.00     0.056 C 
ATOM     44  G   UNL     1      -9.404   8.722   3.962  1.00  0.00     0.000 G0
ENDBRANCH  41  42
ENDBRANCH  39  41
ENDBRANCH  35  39
ENDBRANCH  33  35
ENDBRANCH  23  31
ENDBRANCH  21  23
ENDBRANCH  19  21
ENDBRANCH  14  19
ENDBRANCH   7  14
ENDBRANCH   2   5
BRANCH   3  45
ATOM     45  C   UNL     1      -9.073   4.939   3.660  1.00  0.00     0.171 C 
BRANCH  45  46
ATOM     46  N   UNL     1      -9.463   6.335   3.521  1.00  0.00    -0.342 N 
ATOM     47  C   UNL     1      -8.754   7.359   4.098  1.00  0.00     0.247 C 
ATOM     48  O   UNL     1      -7.701   7.180   4.710  1.00  0.00    -0.273 OA
ATOM     49  H   UNL     1     -10.299   6.533   2.973  1.00  0.00     0.164 HD
BRANCH  47  50
ATOM     50  C   UNL     1      -9.384   8.751   3.949  1.00  0.00     0.212 CG0
ATOM     51  G   UNL     1      -9.889   9.187   5.338  1.00  0.00     0.000 G0
BRANCH  50  52
ATOM     52  N   UNL     1      -8.322   9.606   3.426  1.00  0.00    -0.339 N 
ATOM     53  C   UNL     1      -7.837   9.511   2.144  1.00  0.00     0.243 C 
ATOM     54  O   UNL     1      -8.226   8.659   1.351  1.00  0.00    -0.273 OA
ATOM     55  H   UNL     1      -7.880  10.259   4.071  1.00  0.00     0.164 HD
BRANCH  53  56
ATOM     56  C   UNL     1      -6.657  10.459   1.848  1.00  0.00     0.182 C 
BRANCH  56  57
ATOM     57  N   UNL     1      -5.482  10.104   2.650  1.00  0.00    -0.344 N 
ATOM     58  C   UNL     1      -4.367   9.518   2.103  1.00  0.00     0.220 C 
ATOM     59  O   UNL     1      -4.303   9.185   0.925  1.00  0.00    -0.275 OA
ATOM     60  H   UNL     1      -5.454  10.453   3.605  1.00  0.00     0.164 HD
BRANCH  58  61
ATOM     61  C   UNL     1      -3.251   9.293   3.107  1.00  0.00     0.100 C 
BRANCH  61  62
ATOM     62  C   UNL     1      -3.074   7.830   3.514  1.00  0.00     0.010 C 
BRANCH  62  63
ATOM     63  C   UNL     1      -4.371   7.012   3.493  1.00  0.00     0.000 C 
BRANCH  63  64
ATOM     64  C   UNL     1      -4.345   5.821   2.536  1.00  0.00    -0.003 C 
ATOM     65  C   UNL     1      -3.184   5.921   1.557  1.00  0.00     0.004 C 
ENDBRANCH  63  64
ENDBRANCH  62  63
ENDBRANCH  61  62
ENDBRANCH  58  61
ENDBRANCH  56  57
BRANCH  56  66
ATOM     66  C   UNL     1      -7.056  11.923   2.026  1.00  0.00     0.157 C 
BRANCH  66  67
ATOM     67  C   UNL     1      -6.174  12.829   1.217  1.00  0.00     0.305 C 
ATOM     68  O   UNL     1      -6.369  14.009   0.966  1.00  0.00    -0.252 OA
BRANCH  67  69
ATOM     69  O   UNL     1      -5.050  12.214   0.803  1.00  0.00    -0.481 OA
ATOM     70  H   UNL     1      -4.485  12.161   1.602  1.00  0.00     0.296 HD
ENDBRANCH  67  69
ENDBRANCH  66  67
ENDBRANCH  56  66
ENDBRANCH  53  56
ENDBRANCH  50  52
ENDBRANCH  47  50
ENDBRANCH  45  46
BRANCH  45  71
ATOM     71  C   UNL     1      -8.905   4.260   2.296  1.00  0.00     0.037 C 
BRANCH  71  72
ATOM     72  C   UNL     1      -7.970   3.050   2.366  1.00  0.00     0.026 C 
BRANCH  72  73
ATOM     73  C   UNL     1      -6.889   3.238   3.428  1.00  0.00     0.146 C 
BRANCH  73  74
ATOM     74  N   UNL     1      -7.298   2.499   4.619  1.00  0.00    -0.254 NA
ATOM     75  C   UNL     1      -6.843   2.890   5.752  1.00  0.00     0.185 C 
ATOM     76  N   UNL     1      -7.203   2.232   6.865  1.00  0.00    -0.370 N 
ATOM     77  N   UNL     1      -6.016   3.915   6.022  1.00  0.00    -0.370 N 
ATOM     78  H   UNL     1      -7.820   1.441   6.750  1.00  0.00     0.159 HD
ATOM     79  H   UNL     1      -6.777   2.387   7.762  1.00  0.00     0.159 HD
ATOM     80  H   UNL     1      -5.666   4.503   5.280  1.00  0.00     0.159 HD
ATOM     81  H   UNL     1      -5.818   4.199   6.967  1.00  0.00     0.159 HD
ENDBRANCH  73  74
ENDBRANCH  72  73
ENDBRANCH  71  72
ENDBRANCH  45  71
ENDBRANCH   3  45
TORSDOF 20
ENDMDL
MODEL 36
REMARK VINA RESULT:    -6.755      3.453      7.553
REMARK INTER + INTRA:         -24.136
REMARK INTER:                 -17.749
REMARK INTRA:                  -6.387
REMARK UNBOUND:                -4.745
REMARK SMILES CCCCCC(=O)N[C@H](CC(=O)O)C(=O)N[C@H]1C(=O)N[C@H](CCCN=C(N)N)C(=O)N[C@@H]2CC[C@H](O)N(C2=O)[C@@H](CC(C)C)C(=O)N(C)[C@@H](Cc2ccccc2)C(=O)N[C@H](C(C)C)C(=O)O[C@@H]1C
REMARK SMILES IDX 30 1 31 2 29 3 32 5 35 6 37 7 34 8 38 9 33 10 39 11 36 12
REMARK SMILES IDX 40 14 41 15 42 16 43 17 44 18 45 19 46 20 47 21 48 22 49 23
REMARK SMILES IDX 50 24 51 25 52 26 56 27 53 28 55 29 54 30 57 31 58 32 59 33
REMARK SMILES IDX 60 35 61 36 62 37 63 38 64 39 65 40 66 41 67 42 68 43 21 45
REMARK SMILES IDX 20 46 18 47 19 48 17 50 16 52 14 53 15 54 9 56 8 57 6 58
REMARK SMILES IDX 7 59 5 61 4 62 3 63 2 64 1 65 10 66 11 67 12 68 13 69 22 71
REMARK SMILES IDX 23 72 24 73 25 74 26 75 27 76 28 77
REMARK H PARENT 31 4 36 13 59 34 20 49 16 55 8 60 13 70 27 78 27 79 28 80
REMARK H PARENT 28 81
REMARK Flexibility Score:  259.900
ROOT
ATOM      1  O   UNL     1     -14.644   2.979   6.780  1.00  0.00    -0.273 OA
ATOM      2  N   UNL     1     -14.342   0.799   6.156  1.00  0.00    -0.343 N 
ATOM      3  C   UNL     1     -13.885   2.066   6.452  1.00  0.00     0.243 C 
ATOM      4  H   UNL     1     -13.687   0.069   5.904  1.00  0.00     0.164 HD
ENDROOT
BRANCH   2   5
ATOM      5  C   UNL     1     -15.772   0.519   6.104  1.00  0.00     0.171 C 
ATOM      6  C   UNL     1     -18.112   2.127   6.689  1.00  0.00     0.214 C 
ATOM      7  N   UNL     1     -17.520   1.327   7.736  1.00  0.00    -0.303 N 
ATOM      8  C   UNL     1     -17.928   1.534   5.301  1.00  0.00     0.057 C 
ATOM      9  C   UNL     1     -16.373   0.576   7.538  1.00  0.00     0.247 C 
ATOM     10  C   UNL     1     -16.454   1.346   5.015  1.00  0.00     0.040 C 
ATOM     11  O   UNL     1     -15.823  -0.038   8.461  1.00  0.00    -0.272 OA
BRANCH   6  12
ATOM     12  O   UNL     1     -17.540   3.413   6.755  1.00  0.00    -0.373 OA
ATOM     13  H   UNL     1     -16.682   3.322   7.222  1.00  0.00     0.213 HD
ENDBRANCH   6  12
BRANCH   7  14
ATOM     14  C   UNL     1     -18.105   1.453   9.088  1.00  0.00     0.177 C 
BRANCH  14  15
ATOM     15  C   UNL     1     -18.927   0.238   9.562  1.00  0.00     0.038 C 
BRANCH  15  16
ATOM     16  C   UNL     1     -20.275   0.465  10.280  1.00  0.00    -0.015 C 
ATOM     17  C   UNL     1     -21.066  -0.834  10.464  1.00  0.00     0.007 C 
ATOM     18  C   UNL     1     -21.137   1.441   9.468  1.00  0.00     0.007 C 
ENDBRANCH  15  16
ENDBRANCH  14  15
BRANCH  14  19
ATOM     19  C   UNL     1     -17.186   2.337   9.998  1.00  0.00     0.245 C 
ATOM     20  O   UNL     1     -16.971   3.499   9.614  1.00  0.00    -0.272 OA
BRANCH  19  21
ATOM     21  N   UNL     1     -16.526   1.865  11.119  1.00  0.00    -0.332 N 
ATOM     22  C   UNL     1     -16.745   0.572  11.743  1.00  0.00     0.147 C 
BRANCH  21  23
ATOM     23  C   UNL     1     -15.513   2.752  11.756  1.00  0.00     0.178 C 
BRANCH  23  24
ATOM     24  C   UNL     1     -15.107   2.344  13.186  1.00  0.00     0.070 C 
BRANCH  24  25
ATOM     25  C   UNL     1     -15.686   3.153  14.324  1.00  0.00    -0.045 A 
ATOM     26  C   UNL     1     -15.237   4.455  14.579  1.00  0.00     0.004 A 
ATOM     27  C   UNL     1     -16.682   2.606  15.146  1.00  0.00     0.004 A 
ATOM     28  C   UNL     1     -15.765   5.190  15.642  1.00  0.00     0.000 A 
ATOM     29  C   UNL     1     -17.210   3.342  16.208  1.00  0.00     0.000 A 
ATOM     30  C   UNL     1     -16.749   4.633  16.457  1.00  0.00     0.000 A 
ENDBRANCH  24  25
ENDBRANCH  23  24
BRANCH  23  31
ATOM     31  C   UNL     1     -14.333   3.093  10.815  1.00  0.00     0.243 C 
ATOM     32  O   UNL     1     -13.696   2.255  10.181  1.00  0.00    -0.273 OA
ATOM     33  N   UNL     1     -13.931   4.415  10.889  1.00  0.00    -0.341 N 
ATOM     34  H   UNL     1     -14.499   5.065  11.439  1.00  0.00     0.164 HD
BRANCH  33  35
ATOM     35  C   UNL     1     -12.760   4.935  10.178  1.00  0.00     0.194 C 
BRANCH  35  36
ATOM     36  C   UNL     1     -11.480   5.043  11.054  1.00  0.00     0.017 C 
ATOM     37  C   UNL     1     -10.465   3.942  10.700  1.00  0.00     0.010 C 
ATOM     38  C   UNL     1     -11.766   4.936  12.557  1.00  0.00     0.010 C 
ENDBRANCH  35  36
BRANCH  35  39
ATOM     39  C   UNL     1     -13.059   6.261   9.423  1.00  0.00     0.329 C 
ATOM     40  O   UNL     1     -13.335   7.318   9.977  1.00  0.00    -0.250 OA
BRANCH  39  41
ATOM     41  O   UNL     1     -12.894   6.137   8.071  1.00  0.00    -0.458 OA
BRANCH  41  42
ATOM     42  C   UNL     1     -11.702   6.740   7.513  1.00  0.00     0.205 CG0
ATOM     43  C   UNL     1     -12.056   8.176   7.130  1.00  0.00     0.056 C 
ATOM     44  G   UNL     1     -11.249   5.902   6.301  1.00  0.00     0.000 G0
ENDBRANCH  41  42
ENDBRANCH  39  41
ENDBRANCH  35  39
ENDBRANCH  33  35
ENDBRANCH  23  31
ENDBRANCH  21  23
ENDBRANCH  19  21
ENDBRANCH  14  19
ENDBRANCH   7  14
ENDBRANCH   2   5
BRANCH   3  45
ATOM     45  C   UNL     1     -12.365   2.253   6.365  1.00  0.00     0.171 C 
BRANCH  45  46
ATOM     46  N   UNL     1     -12.160   3.656   6.031  1.00  0.00    -0.342 N 
ATOM     47  C   UNL     1     -11.230   4.437   6.672  1.00  0.00     0.247 C 
ATOM     48  O   UNL     1     -10.455   3.994   7.520  1.00  0.00    -0.273 OA
ATOM     49  H   UNL     1     -12.742   4.050   5.294  1.00  0.00     0.164 HD
BRANCH  47  50
ATOM     50  C   UNL     1     -11.242   5.920   6.274  1.00  0.00     0.212 CG0
ATOM     51  G   UNL     1     -11.686   6.731   7.508  1.00  0.00     0.000 G0
BRANCH  50  52
ATOM     52  N   UNL     1      -9.879   6.220   5.846  1.00  0.00    -0.339 N 
ATOM     53  C   UNL     1      -9.520   6.392   4.532  1.00  0.00     0.243 C 
ATOM     54  O   UNL     1     -10.313   6.253   3.605  1.00  0.00    -0.273 OA
ATOM     55  H   UNL     1      -9.152   6.237   6.560  1.00  0.00     0.164 HD
BRANCH  53  56
ATOM     56  C   UNL     1      -8.009   6.614   4.318  1.00  0.00     0.182 C 
BRANCH  56  57
ATOM     57  N   UNL     1      -7.222   5.864   5.303  1.00  0.00    -0.344 N 
ATOM     58  C   UNL     1      -6.190   5.033   4.942  1.00  0.00     0.220 C 
ATOM     59  O   UNL     1      -5.902   4.802   3.772  1.00  0.00    -0.275 OA
ATOM     60  H   UNL     1      -7.360   6.104   6.281  1.00  0.00     0.164 HD
BRANCH  58  61
ATOM     61  C   UNL     1      -5.479   4.407   6.128  1.00  0.00     0.100 C 
BRANCH  61  62
ATOM     62  C   UNL     1      -6.252   4.524   7.441  1.00  0.00     0.010 C 
BRANCH  62  63
ATOM     63  C   UNL     1      -6.206   3.260   8.310  1.00  0.00     0.000 C 
BRANCH  63  64
ATOM     64  C   UNL     1      -7.045   2.101   7.776  1.00  0.00    -0.003 C 
ATOM     65  C   UNL     1      -8.110   1.678   8.777  1.00  0.00     0.004 C 
ENDBRANCH  63  64
ENDBRANCH  62  63
ENDBRANCH  61  62
ENDBRANCH  58  61
ENDBRANCH  56  57
BRANCH  56  66
ATOM     66  C   UNL     1      -7.656   8.100   4.309  1.00  0.00     0.157 C 
BRANCH  66  67
ATOM     67  C   UNL     1      -7.146   8.530   2.964  1.00  0.00     0.305 C 
ATOM     68  O   UNL     1      -7.790   9.057   2.070  1.00  0.00    -0.252 OA
BRANCH  67  69
ATOM     69  O   UNL     1      -5.823   8.320   2.827  1.00  0.00    -0.481 OA
ATOM     70  H   UNL     1      -5.680   8.240   1.861  1.00  0.00     0.296 HD
ENDBRANCH  67  69
ENDBRANCH  66  67
ENDBRANCH  56  66
ENDBRANCH  53  56
ENDBRANCH  50  52
ENDBRANCH  47  50
ENDBRANCH  45  46
BRANCH  45  71
ATOM     71  C   UNL     1     -11.773   1.326   5.298  1.00  0.00     0.037 C 
BRANCH  71  72
ATOM     72  C   UNL     1     -10.394   0.794   5.698  1.00  0.00     0.026 C 
BRANCH  72  73
ATOM     73  C   UNL     1      -9.272   1.649   5.113  1.00  0.00     0.146 C 
BRANCH  73  74
ATOM     74  N   UNL     1      -9.845   2.473   4.053  1.00  0.00    -0.254 NA
ATOM     75  C   UNL     1      -9.076   2.833   3.092  1.00  0.00     0.185 C 
ATOM     76  N   UNL     1      -9.574   3.590   2.101  1.00  0.00    -0.370 N 
ATOM     77  N   UNL     1      -7.774   2.557   2.904  1.00  0.00    -0.370 N 
ATOM     78  H   UNL     1     -10.548   3.850   2.170  1.00  0.00     0.159 HD
ATOM     79  H   UNL     1      -9.005   4.027   1.399  1.00  0.00     0.159 HD
ATOM     80  H   UNL     1      -7.267   1.993   3.568  1.00  0.00     0.159 HD
ATOM     81  H   UNL     1      -7.301   2.799   2.048  1.00  0.00     0.159 HD
ENDBRANCH  73  74
ENDBRANCH  72  73
ENDBRANCH  71  72
ENDBRANCH  45  71
ENDBRANCH   3  45
TORSDOF 20
ENDMDL
MODEL 37
REMARK VINA RESULT:    -6.713      4.348     10.472
REMARK INTER + INTRA:         -24.016
REMARK INTER:                 -18.790
REMARK INTRA:                  -5.225
REMARK UNBOUND:                -4.745
REMARK SMILES CCCCCC(=O)N[C@H](CC(=O)O)C(=O)N[C@H]1C(=O)N[C@H](CCCN=C(N)N)C(=O)N[C@@H]2CC[C@H](O)N(C2=O)[C@@H](CC(C)C)C(=O)N(C)[C@@H](Cc2ccccc2)C(=O)N[C@H](C(C)C)C(=O)O[C@@H]1C
REMARK SMILES IDX 30 1 31 2 29 3 32 5 35 6 37 7 34 8 38 9 33 10 39 11 36 12
REMARK SMILES IDX 40 14 41 15 42 16 43 17 44 18 45 19 46 20 47 21 48 22 49 23
REMARK SMILES IDX 50 24 51 25 52 26 56 27 53 28 55 29 54 30 57 31 58 32 59 33
REMARK SMILES IDX 60 35 61 36 62 37 63 38 64 39 65 40 66 41 67 42 68 43 21 45
REMARK SMILES IDX 20 46 18 47 19 48 17 50 16 52 14 53 15 54 9 56 8 57 6 58
REMARK SMILES IDX 7 59 5 61 4 62 3 63 2 64 1 65 10 66 11 67 12 68 13 69 22 71
REMARK SMILES IDX 23 72 24 73 25 74 26 75 27 76 28 77
REMARK H PARENT 31 4 36 13 59 34 20 49 16 55 8 60 13 70 27 78 27 79 28 80
REMARK H PARENT 28 81
REMARK Flexibility Score:  259.900
ROOT
ATOM      1  O   UNL     1     -10.679   1.897   5.799  1.00  0.00    -0.273 OA
ATOM      2  N   UNL     1     -11.439  -0.028   6.773  1.00  0.00    -0.343 N 
ATOM      3  C   UNL     1     -10.490   0.949   6.562  1.00  0.00     0.243 C 
ATOM      4  H   UNL     1     -11.255  -0.786   7.419  1.00  0.00     0.164 HD
ENDROOT
BRANCH   2   5
ATOM      5  C   UNL     1     -12.676  -0.041   5.999  1.00  0.00     0.171 C 
ATOM      6  C   UNL     1     -14.106   2.021   4.547  1.00  0.00     0.214 C 
ATOM      7  N   UNL     1     -14.425   1.778   5.935  1.00  0.00    -0.303 N 
ATOM      8  C   UNL     1     -13.616   0.781   3.816  1.00  0.00     0.057 C 
ATOM      9  C   UNL     1     -13.746   0.844   6.700  1.00  0.00     0.247 C 
ATOM     10  C   UNL     1     -12.399   0.219   4.519  1.00  0.00     0.040 C 
ATOM     11  O   UNL     1     -13.966   0.702   7.910  1.00  0.00    -0.272 OA
BRANCH   6  12
ATOM     12  O   UNL     1     -13.131   3.037   4.501  1.00  0.00    -0.373 OA
ATOM     13  H   UNL     1     -13.497   3.763   3.952  1.00  0.00     0.213 HD
ENDBRANCH   6  12
BRANCH   7  14
ATOM     14  C   UNL     1     -15.418   2.676   6.562  1.00  0.00     0.177 C 
BRANCH  14  15
ATOM     15  C   UNL     1     -16.758   2.013   6.936  1.00  0.00     0.038 C 
BRANCH  15  16
ATOM     16  C   UNL     1     -17.882   1.921   5.880  1.00  0.00    -0.015 C 
ATOM     17  C   UNL     1     -17.747   0.683   4.989  1.00  0.00     0.007 C 
ATOM     18  C   UNL     1     -17.854   3.164   4.982  1.00  0.00     0.007 C 
ENDBRANCH  15  16
ENDBRANCH  14  15
BRANCH  14  19
ATOM     19  C   UNL     1     -14.694   3.791   7.393  1.00  0.00     0.245 C 
ATOM     20  O   UNL     1     -13.462   3.689   7.511  1.00  0.00    -0.272 OA
BRANCH  19  21
ATOM     21  N   UNL     1     -15.356   4.794   8.078  1.00  0.00    -0.332 N 
ATOM     22  C   UNL     1     -16.559   4.620   8.873  1.00  0.00     0.147 C 
BRANCH  21  23
ATOM     23  C   UNL     1     -14.806   6.175   7.993  1.00  0.00     0.178 C 
BRANCH  23  24
ATOM     24  C   UNL     1     -15.638   7.248   8.724  1.00  0.00     0.070 C 
BRANCH  24  25
ATOM     25  C   UNL     1     -16.312   8.297   7.871  1.00  0.00    -0.045 A 
ATOM     26  C   UNL     1     -15.566   9.102   7.001  1.00  0.00     0.004 A 
ATOM     27  C   UNL     1     -17.701   8.483   7.942  1.00  0.00     0.004 A 
ATOM     28  C   UNL     1     -16.194  10.081   6.228  1.00  0.00     0.000 A 
ATOM     29  C   UNL     1     -18.327   9.461   7.168  1.00  0.00     0.000 A 
ATOM     30  C   UNL     1     -17.572  10.261   6.314  1.00  0.00     0.000 A 
ENDBRANCH  24  25
ENDBRANCH  23  24
BRANCH  23  31
ATOM     31  C   UNL     1     -13.284   6.237   8.262  1.00  0.00     0.243 C 
ATOM     32  O   UNL     1     -12.785   6.273   9.384  1.00  0.00    -0.273 OA
ATOM     33  N   UNL     1     -12.527   6.435   7.119  1.00  0.00    -0.341 N 
ATOM     34  H   UNL     1     -13.000   6.400   6.213  1.00  0.00     0.164 HD
BRANCH  33  35
ATOM     35  C   UNL     1     -11.077   6.642   7.147  1.00  0.00     0.194 C 
BRANCH  35  36
ATOM     36  C   UNL     1     -10.597   7.882   6.342  1.00  0.00     0.017 C 
ATOM     37  C   UNL     1     -10.401   9.103   7.258  1.00  0.00     0.010 C 
ATOM     38  C   UNL     1     -11.569   8.294   5.230  1.00  0.00     0.010 C 
ENDBRANCH  35  36
BRANCH  35  39
ATOM     39  C   UNL     1     -10.283   5.361   6.768  1.00  0.00     0.329 C 
ATOM     40  O   UNL     1      -9.578   5.260   5.771  1.00  0.00    -0.250 OA
BRANCH  39  41
ATOM     41  O   UNL     1     -10.388   4.383   7.719  1.00  0.00    -0.458 OA
BRANCH  41  42
ATOM     42  C   UNL     1      -9.731   4.645   8.983  1.00  0.00     0.205 CG0
ATOM     43  C   UNL     1      -8.236   4.777   8.699  1.00  0.00     0.056 C 
ATOM     44  G   UNL     1     -10.047   3.486   9.950  1.00  0.00     0.000 G0
ENDBRANCH  41  42
ENDBRANCH  39  41
ENDBRANCH  35  39
ENDBRANCH  33  35
ENDBRANCH  23  31
ENDBRANCH  21  23
ENDBRANCH  19  21
ENDBRANCH  14  19
ENDBRANCH   7  14
ENDBRANCH   2   5
BRANCH   3  45
ATOM     45  C   UNL     1      -9.190   0.784   7.361  1.00  0.00     0.171 C 
BRANCH  45  46
ATOM     46  N   UNL     1      -9.157   1.902   8.294  1.00  0.00    -0.342 N 
ATOM     47  C   UNL     1     -10.193   2.176   9.151  1.00  0.00     0.247 C 
ATOM     48  O   UNL     1     -11.190   1.459   9.246  1.00  0.00    -0.273 OA
ATOM     49  H   UNL     1      -8.325   2.490   8.288  1.00  0.00     0.164 HD
BRANCH  47  50
ATOM     50  C   UNL     1     -10.035   3.465   9.971  1.00  0.00     0.212 CG0
ATOM     51  G   UNL     1      -9.752   4.615   8.985  1.00  0.00     0.000 G0
BRANCH  50  52
ATOM     52  N   UNL     1     -11.293   3.622  10.696  1.00  0.00    -0.339 N 
ATOM     53  C   UNL     1     -11.457   3.267  12.013  1.00  0.00     0.243 C 
ATOM     54  O   UNL     1     -10.566   2.737  12.671  1.00  0.00    -0.273 OA
ATOM     55  H   UNL     1     -12.102   3.953  10.173  1.00  0.00     0.164 HD
BRANCH  53  56
ATOM     56  C   UNL     1     -12.896   3.445  12.537  1.00  0.00     0.182 C 
BRANCH  56  57
ATOM     57  N   UNL     1     -13.876   2.968  11.556  1.00  0.00    -0.344 N 
ATOM     58  C   UNL     1     -14.925   2.152  11.900  1.00  0.00     0.220 C 
ATOM     59  O   UNL     1     -15.075   1.705  13.033  1.00  0.00    -0.275 OA
ATOM     60  H   UNL     1     -13.848   3.394  10.633  1.00  0.00     0.164 HD
BRANCH  58  61
ATOM     61  C   UNL     1     -15.846   1.832  10.737  1.00  0.00     0.100 C 
BRANCH  61  62
ATOM     62  C   UNL     1     -17.332   1.921  11.085  1.00  0.00     0.010 C 
BRANCH  62  63
ATOM     63  C   UNL     1     -18.266   1.393   9.988  1.00  0.00     0.000 C 
BRANCH  63  64
ATOM     64  C   UNL     1     -19.256   0.331  10.465  1.00  0.00    -0.003 C 
ATOM     65  C   UNL     1     -20.655   0.595   9.927  1.00  0.00     0.004 C 
ENDBRANCH  63  64
ENDBRANCH  62  63
ENDBRANCH  61  62
ENDBRANCH  58  61
ENDBRANCH  56  57
BRANCH  56  66
ATOM     66  C   UNL     1     -13.162   4.887  12.964  1.00  0.00     0.157 C 
BRANCH  66  67
ATOM     67  C   UNL     1     -14.592   5.273  12.715  1.00  0.00     0.305 C 
ATOM     68  O   UNL     1     -15.556   5.003  13.415  1.00  0.00    -0.252 OA
BRANCH  67  69
ATOM     69  O   UNL     1     -14.732   6.032  11.612  1.00  0.00    -0.481 OA
ATOM     70  H   UNL     1     -13.827   6.349  11.409  1.00  0.00     0.296 HD
ENDBRANCH  67  69
ENDBRANCH  66  67
ENDBRANCH  56  66
ENDBRANCH  53  56
ENDBRANCH  50  52
ENDBRANCH  47  50
ENDBRANCH  45  46
BRANCH  45  71
ATOM     71  C   UNL     1      -7.980   0.798   6.420  1.00  0.00     0.037 C 
BRANCH  71  72
ATOM     72  C   UNL     1      -7.204   2.115   6.499  1.00  0.00     0.026 C 
BRANCH  72  73
ATOM     73  C   UNL     1      -6.908   2.675   5.109  1.00  0.00     0.146 C 
BRANCH  73  74
ATOM     74  N   UNL     1      -6.616   1.550   4.226  1.00  0.00    -0.254 NA
ATOM     75  C   UNL     1      -5.707   1.707   3.336  1.00  0.00     0.185 C 
ATOM     76  N   UNL     1      -5.414   0.690   2.510  1.00  0.00    -0.370 N 
ATOM     77  N   UNL     1      -4.953   2.791   3.081  1.00  0.00    -0.370 N 
ATOM     78  H   UNL     1      -5.942  -0.163   2.630  1.00  0.00     0.159 HD
ATOM     79  H   UNL     1      -4.824   0.784   1.703  1.00  0.00     0.159 HD
ATOM     80  H   UNL     1      -5.061   3.632   3.627  1.00  0.00     0.159 HD
ATOM     81  H   UNL     1      -4.187   2.760   2.428  1.00  0.00     0.159 HD
ENDBRANCH  73  74
ENDBRANCH  72  73
ENDBRANCH  71  72
ENDBRANCH  45  71
ENDBRANCH   3  45
TORSDOF 20
ENDMDL
MODEL 38
REMARK VINA RESULT:    -6.694      3.982      7.255
REMARK INTER + INTRA:         -23.962
REMARK INTER:                 -19.004
REMARK INTRA:                  -4.958
REMARK UNBOUND:                -4.745
REMARK SMILES CCCCCC(=O)N[C@H](CC(=O)O)C(=O)N[C@H]1C(=O)N[C@H](CCCN=C(N)N)C(=O)N[C@@H]2CC[C@H](O)N(C2=O)[C@@H](CC(C)C)C(=O)N(C)[C@@H](Cc2ccccc2)C(=O)N[C@H](C(C)C)C(=O)O[C@@H]1C
REMARK SMILES IDX 30 1 31 2 29 3 32 5 35 6 37 7 34 8 38 9 33 10 39 11 36 12
REMARK SMILES IDX 40 14 41 15 42 16 43 17 44 18 45 19 46 20 47 21 48 22 49 23
REMARK SMILES IDX 50 24 51 25 52 26 56 27 53 28 55 29 54 30 57 31 58 32 59 33
REMARK SMILES IDX 60 35 61 36 62 37 63 38 64 39 65 40 66 41 67 42 68 43 21 45
REMARK SMILES IDX 20 46 18 47 19 48 17 50 16 52 14 53 15 54 9 56 8 57 6 58
REMARK SMILES IDX 7 59 5 61 4 62 3 63 2 64 1 65 10 66 11 67 12 68 13 69 22 71
REMARK SMILES IDX 23 72 24 73 25 74 26 75 27 76 28 77
REMARK H PARENT 31 4 36 13 59 34 20 49 16 55 8 60 13 70 27 78 27 79 28 80
REMARK H PARENT 28 81
REMARK Flexibility Score:  259.900
ROOT
ATOM      1  O   UNL     1     -11.105   3.286   4.871  1.00  0.00    -0.273 OA
ATOM      2  N   UNL     1     -10.352   1.341   3.932  1.00  0.00    -0.343 N 
ATOM      3  C   UNL     1     -10.304   2.703   4.139  1.00  0.00     0.243 C 
ATOM      4  H   UNL     1      -9.667   0.894   3.335  1.00  0.00     0.164 HD
ENDROOT
BRANCH   2   5
ATOM      5  C   UNL     1     -11.441   0.544   4.485  1.00  0.00     0.171 C 
ATOM      6  C   UNL     1     -13.668   1.197   6.223  1.00  0.00     0.214 C 
ATOM      7  N   UNL     1     -12.423   0.746   6.802  1.00  0.00    -0.303 N 
ATOM      8  C   UNL     1     -13.929   0.625   4.839  1.00  0.00     0.057 C 
ATOM      9  C   UNL     1     -11.305   0.467   6.033  1.00  0.00     0.247 C 
ATOM     10  C   UNL     1     -12.788   0.982   3.912  1.00  0.00     0.040 C 
ATOM     11  O   UNL     1     -10.218   0.165   6.542  1.00  0.00    -0.272 OA
BRANCH   6  12
ATOM     12  O   UNL     1     -13.636   2.604   6.176  1.00  0.00    -0.373 OA
ATOM     13  H   UNL     1     -13.308   2.914   7.048  1.00  0.00     0.213 HD
ENDBRANCH   6  12
BRANCH   7  14
ATOM     14  C   UNL     1     -12.336   0.733   8.277  1.00  0.00     0.177 C 
BRANCH  14  15
ATOM     15  C   UNL     1     -11.260   1.658   8.879  1.00  0.00     0.038 C 
BRANCH  15  16
ATOM     16  C   UNL     1     -10.523   1.230  10.167  1.00  0.00    -0.015 C 
ATOM     17  C   UNL     1     -10.356   2.386  11.158  1.00  0.00     0.007 C 
ATOM     18  C   UNL     1      -9.128   0.696   9.814  1.00  0.00     0.007 C 
ENDBRANCH  15  16
ENDBRANCH  14  15
BRANCH  14  19
ATOM     19  C   UNL     1     -13.746   0.455   8.903  1.00  0.00     0.245 C 
ATOM     20  O   UNL     1     -14.243  -0.663   8.687  1.00  0.00    -0.272 OA
BRANCH  19  21
ATOM     21  N   UNL     1     -14.495   1.408   9.570  1.00  0.00    -0.332 N 
ATOM     22  C   UNL     1     -15.037   1.268  10.910  1.00  0.00     0.147 C 
BRANCH  21  23
ATOM     23  C   UNL     1     -14.788   2.685   8.862  1.00  0.00     0.178 C 
BRANCH  23  24
ATOM     24  C   UNL     1     -16.288   2.999   8.690  1.00  0.00     0.070 C 
BRANCH  24  25
ATOM     25  C   UNL     1     -16.937   2.572   7.394  1.00  0.00    -0.045 A 
ATOM     26  C   UNL     1     -17.341   1.245   7.198  1.00  0.00     0.004 A 
ATOM     27  C   UNL     1     -17.139   3.502   6.363  1.00  0.00     0.004 A 
ATOM     28  C   UNL     1     -17.925   0.854   5.990  1.00  0.00     0.000 A 
ATOM     29  C   UNL     1     -17.723   3.110   5.158  1.00  0.00     0.000 A 
ATOM     30  C   UNL     1     -18.113   1.785   4.971  1.00  0.00     0.000 A 
ENDBRANCH  24  25
ENDBRANCH  23  24
BRANCH  23  31
ATOM     31  C   UNL     1     -13.928   3.867   9.369  1.00  0.00     0.243 C 
ATOM     32  O   UNL     1     -14.051   4.379  10.479  1.00  0.00    -0.273 OA
ATOM     33  N   UNL     1     -13.125   4.428   8.390  1.00  0.00    -0.341 N 
ATOM     34  H   UNL     1     -13.069   3.960   7.482  1.00  0.00     0.164 HD
BRANCH  33  35
ATOM     35  C   UNL     1     -12.317   5.629   8.612  1.00  0.00     0.194 C 
BRANCH  35  36
ATOM     36  C   UNL     1     -13.082   6.962   8.378  1.00  0.00     0.017 C 
ATOM     37  C   UNL     1     -13.328   7.706   9.702  1.00  0.00     0.010 C 
ATOM     38  C   UNL     1     -14.445   6.766   7.702  1.00  0.00     0.010 C 
ENDBRANCH  35  36
BRANCH  35  39
ATOM     39  C   UNL     1     -10.967   5.592   7.841  1.00  0.00     0.329 C 
ATOM     40  O   UNL     1     -10.008   4.904   8.170  1.00  0.00    -0.250 OA
BRANCH  39  41
ATOM     41  O   UNL     1     -10.998   6.349   6.703  1.00  0.00    -0.458 OA
BRANCH  41  42
ATOM     42  C   UNL     1      -9.829   7.164   6.443  1.00  0.00     0.205 CG0
ATOM     43  C   UNL     1     -10.213   8.613   6.732  1.00  0.00     0.056 C 
ATOM     44  G   UNL     1      -9.396   6.950   4.979  1.00  0.00     0.000 G0
ENDBRANCH  41  42
ENDBRANCH  39  41
ENDBRANCH  35  39
ENDBRANCH  33  35
ENDBRANCH  23  31
ENDBRANCH  21  23
ENDBRANCH  19  21
ENDBRANCH  14  19
ENDBRANCH   7  14
ENDBRANCH   2   5
BRANCH   3  45
ATOM     45  C   UNL     1      -9.171   3.439   3.413  1.00  0.00     0.171 C 
BRANCH  45  46
ATOM     46  N   UNL     1      -9.392   4.856   3.671  1.00  0.00    -0.342 N 
ATOM     47  C   UNL     1      -8.933   5.478   4.804  1.00  0.00     0.247 C 
ATOM     48  O   UNL     1      -8.240   4.907   5.647  1.00  0.00    -0.273 OA
ATOM     49  H   UNL     1      -9.913   5.381   2.971  1.00  0.00     0.164 HD
BRANCH  47  50
ATOM     50  C   UNL     1      -9.368   6.942   4.964  1.00  0.00     0.212 CG0
ATOM     51  G   UNL     1      -9.804   7.143   6.428  1.00  0.00     0.000 G0
BRANCH  50  52
ATOM     52  N   UNL     1      -8.200   7.738   4.595  1.00  0.00    -0.339 N 
ATOM     53  C   UNL     1      -7.958   8.177   3.316  1.00  0.00     0.243 C 
ATOM     54  O   UNL     1      -8.682   7.886   2.368  1.00  0.00    -0.273 OA
ATOM     55  H   UNL     1      -7.504   7.918   5.316  1.00  0.00     0.164 HD
BRANCH  53  56
ATOM     56  C   UNL     1      -6.620   8.925   3.152  1.00  0.00     0.182 C 
BRANCH  56  57
ATOM     57  N   UNL     1      -6.800  10.166   2.392  1.00  0.00    -0.344 N 
ATOM     58  C   UNL     1      -7.317  11.307   2.957  1.00  0.00     0.220 C 
ATOM     59  O   UNL     1      -7.730  11.347   4.111  1.00  0.00    -0.275 OA
ATOM     60  H   UNL     1      -6.379  10.205   1.468  1.00  0.00     0.164 HD
BRANCH  58  61
ATOM     61  C   UNL     1      -7.358  12.485   2.002  1.00  0.00     0.100 C 
BRANCH  61  62
ATOM     62  C   UNL     1      -6.075  12.666   1.190  1.00  0.00     0.010 C 
BRANCH  62  63
ATOM     63  C   UNL     1      -5.995  13.997   0.432  1.00  0.00     0.000 C 
BRANCH  63  64
ATOM     64  C   UNL     1      -4.571  14.457   0.123  1.00  0.00    -0.003 C 
ATOM     65  C   UNL     1      -3.980  13.685  -1.048  1.00  0.00     0.004 C 
ENDBRANCH  63  64
ENDBRANCH  62  63
ENDBRANCH  61  62
ENDBRANCH  58  61
ENDBRANCH  56  57
BRANCH  56  66
ATOM     66  C   UNL     1      -5.546   8.026   2.541  1.00  0.00     0.157 C 
BRANCH  66  67
ATOM     67  C   UNL     1      -4.187   8.657   2.640  1.00  0.00     0.305 C 
ATOM     68  O   UNL     1      -3.719   9.509   1.900  1.00  0.00    -0.252 OA
BRANCH  67  69
ATOM     69  O   UNL     1      -3.496   8.218   3.709  1.00  0.00    -0.481 OA
ATOM     70  H   UNL     1      -4.137   7.678   4.217  1.00  0.00     0.296 HD
ENDBRANCH  67  69
ENDBRANCH  66  67
ENDBRANCH  56  66
ENDBRANCH  53  56
ENDBRANCH  50  52
ENDBRANCH  47  50
ENDBRANCH  45  46
BRANCH  45  71
ATOM     71  C   UNL     1      -9.206   3.125   1.913  1.00  0.00     0.037 C 
BRANCH  71  72
ATOM     72  C   UNL     1      -7.922   2.440   1.438  1.00  0.00     0.026 C 
BRANCH  72  73
ATOM     73  C   UNL     1      -7.088   1.935   2.614  1.00  0.00     0.146 C 
BRANCH  73  74
ATOM     74  N   UNL     1      -5.713   2.381   2.411  1.00  0.00    -0.254 NA
ATOM     75  C   UNL     1      -5.244   3.260   3.217  1.00  0.00     0.185 C 
ATOM     76  N   UNL     1      -3.981   3.689   3.057  1.00  0.00    -0.370 N 
ATOM     77  N   UNL     1      -5.846   3.859   4.259  1.00  0.00    -0.370 N 
ATOM     78  H   UNL     1      -3.458   3.294   2.289  1.00  0.00     0.159 HD
ATOM     79  H   UNL     1      -3.596   4.474   3.552  1.00  0.00     0.159 HD
ATOM     80  H   UNL     1      -6.799   3.631   4.502  1.00  0.00     0.159 HD
ATOM     81  H   UNL     1      -5.338   4.453   4.893  1.00  0.00     0.159 HD
ENDBRANCH  73  74
ENDBRANCH  72  73
ENDBRANCH  71  72
ENDBRANCH  45  71
ENDBRANCH   3  45
TORSDOF 20
ENDMDL
MODEL 39
REMARK VINA RESULT:    -6.674      4.545     10.738
REMARK INTER + INTRA:         -23.904
REMARK INTER:                 -18.444
REMARK INTRA:                  -5.459
REMARK UNBOUND:                -4.745
REMARK SMILES CCCCCC(=O)N[C@H](CC(=O)O)C(=O)N[C@H]1C(=O)N[C@H](CCCN=C(N)N)C(=O)N[C@@H]2CC[C@H](O)N(C2=O)[C@@H](CC(C)C)C(=O)N(C)[C@@H](Cc2ccccc2)C(=O)N[C@H](C(C)C)C(=O)O[C@@H]1C
REMARK SMILES IDX 30 1 31 2 29 3 32 5 35 6 37 7 34 8 38 9 33 10 39 11 36 12
REMARK SMILES IDX 40 14 41 15 42 16 43 17 44 18 45 19 46 20 47 21 48 22 49 23
REMARK SMILES IDX 50 24 51 25 52 26 56 27 53 28 55 29 54 30 57 31 58 32 59 33
REMARK SMILES IDX 60 35 61 36 62 37 63 38 64 39 65 40 66 41 67 42 68 43 21 45
REMARK SMILES IDX 20 46 18 47 19 48 17 50 16 52 14 53 15 54 9 56 8 57 6 58
REMARK SMILES IDX 7 59 5 61 4 62 3 63 2 64 1 65 10 66 11 67 12 68 13 69 22 71
REMARK SMILES IDX 23 72 24 73 25 74 26 75 27 76 28 77
REMARK H PARENT 31 4 36 13 59 34 20 49 16 55 8 60 13 70 27 78 27 79 28 80
REMARK H PARENT 28 81
REMARK Flexibility Score:  259.900
ROOT
ATOM      1  O   UNL     1     -13.397  -0.700   6.973  1.00  0.00    -0.273 OA
ATOM      2  N   UNL     1     -13.683   1.562   7.155  1.00  0.00    -0.343 N 
ATOM      3  C   UNL     1     -13.629   0.286   7.674  1.00  0.00     0.243 C 
ATOM      4  H   UNL     1     -13.862   2.350   7.764  1.00  0.00     0.164 HD
ENDROOT
BRANCH   2   5
ATOM      5  C   UNL     1     -13.581   1.783   5.717  1.00  0.00     0.171 C 
ATOM      6  C   UNL     1     -11.524   1.155   3.773  1.00  0.00     0.214 C 
ATOM      7  N   UNL     1     -11.502   2.435   4.442  1.00  0.00    -0.303 N 
ATOM      8  C   UNL     1     -12.925   0.589   3.604  1.00  0.00     0.057 C 
ATOM      9  C   UNL     1     -12.424   2.779   5.417  1.00  0.00     0.247 C 
ATOM     10  C   UNL     1     -13.592   0.459   4.956  1.00  0.00     0.040 C 
ATOM     11  O   UNL     1     -12.347   3.842   6.047  1.00  0.00    -0.272 OA
BRANCH   6  12
ATOM     12  O   UNL     1     -10.720   0.267   4.515  1.00  0.00    -0.373 OA
ATOM     13  H   UNL     1      -9.790   0.434   4.253  1.00  0.00     0.213 HD
ENDBRANCH   6  12
BRANCH   7  14
ATOM     14  C   UNL     1     -10.357   3.324   4.151  1.00  0.00     0.177 C 
BRANCH  14  15
ATOM     15  C   UNL     1     -10.658   4.486   3.186  1.00  0.00     0.038 C 
BRANCH  15  16
ATOM     16  C   UNL     1      -9.530   5.039   2.286  1.00  0.00    -0.015 C 
ATOM     17  C   UNL     1     -10.052   6.021   1.232  1.00  0.00     0.007 C 
ATOM     18  C   UNL     1      -8.832   3.882   1.560  1.00  0.00     0.007 C 
ENDBRANCH  15  16
ENDBRANCH  14  15
BRANCH  14  19
ATOM     19  C   UNL     1      -9.398   3.397   5.389  1.00  0.00     0.245 C 
ATOM     20  O   UNL     1      -9.000   2.316   5.854  1.00  0.00    -0.272 OA
BRANCH  19  21
ATOM     21  N   UNL     1      -9.072   4.572   6.043  1.00  0.00    -0.332 N 
ATOM     22  C   UNL     1      -9.699   5.863   5.820  1.00  0.00     0.147 C 
BRANCH  21  23
ATOM     23  C   UNL     1      -7.982   4.526   7.056  1.00  0.00     0.178 C 
BRANCH  23  24
ATOM     24  C   UNL     1      -6.771   5.429   6.744  1.00  0.00     0.070 C 
BRANCH  24  25
ATOM     25  C   UNL     1      -6.011   5.144   5.470  1.00  0.00    -0.045 A 
ATOM     26  C   UNL     1      -6.187   5.945   4.334  1.00  0.00     0.004 A 
ATOM     27  C   UNL     1      -5.117   4.064   5.405  1.00  0.00     0.004 A 
ATOM     28  C   UNL     1      -5.493   5.665   3.155  1.00  0.00     0.000 A 
ATOM     29  C   UNL     1      -4.423   3.786   4.227  1.00  0.00     0.000 A 
ATOM     30  C   UNL     1      -4.614   4.585   3.101  1.00  0.00     0.000 A 
ENDBRANCH  24  25
ENDBRANCH  23  24
BRANCH  23  31
ATOM     31  C   UNL     1      -8.504   4.616   8.510  1.00  0.00     0.243 C 
ATOM     32  O   UNL     1      -7.864   5.100   9.441  1.00  0.00    -0.273 OA
ATOM     33  N   UNL     1      -9.690   3.931   8.715  1.00  0.00    -0.341 N 
ATOM     34  H   UNL     1     -10.174   3.544   7.901  1.00  0.00     0.164 HD
BRANCH  33  35
ATOM     35  C   UNL     1     -10.307   3.781  10.036  1.00  0.00     0.194 C 
BRANCH  35  36
ATOM     36  C   UNL     1     -10.209   2.345  10.623  1.00  0.00     0.017 C 
ATOM     37  C   UNL     1     -10.182   2.369  12.161  1.00  0.00     0.010 C 
ATOM     38  C   UNL     1      -8.962   1.584  10.154  1.00  0.00     0.010 C 
ENDBRANCH  35  36
BRANCH  35  39
ATOM     39  C   UNL     1     -11.761   4.328  10.082  1.00  0.00     0.329 C 
ATOM     40  O   UNL     1     -12.109   5.395   9.588  1.00  0.00    -0.250 OA
BRANCH  39  41
ATOM     41  O   UNL     1     -12.631   3.446  10.661  1.00  0.00    -0.458 OA
BRANCH  41  42
ATOM     42  C   UNL     1     -13.702   4.023  11.445  1.00  0.00     0.205 CG0
ATOM     43  C   UNL     1     -13.316   3.880  12.916  1.00  0.00     0.056 C 
ATOM     44  G   UNL     1     -15.012   3.285  11.105  1.00  0.00     0.000 G0
ENDBRANCH  41  42
ENDBRANCH  39  41
ENDBRANCH  35  39
ENDBRANCH  33  35
ENDBRANCH  23  31
ENDBRANCH  21  23
ENDBRANCH  19  21
ENDBRANCH  14  19
ENDBRANCH   7  14
ENDBRANCH   2   5
BRANCH   3  45
ATOM     45  C   UNL     1     -13.859   0.181   9.187  1.00  0.00     0.171 C 
BRANCH  45  46
ATOM     46  N   UNL     1     -14.130   1.540   9.639  1.00  0.00    -0.342 N 
ATOM     47  C   UNL     1     -14.728   1.809  10.844  1.00  0.00     0.247 C 
ATOM     48  O   UNL     1     -15.011   0.932  11.661  1.00  0.00    -0.273 OA
ATOM     49  H   UNL     1     -13.859   2.300   9.017  1.00  0.00     0.164 HD
BRANCH  47  50
ATOM     50  C   UNL     1     -15.046   3.290  11.095  1.00  0.00     0.212 CG0
ATOM     51  G   UNL     1     -13.724   3.998  11.452  1.00  0.00     0.000 G0
BRANCH  50  52
ATOM     52  N   UNL     1     -15.644   3.775   9.854  1.00  0.00    -0.339 N 
ATOM     53  C   UNL     1     -16.898   3.411   9.426  1.00  0.00     0.243 C 
ATOM     54  O   UNL     1     -17.595   2.603  10.033  1.00  0.00    -0.273 OA
ATOM     55  H   UNL     1     -15.071   4.362   9.251  1.00  0.00     0.164 HD
BRANCH  53  56
ATOM     56  C   UNL     1     -17.280   3.982   8.045  1.00  0.00     0.182 C 
BRANCH  56  57
ATOM     57  N   UNL     1     -17.945   5.282   8.179  1.00  0.00    -0.344 N 
ATOM     58  C   UNL     1     -17.246   6.458   8.298  1.00  0.00     0.220 C 
ATOM     59  O   UNL     1     -16.023   6.498   8.376  1.00  0.00    -0.275 OA
ATOM     60  H   UNL     1     -18.949   5.304   8.017  1.00  0.00     0.164 HD
BRANCH  58  61
ATOM     61  C   UNL     1     -18.138   7.684   8.364  1.00  0.00     0.100 C 
BRANCH  61  62
ATOM     62  C   UNL     1     -17.405   8.995   8.082  1.00  0.00     0.010 C 
BRANCH  62  63
ATOM     63  C   UNL     1     -17.628   9.548   6.668  1.00  0.00     0.000 C 
BRANCH  63  64
ATOM     64  C   UNL     1     -16.342   9.923   5.932  1.00  0.00    -0.003 C 
ATOM     65  C   UNL     1     -15.597  11.038   6.650  1.00  0.00     0.004 C 
ENDBRANCH  63  64
ENDBRANCH  62  63
ENDBRANCH  61  62
ENDBRANCH  58  61
ENDBRANCH  56  57
BRANCH  56  66
ATOM     66  C   UNL     1     -18.113   2.987   7.239  1.00  0.00     0.157 C 
BRANCH  66  67
ATOM     67  C   UNL     1     -17.240   2.113   6.385  1.00  0.00     0.305 C 
ATOM     68  O   UNL     1     -16.736   1.047   6.702  1.00  0.00    -0.252 OA
BRANCH  67  69
ATOM     69  O   UNL     1     -17.085   2.606   5.141  1.00  0.00    -0.481 OA
ATOM     70  H   UNL     1     -17.944   3.031   4.932  1.00  0.00     0.296 HD
ENDBRANCH  67  69
ENDBRANCH  66  67
ENDBRANCH  56  66
ENDBRANCH  53  56
ENDBRANCH  50  52
ENDBRANCH  47  50
ENDBRANCH  45  46
BRANCH  45  71
ATOM     71  C   UNL     1     -12.622  -0.408   9.875  1.00  0.00     0.037 C 
BRANCH  71  72
ATOM     72  C   UNL     1     -12.557  -1.931   9.738  1.00  0.00     0.026 C 
BRANCH  72  73
ATOM     73  C   UNL     1     -11.157  -2.399   9.349  1.00  0.00     0.146 C 
BRANCH  73  74
ATOM     74  N   UNL     1     -10.419  -1.240   8.856  1.00  0.00    -0.254 NA
ATOM     75  C   UNL     1     -10.134  -1.198   7.607  1.00  0.00     0.185 C 
ATOM     76  N   UNL     1      -9.457  -0.144   7.123  1.00  0.00    -0.370 N 
ATOM     77  N   UNL     1     -10.420  -2.092   6.644  1.00  0.00    -0.370 N 
ATOM     78  H   UNL     1      -9.195   0.574   7.784  1.00  0.00     0.159 HD
ATOM     79  H   UNL     1      -9.075  -0.110   6.195  1.00  0.00     0.159 HD
ATOM     80  H   UNL     1     -10.931  -2.935   6.861  1.00  0.00     0.159 HD
ATOM     81  H   UNL     1     -10.245  -1.896   5.673  1.00  0.00     0.159 HD
ENDBRANCH  73  74
ENDBRANCH  72  73
ENDBRANCH  71  72
ENDBRANCH  45  71
ENDBRANCH   3  45
TORSDOF 20
ENDMDL
MODEL 40
REMARK VINA RESULT:    -6.647      3.832     11.715
REMARK INTER + INTRA:         -23.826
REMARK INTER:                 -19.849
REMARK INTRA:                  -3.978
REMARK UNBOUND:                -4.745
REMARK SMILES CCCCCC(=O)N[C@H](CC(=O)O)C(=O)N[C@H]1C(=O)N[C@H](CCCN=C(N)N)C(=O)N[C@@H]2CC[C@H](O)N(C2=O)[C@@H](CC(C)C)C(=O)N(C)[C@@H](Cc2ccccc2)C(=O)N[C@H](C(C)C)C(=O)O[C@@H]1C
REMARK SMILES IDX 30 1 31 2 29 3 32 5 35 6 37 7 34 8 38 9 33 10 39 11 36 12
REMARK SMILES IDX 40 14 41 15 42 16 43 17 44 18 45 19 46 20 47 21 48 22 49 23
REMARK SMILES IDX 50 24 51 25 52 26 56 27 53 28 55 29 54 30 57 31 58 32 59 33
REMARK SMILES IDX 60 35 61 36 62 37 63 38 64 39 65 40 66 41 67 42 68 43 21 45
REMARK SMILES IDX 20 46 18 47 19 48 17 50 16 52 14 53 15 54 9 56 8 57 6 58
REMARK SMILES IDX 7 59 5 61 4 62 3 63 2 64 1 65 10 66 11 67 12 68 13 69 22 71
REMARK SMILES IDX 23 72 24 73 25 74 26 75 27 76 28 77
REMARK H PARENT 31 4 36 13 59 34 20 49 16 55 8 60 13 70 27 78 27 79 28 80
REMARK H PARENT 28 81
REMARK Flexibility Score:  259.900
ROOT
ATOM      1  O   UNL     1      -9.117   3.770   7.958  1.00  0.00    -0.273 OA
ATOM      2  N   UNL     1      -7.726   1.969   8.189  1.00  0.00    -0.343 N 
ATOM      3  C   UNL     1      -8.935   2.614   8.341  1.00  0.00     0.243 C 
ATOM      4  H   UNL     1      -7.617   1.013   8.503  1.00  0.00     0.164 HD
ENDROOT
BRANCH   2   5
ATOM      5  C   UNL     1      -6.565   2.682   7.666  1.00  0.00     0.171 C 
ATOM      6  C   UNL     1      -6.288   5.121   6.123  1.00  0.00     0.214 C 
ATOM      7  N   UNL     1      -6.402   3.855   5.437  1.00  0.00    -0.303 N 
ATOM      8  C   UNL     1      -5.626   5.008   7.488  1.00  0.00     0.057 C 
ATOM      9  C   UNL     1      -6.588   2.659   6.111  1.00  0.00     0.247 C 
ATOM     10  C   UNL     1      -6.398   4.036   8.353  1.00  0.00     0.040 C 
ATOM     11  O   UNL     1      -6.772   1.591   5.513  1.00  0.00    -0.272 OA
BRANCH   6  12
ATOM     12  O   UNL     1      -7.583   5.661   6.248  1.00  0.00    -0.373 OA
ATOM     13  H   UNL     1      -7.706   5.898   7.192  1.00  0.00     0.213 HD
ENDBRANCH   6  12
BRANCH   7  14
ATOM     14  C   UNL     1      -6.462   3.896   3.961  1.00  0.00     0.177 C 
BRANCH  14  15
ATOM     15  C   UNL     1      -6.540   2.521   3.268  1.00  0.00     0.038 C 
BRANCH  15  16
ATOM     16  C   UNL     1      -5.370   2.051   2.376  1.00  0.00    -0.015 C 
ATOM     17  C   UNL     1      -5.093   0.551   2.520  1.00  0.00     0.007 C 
ATOM     18  C   UNL     1      -4.093   2.814   2.751  1.00  0.00     0.007 C 
ENDBRANCH  15  16
ENDBRANCH  14  15
BRANCH  14  19
ATOM     19  C   UNL     1      -7.197   5.196   3.482  1.00  0.00     0.245 C 
ATOM     20  O   UNL     1      -6.566   6.262   3.577  1.00  0.00    -0.272 OA
BRANCH  19  21
ATOM     21  N   UNL     1      -8.519   5.229   3.076  1.00  0.00    -0.332 N 
ATOM     22  C   UNL     1      -9.129   4.325   2.117  1.00  0.00     0.147 C 
BRANCH  21  23
ATOM     23  C   UNL     1      -9.398   6.282   3.655  1.00  0.00     0.178 C 
BRANCH  23  24
ATOM     24  C   UNL     1      -9.547   7.548   2.788  1.00  0.00     0.070 C 
BRANCH  24  25
ATOM     25  C   UNL     1      -8.964   8.830   3.336  1.00  0.00    -0.045 A 
ATOM     26  C   UNL     1      -9.497   9.426   4.486  1.00  0.00     0.004 A 
ATOM     27  C   UNL     1      -7.880   9.446   2.694  1.00  0.00     0.004 A 
ATOM     28  C   UNL     1      -8.964  10.620   4.977  1.00  0.00     0.000 A 
ATOM     29  C   UNL     1      -7.347  10.639   3.186  1.00  0.00     0.000 A 
ATOM     30  C   UNL     1      -7.892  11.226   4.326  1.00  0.00     0.000 A 
ENDBRANCH  24  25
ENDBRANCH  23  24
BRANCH  23  31
ATOM     31  C   UNL     1     -10.725   5.718   4.217  1.00  0.00     0.243 C 
ATOM     32  O   UNL     1     -11.836   6.025   3.793  1.00  0.00    -0.273 OA
ATOM     33  N   UNL     1     -10.564   4.971   5.372  1.00  0.00    -0.341 N 
ATOM     34  H   UNL     1      -9.613   4.753   5.680  1.00  0.00     0.164 HD
BRANCH  33  35
ATOM     35  C   UNL     1     -11.691   4.439   6.143  1.00  0.00     0.194 C 
BRANCH  35  36
ATOM     36  C   UNL     1     -12.760   3.708   5.283  1.00  0.00     0.017 C 
ATOM     37  C   UNL     1     -13.917   3.186   6.153  1.00  0.00     0.010 C 
ATOM     38  C   UNL     1     -12.195   2.512   4.505  1.00  0.00     0.010 C 
ENDBRANCH  35  36
BRANCH  35  39
ATOM     39  C   UNL     1     -12.329   5.502   7.081  1.00  0.00     0.329 C 
ATOM     40  O   UNL     1     -13.034   6.426   6.691  1.00  0.00    -0.250 OA
BRANCH  39  41
ATOM     41  O   UNL     1     -12.088   5.242   8.401  1.00  0.00    -0.458 OA
BRANCH  41  42
ATOM     42  C   UNL     1     -13.253   5.058   9.241  1.00  0.00     0.205 CG0
ATOM     43  C   UNL     1     -13.528   6.391   9.934  1.00  0.00     0.056 C 
ATOM     44  G   UNL     1     -12.963   3.922  10.242  1.00  0.00     0.000 G0
ENDBRANCH  41  42
ENDBRANCH  39  41
ENDBRANCH  35  39
ENDBRANCH  33  35
ENDBRANCH  23  31
ENDBRANCH  21  23
ENDBRANCH  19  21
ENDBRANCH  14  19
ENDBRANCH   7  14
ENDBRANCH   2   5
BRANCH   3  45
ATOM     45  C   UNL     1     -10.043   1.784   9.003  1.00  0.00     0.171 C 
BRANCH  45  46
ATOM     46  N   UNL     1     -10.883   2.742   9.709  1.00  0.00    -0.342 N 
ATOM     47  C   UNL     1     -12.247   2.775   9.561  1.00  0.00     0.247 C 
ATOM     48  O   UNL     1     -12.865   1.956   8.880  1.00  0.00    -0.273 OA
ATOM     49  H   UNL     1     -10.417   3.403  10.328  1.00  0.00     0.164 HD
BRANCH  47  50
ATOM     50  C   UNL     1     -12.952   3.930  10.285  1.00  0.00     0.212 CG0
ATOM     51  G   UNL     1     -13.249   5.025   9.241  1.00  0.00     0.000 G0
BRANCH  50  52
ATOM     52  N   UNL     1     -14.158   3.347  10.868  1.00  0.00    -0.339 N 
ATOM     53  C   UNL     1     -14.269   3.011  12.196  1.00  0.00     0.243 C 
ATOM     54  O   UNL     1     -13.338   3.128  12.988  1.00  0.00    -0.273 OA
ATOM     55  H   UNL     1     -14.926   3.122  10.239  1.00  0.00     0.164 HD
BRANCH  53  56
ATOM     56  C   UNL     1     -15.603   2.330  12.561  1.00  0.00     0.182 C 
BRANCH  56  57
ATOM     57  N   UNL     1     -16.429   2.116  11.368  1.00  0.00    -0.344 N 
ATOM     58  C   UNL     1     -16.559   0.883  10.776  1.00  0.00     0.220 C 
ATOM     59  O   UNL     1     -15.939  -0.104  11.155  1.00  0.00    -0.275 OA
ATOM     60  H   UNL     1     -17.035   2.880  11.084  1.00  0.00     0.164 HD
BRANCH  58  61
ATOM     61  C   UNL     1     -17.508   0.883   9.591  1.00  0.00     0.100 C 
BRANCH  61  62
ATOM     62  C   UNL     1     -17.861   2.281   9.084  1.00  0.00     0.010 C 
BRANCH  62  63
ATOM     63  C   UNL     1     -17.262   2.622   7.714  1.00  0.00     0.000 C 
BRANCH  63  64
ATOM     64  C   UNL     1     -17.486   4.068   7.274  1.00  0.00    -0.003 C 
ATOM     65  C   UNL     1     -17.037   5.051   8.345  1.00  0.00     0.004 C 
ENDBRANCH  63  64
ENDBRANCH  62  63
ENDBRANCH  61  62
ENDBRANCH  58  61
ENDBRANCH  56  57
BRANCH  56  66
ATOM     66  C   UNL     1     -16.349   3.106  13.646  1.00  0.00     0.157 C 
BRANCH  66  67
ATOM     67  C   UNL     1     -16.218   2.433  14.982  1.00  0.00     0.305 C 
ATOM     68  O   UNL     1     -15.208   2.347  15.664  1.00  0.00    -0.252 OA
BRANCH  67  69
ATOM     69  O   UNL     1     -17.391   1.941  15.425  1.00  0.00    -0.481 OA
ATOM     70  H   UNL     1     -17.725   1.388  14.687  1.00  0.00     0.296 HD
ENDBRANCH  67  69
ENDBRANCH  66  67
ENDBRANCH  56  66
ENDBRANCH  53  56
ENDBRANCH  50  52
ENDBRANCH  47  50
ENDBRANCH  45  46
BRANCH  45  71
ATOM     71  C   UNL     1      -9.437   0.751   9.959  1.00  0.00     0.037 C 
BRANCH  71  72
ATOM     72  C   UNL     1      -9.300  -0.627   9.305  1.00  0.00     0.026 C 
BRANCH  72  73
ATOM     73  C   UNL     1     -10.386  -1.587   9.788  1.00  0.00     0.146 C 
BRANCH  73  74
ATOM     74  N   UNL     1     -11.414  -1.656   8.754  1.00  0.00    -0.254 NA
ATOM     75  C   UNL     1     -12.601  -1.286   9.065  1.00  0.00     0.185 C 
ATOM     76  N   UNL     1     -13.568  -1.337   8.134  1.00  0.00    -0.370 N 
ATOM     77  N   UNL     1     -13.063  -0.827  10.241  1.00  0.00    -0.370 N 
ATOM     78  H   UNL     1     -13.306  -1.679   7.221  1.00  0.00     0.159 HD
ATOM     79  H   UNL     1     -14.542  -1.204   8.340  1.00  0.00     0.159 HD
ATOM     80  H   UNL     1     -12.446  -0.731  11.033  1.00  0.00     0.159 HD
ATOM     81  H   UNL     1     -13.994  -0.457  10.334  1.00  0.00     0.159 HD
ENDBRANCH  73  74
ENDBRANCH  72  73
ENDBRANCH  71  72
ENDBRANCH  45  71
ENDBRANCH   3  45
TORSDOF 20
ENDMDL
MODEL 41
REMARK VINA RESULT:    -6.617      3.699     12.066
REMARK INTER + INTRA:         -23.740
REMARK INTER:                 -17.935
REMARK INTRA:                  -5.805
REMARK UNBOUND:                -4.745
REMARK SMILES CCCCCC(=O)N[C@H](CC(=O)O)C(=O)N[C@H]1C(=O)N[C@H](CCCN=C(N)N)C(=O)N[C@@H]2CC[C@H](O)N(C2=O)[C@@H](CC(C)C)C(=O)N(C)[C@@H](Cc2ccccc2)C(=O)N[C@H](C(C)C)C(=O)O[C@@H]1C
REMARK SMILES IDX 30 1 31 2 29 3 32 5 35 6 37 7 34 8 38 9 33 10 39 11 36 12
REMARK SMILES IDX 40 14 41 15 42 16 43 17 44 18 45 19 46 20 47 21 48 22 49 23
REMARK SMILES IDX 50 24 51 25 52 26 56 27 53 28 55 29 54 30 57 31 58 32 59 33
REMARK SMILES IDX 60 35 61 36 62 37 63 38 64 39 65 40 66 41 67 42 68 43 21 45
REMARK SMILES IDX 20 46 18 47 19 48 17 50 16 52 14 53 15 54 9 56 8 57 6 58
REMARK SMILES IDX 7 59 5 61 4 62 3 63 2 64 1 65 10 66 11 67 12 68 13 69 22 71
REMARK SMILES IDX 23 72 24 73 25 74 26 75 27 76 28 77
REMARK H PARENT 31 4 36 13 59 34 20 49 16 55 8 60 13 70 27 78 27 79 28 80
REMARK H PARENT 28 81
REMARK Flexibility Score:  259.900
ROOT
ATOM      1  O   UNL     1      -9.553   3.044   9.844  1.00  0.00    -0.273 OA
ATOM      2  N   UNL     1     -10.728   1.204   9.161  1.00  0.00    -0.343 N 
ATOM      3  C   UNL     1     -10.542   2.318   9.951  1.00  0.00     0.243 C 
ATOM      4  H   UNL     1     -11.561   0.639   9.266  1.00  0.00     0.164 HD
ENDROOT
BRANCH   2   5
ATOM      5  C   UNL     1      -9.687   0.768   8.236  1.00  0.00     0.171 C 
ATOM      6  C   UNL     1      -7.031   1.773   7.652  1.00  0.00     0.214 C 
ATOM      7  N   UNL     1      -8.157   2.256   6.888  1.00  0.00    -0.303 N 
ATOM      8  C   UNL     1      -7.209   0.347   8.150  1.00  0.00     0.057 C 
ATOM      9  C   UNL     1      -9.458   1.857   7.149  1.00  0.00     0.247 C 
ATOM     10  C   UNL     1      -8.464   0.251   8.991  1.00  0.00     0.040 C 
ATOM     11  O   UNL     1     -10.426   2.341   6.547  1.00  0.00    -0.272 OA
BRANCH   6  12
ATOM     12  O   UNL     1      -6.837   2.652   8.736  1.00  0.00    -0.373 OA
ATOM     13  H   UNL     1      -6.433   3.470   8.374  1.00  0.00     0.213 HD
ENDBRANCH   6  12
BRANCH   7  14
ATOM     14  C   UNL     1      -7.888   3.320   5.898  1.00  0.00     0.177 C 
BRANCH  14  15
ATOM     15  C   UNL     1      -6.753   4.293   6.272  1.00  0.00     0.038 C 
BRANCH  15  16
ATOM     16  C   UNL     1      -5.822   4.838   5.166  1.00  0.00    -0.015 C 
ATOM     17  C   UNL     1      -4.739   3.833   4.766  1.00  0.00     0.007 C 
ATOM     18  C   UNL     1      -5.132   6.119   5.654  1.00  0.00     0.007 C 
ENDBRANCH  15  16
ENDBRANCH  14  15
BRANCH  14  19
ATOM     19  C   UNL     1      -8.203   2.808   4.450  1.00  0.00     0.245 C 
ATOM     20  O   UNL     1      -7.755   1.691   4.143  1.00  0.00    -0.272 OA
BRANCH  19  21
ATOM     21  N   UNL     1      -8.841   3.567   3.485  1.00  0.00    -0.332 N 
ATOM     22  C   UNL     1      -9.090   3.153   2.116  1.00  0.00     0.147 C 
BRANCH  21  23
ATOM     23  C   UNL     1      -9.306   4.929   3.866  1.00  0.00     0.178 C 
BRANCH  23  24
ATOM     24  C   UNL     1      -8.712   6.074   3.021  1.00  0.00     0.070 C 
BRANCH  24  25
ATOM     25  C   UNL     1      -8.771   7.466   3.608  1.00  0.00    -0.045 A 
ATOM     26  C   UNL     1      -9.567   7.739   4.727  1.00  0.00     0.004 A 
ATOM     27  C   UNL     1      -8.028   8.508   3.033  1.00  0.00     0.004 A 
ATOM     28  C   UNL     1      -9.630   9.031   5.253  1.00  0.00     0.000 A 
ATOM     29  C   UNL     1      -8.090   9.799   3.561  1.00  0.00     0.000 A 
ATOM     30  C   UNL     1      -8.894  10.060   4.669  1.00  0.00     0.000 A 
ENDBRANCH  24  25
ENDBRANCH  23  24
BRANCH  23  31
ATOM     31  C   UNL     1     -10.836   5.006   4.084  1.00  0.00     0.243 C 
ATOM     32  O   UNL     1     -11.631   5.406   3.237  1.00  0.00    -0.273 OA
ATOM     33  N   UNL     1     -11.222   4.759   5.390  1.00  0.00    -0.341 N 
ATOM     34  H   UNL     1     -10.513   4.434   6.053  1.00  0.00     0.164 HD
BRANCH  33  35
ATOM     35  C   UNL     1     -12.606   4.892   5.853  1.00  0.00     0.194 C 
BRANCH  35  36
ATOM     36  C   UNL     1     -12.743   5.496   7.279  1.00  0.00     0.017 C 
ATOM     37  C   UNL     1     -13.295   6.931   7.228  1.00  0.00     0.010 C 
ATOM     38  C   UNL     1     -11.416   5.542   8.046  1.00  0.00     0.010 C 
ENDBRANCH  35  36
BRANCH  35  39
ATOM     39  C   UNL     1     -13.417   3.575   5.700  1.00  0.00     0.329 C 
ATOM     40  O   UNL     1     -13.134   2.683   4.909  1.00  0.00    -0.250 OA
BRANCH  39  41
ATOM     41  O   UNL     1     -14.434   3.482   6.610  1.00  0.00    -0.458 OA
BRANCH  41  42
ATOM     42  C   UNL     1     -14.495   2.257   7.380  1.00  0.00     0.205 CG0
ATOM     43  C   UNL     1     -15.549   1.364   6.728  1.00  0.00     0.056 C 
ATOM     44  G   UNL     1     -14.843   2.611   8.839  1.00  0.00     0.000 G0
ENDBRANCH  41  42
ENDBRANCH  39  41
ENDBRANCH  35  39
ENDBRANCH  33  35
ENDBRANCH  23  31
ENDBRANCH  21  23
ENDBRANCH  19  21
ENDBRANCH  14  19
ENDBRANCH   7  14
ENDBRANCH   2   5
BRANCH   3  45
ATOM     45  C   UNL     1     -11.665   2.605  10.957  1.00  0.00     0.171 C 
BRANCH  45  46
ATOM     46  N   UNL     1     -12.825   2.976  10.158  1.00  0.00    -0.342 N 
ATOM     47  C   UNL     1     -13.793   2.071   9.800  1.00  0.00     0.247 C 
ATOM     48  O   UNL     1     -13.790   0.902  10.187  1.00  0.00    -0.273 OA
ATOM     49  H   UNL     1     -12.895   3.948   9.863  1.00  0.00     0.164 HD
BRANCH  47  50
ATOM     50  C   UNL     1     -14.873   2.615   8.854  1.00  0.00     0.212 CG0
ATOM     51  G   UNL     1     -14.461   2.248   7.415  1.00  0.00     0.000 G0
BRANCH  50  52
ATOM     52  N   UNL     1     -16.117   1.979   9.278  1.00  0.00    -0.339 N 
ATOM     53  C   UNL     1     -16.871   2.424  10.337  1.00  0.00     0.243 C 
ATOM     54  O   UNL     1     -16.525   3.364  11.047  1.00  0.00    -0.273 OA
ATOM     55  H   UNL     1     -16.400   1.127   8.798  1.00  0.00     0.164 HD
BRANCH  53  56
ATOM     56  C   UNL     1     -18.096   1.542  10.649  1.00  0.00     0.182 C 
BRANCH  56  57
ATOM     57  N   UNL     1     -17.984   0.937  11.981  1.00  0.00    -0.344 N 
ATOM     58  C   UNL     1     -16.950   0.101  12.325  1.00  0.00     0.220 C 
ATOM     59  O   UNL     1     -16.092  -0.256  11.525  1.00  0.00    -0.275 OA
ATOM     60  H   UNL     1     -18.614   1.284  12.699  1.00  0.00     0.164 HD
BRANCH  58  61
ATOM     61  C   UNL     1     -17.005  -0.360  13.769  1.00  0.00     0.100 C 
BRANCH  61  62
ATOM     62  C   UNL     1     -17.245  -1.862  13.929  1.00  0.00     0.010 C 
BRANCH  62  63
ATOM     63  C   UNL     1     -18.690  -2.298  13.654  1.00  0.00     0.000 C 
BRANCH  63  64
ATOM     64  C   UNL     1     -19.717  -1.709  14.619  1.00  0.00    -0.003 C 
ATOM     65  C   UNL     1     -20.847  -1.015  13.873  1.00  0.00     0.004 C 
ENDBRANCH  63  64
ENDBRANCH  62  63
ENDBRANCH  61  62
ENDBRANCH  58  61
ENDBRANCH  56  57
BRANCH  56  66
ATOM     66  C   UNL     1     -18.327   0.497   9.559  1.00  0.00     0.157 C 
BRANCH  66  67
ATOM     67  C   UNL     1     -19.565  -0.309   9.831  1.00  0.00     0.305 C 
ATOM     68  O   UNL     1     -19.620  -1.414  10.348  1.00  0.00    -0.252 OA
BRANCH  67  69
ATOM     69  O   UNL     1     -20.688   0.346   9.481  1.00  0.00    -0.481 OA
ATOM     70  H   UNL     1     -21.056  -0.170   8.733  1.00  0.00     0.296 HD
ENDBRANCH  67  69
ENDBRANCH  66  67
ENDBRANCH  56  66
ENDBRANCH  53  56
ENDBRANCH  50  52
ENDBRANCH  47  50
ENDBRANCH  45  46
BRANCH  45  71
ATOM     71  C   UNL     1     -11.252   3.730  11.912  1.00  0.00     0.037 C 
BRANCH  71  72
ATOM     72  C   UNL     1     -12.063   5.007  11.681  1.00  0.00     0.026 C 
BRANCH  72  73
ATOM     73  C   UNL     1     -12.993   5.300  12.857  1.00  0.00     0.146 C 
BRANCH  73  74
ATOM     74  N   UNL     1     -13.543   4.029  13.319  1.00  0.00    -0.254 NA
ATOM     75  C   UNL     1     -14.784   3.994  13.638  1.00  0.00     0.185 C 
ATOM     76  N   UNL     1     -15.319   2.839  14.065  1.00  0.00    -0.370 N 
ATOM     77  N   UNL     1     -15.692   4.985  13.613  1.00  0.00    -0.370 N 
ATOM     78  H   UNL     1     -14.701   2.041  14.122  1.00  0.00     0.159 HD
ATOM     79  H   UNL     1     -16.237   2.769  14.467  1.00  0.00     0.159 HD
ATOM     80  H   UNL     1     -15.432   5.912  13.308  1.00  0.00     0.159 HD
ATOM     81  H   UNL     1     -16.669   4.811  13.778  1.00  0.00     0.159 HD
ENDBRANCH  73  74
ENDBRANCH  72  73
ENDBRANCH  71  72
ENDBRANCH  45  71
ENDBRANCH   3  45
TORSDOF 20
ENDMDL
MODEL 42
REMARK VINA RESULT:    -6.582      3.631     11.815
REMARK INTER + INTRA:         -23.640
REMARK INTER:                 -19.191
REMARK INTRA:                  -4.450
REMARK UNBOUND:                -4.745
REMARK SMILES CCCCCC(=O)N[C@H](CC(=O)O)C(=O)N[C@H]1C(=O)N[C@H](CCCN=C(N)N)C(=O)N[C@@H]2CC[C@H](O)N(C2=O)[C@@H](CC(C)C)C(=O)N(C)[C@@H](Cc2ccccc2)C(=O)N[C@H](C(C)C)C(=O)O[C@@H]1C
REMARK SMILES IDX 30 1 31 2 29 3 32 5 35 6 37 7 34 8 38 9 33 10 39 11 36 12
REMARK SMILES IDX 40 14 41 15 42 16 43 17 44 18 45 19 46 20 47 21 48 22 49 23
REMARK SMILES IDX 50 24 51 25 52 26 56 27 53 28 55 29 54 30 57 31 58 32 59 33
REMARK SMILES IDX 60 35 61 36 62 37 63 38 64 39 65 40 66 41 67 42 68 43 21 45
REMARK SMILES IDX 20 46 18 47 19 48 17 50 16 52 14 53 15 54 9 56 8 57 6 58
REMARK SMILES IDX 7 59 5 61 4 62 3 63 2 64 1 65 10 66 11 67 12 68 13 69 22 71
REMARK SMILES IDX 23 72 24 73 25 74 26 75 27 76 28 77
REMARK H PARENT 31 4 36 13 59 34 20 49 16 55 8 60 13 70 27 78 27 79 28 80
REMARK H PARENT 28 81
REMARK Flexibility Score:  259.900
ROOT
ATOM      1  O   UNL     1     -14.812   7.019   7.236  1.00  0.00    -0.273 OA
ATOM      2  N   UNL     1     -13.795   6.840   9.277  1.00  0.00    -0.343 N 
ATOM      3  C   UNL     1     -14.881   6.742   8.434  1.00  0.00     0.243 C 
ATOM      4  H   UNL     1     -13.885   6.590  10.254  1.00  0.00     0.164 HD
ENDROOT
BRANCH   2   5
ATOM      5  C   UNL     1     -12.533   7.397   8.800  1.00  0.00     0.171 C 
ATOM      6  C   UNL     1     -11.640   8.285   6.189  1.00  0.00     0.214 C 
ATOM      7  N   UNL     1     -11.420   6.914   6.587  1.00  0.00    -0.303 N 
ATOM      8  C   UNL     1     -11.647   9.257   7.358  1.00  0.00     0.057 C 
ATOM      9  C   UNL     1     -11.866   6.412   7.798  1.00  0.00     0.247 C 
ATOM     10  C   UNL     1     -12.708   8.849   8.357  1.00  0.00     0.040 C 
ATOM     11  O   UNL     1     -11.751   5.215   8.095  1.00  0.00    -0.272 OA
BRANCH   6  12
ATOM     12  O   UNL     1     -12.865   8.340   5.495  1.00  0.00    -0.373 OA
ATOM     13  H   UNL     1     -12.684   8.756   4.625  1.00  0.00     0.213 HD
ENDBRANCH   6  12
BRANCH   7  14
ATOM     14  C   UNL     1     -10.822   6.011   5.580  1.00  0.00     0.177 C 
BRANCH  14  15
ATOM     15  C   UNL     1     -11.490   6.041   4.192  1.00  0.00     0.038 C 
BRANCH  15  16
ATOM     16  C   UNL     1     -10.933   5.151   3.060  1.00  0.00    -0.015 C 
ATOM     17  C   UNL     1     -10.407   3.808   3.577  1.00  0.00     0.007 C 
ATOM     18  C   UNL     1      -9.782   5.875   2.349  1.00  0.00     0.007 C 
ENDBRANCH  15  16
ENDBRANCH  14  15
BRANCH  14  19
ATOM     19  C   UNL     1      -9.285   5.846   5.844  1.00  0.00     0.245 C 
ATOM     20  O   UNL     1      -8.518   6.459   5.083  1.00  0.00    -0.272 OA
BRANCH  19  21
ATOM     21  N   UNL     1      -8.753   4.984   6.786  1.00  0.00    -0.332 N 
ATOM     22  C   UNL     1      -8.354   5.350   8.133  1.00  0.00     0.147 C 
BRANCH  21  23
ATOM     23  C   UNL     1      -8.556   3.561   6.394  1.00  0.00     0.178 C 
BRANCH  23  24
ATOM     24  C   UNL     1      -7.094   3.074   6.442  1.00  0.00     0.070 C 
BRANCH  24  25
ATOM     25  C   UNL     1      -6.165   3.578   5.361  1.00  0.00    -0.045 A 
ATOM     26  C   UNL     1      -5.938   2.826   4.202  1.00  0.00     0.004 A 
ATOM     27  C   UNL     1      -5.512   4.811   5.509  1.00  0.00     0.004 A 
ATOM     28  C   UNL     1      -5.065   3.291   3.216  1.00  0.00     0.000 A 
ATOM     29  C   UNL     1      -4.641   5.276   4.522  1.00  0.00     0.000 A 
ATOM     30  C   UNL     1      -4.416   4.514   3.377  1.00  0.00     0.000 A 
ENDBRANCH  24  25
ENDBRANCH  23  24
BRANCH  23  31
ATOM     31  C   UNL     1      -9.582   2.607   7.052  1.00  0.00     0.243 C 
ATOM     32  O   UNL     1      -9.299   1.791   7.925  1.00  0.00    -0.273 OA
ATOM     33  N   UNL     1     -10.823   2.620   6.438  1.00  0.00    -0.341 N 
ATOM     34  H   UNL     1     -10.997   3.319   5.712  1.00  0.00     0.164 HD
BRANCH  33  35
ATOM     35  C   UNL     1     -11.911   1.714   6.815  1.00  0.00     0.194 C 
BRANCH  35  36
ATOM     36  C   UNL     1     -11.991   0.424   5.951  1.00  0.00     0.017 C 
ATOM     37  C   UNL     1     -12.829   0.652   4.682  1.00  0.00     0.010 C 
ATOM     38  C   UNL     1     -12.605  -0.767   6.699  1.00  0.00     0.010 C 
ENDBRANCH  35  36
BRANCH  35  39
ATOM     39  C   UNL     1     -13.284   2.435   6.910  1.00  0.00     0.329 C 
ATOM     40  O   UNL     1     -13.614   3.378   6.201  1.00  0.00    -0.250 OA
BRANCH  39  41
ATOM     41  O   UNL     1     -14.121   1.844   7.816  1.00  0.00    -0.458 OA
BRANCH  41  42
ATOM     42  C   UNL     1     -13.957   2.246   9.197  1.00  0.00     0.205 CG0
ATOM     43  C   UNL     1     -13.275   1.091   9.928  1.00  0.00     0.056 C 
ATOM     44  G   UNL     1     -15.346   2.574   9.781  1.00  0.00     0.000 G0
ENDBRANCH  41  42
ENDBRANCH  39  41
ENDBRANCH  35  39
ENDBRANCH  33  35
ENDBRANCH  23  31
ENDBRANCH  21  23
ENDBRANCH  19  21
ENDBRANCH  14  19
ENDBRANCH   7  14
ENDBRANCH   2   5
BRANCH   3  45
ATOM     45  C   UNL     1     -16.176   6.243   9.088  1.00  0.00     0.171 C 
BRANCH  45  46
ATOM     46  N   UNL     1     -16.094   4.788   9.065  1.00  0.00    -0.342 N 
ATOM     47  C   UNL     1     -15.458   4.071  10.046  1.00  0.00     0.247 C 
ATOM     48  O   UNL     1     -14.976   4.595  11.051  1.00  0.00    -0.273 OA
ATOM     49  H   UNL     1     -16.530   4.310   8.278  1.00  0.00     0.164 HD
BRANCH  47  50
ATOM     50  C   UNL     1     -15.363   2.560   9.790  1.00  0.00     0.212 CG0
ATOM     51  G   UNL     1     -13.960   2.269   9.221  1.00  0.00     0.000 G0
BRANCH  50  52
ATOM     52  N   UNL     1     -15.603   1.930  11.085  1.00  0.00    -0.339 N 
ATOM     53  C   UNL     1     -16.843   1.512  11.505  1.00  0.00     0.243 C 
ATOM     54  O   UNL     1     -17.860   1.687  10.840  1.00  0.00    -0.273 OA
ATOM     55  H   UNL     1     -14.817   1.858  11.729  1.00  0.00     0.164 HD
BRANCH  53  56
ATOM     56  C   UNL     1     -16.864   0.955  12.943  1.00  0.00     0.182 C 
BRANCH  56  57
ATOM     57  N   UNL     1     -17.992   0.039  13.136  1.00  0.00    -0.344 N 
ATOM     58  C   UNL     1     -17.823  -1.318  13.269  1.00  0.00     0.220 C 
ATOM     59  O   UNL     1     -16.730  -1.864  13.164  1.00  0.00    -0.275 OA
ATOM     60  H   UNL     1     -18.898   0.457  13.329  1.00  0.00     0.164 HD
BRANCH  58  61
ATOM     61  C   UNL     1     -19.121  -2.064  13.518  1.00  0.00     0.100 C 
BRANCH  61  62
ATOM     62  C   UNL     1     -20.215  -1.754  12.496  1.00  0.00     0.010 C 
BRANCH  62  63
ATOM     63  C   UNL     1     -21.638  -2.035  12.996  1.00  0.00     0.000 C 
BRANCH  63  64
ATOM     64  C   UNL     1     -22.372  -3.127  12.218  1.00  0.00    -0.003 C 
ATOM     65  C   UNL     1     -22.224  -2.932  10.715  1.00  0.00     0.004 C 
ENDBRANCH  63  64
ENDBRANCH  62  63
ENDBRANCH  61  62
ENDBRANCH  58  61
ENDBRANCH  56  57
BRANCH  56  66
ATOM     66  C   UNL     1     -16.850   2.078  13.979  1.00  0.00     0.157 C 
BRANCH  66  67
ATOM     67  C   UNL     1     -15.659   2.974  13.793  1.00  0.00     0.305 C 
ATOM     68  O   UNL     1     -14.483   2.650  13.846  1.00  0.00    -0.252 OA
BRANCH  67  69
ATOM     69  O   UNL     1     -16.012   4.239  13.495  1.00  0.00    -0.481 OA
ATOM     70  H   UNL     1     -16.847   4.388  13.987  1.00  0.00     0.296 HD
ENDBRANCH  67  69
ENDBRANCH  66  67
ENDBRANCH  56  66
ENDBRANCH  53  56
ENDBRANCH  50  52
ENDBRANCH  47  50
ENDBRANCH  45  46
BRANCH  45  71
ATOM     71  C   UNL     1     -17.396   6.752   8.313  1.00  0.00     0.037 C 
BRANCH  71  72
ATOM     72  C   UNL     1     -17.630   8.250   8.527  1.00  0.00     0.026 C 
BRANCH  72  73
ATOM     73  C   UNL     1     -17.588   9.018   7.208  1.00  0.00     0.146 C 
BRANCH  73  74
ATOM     74  N   UNL     1     -16.763  10.206   7.409  1.00  0.00    -0.254 NA
ATOM     75  C   UNL     1     -15.927  10.518   6.489  1.00  0.00     0.185 C 
ATOM     76  N   UNL     1     -15.155  11.605   6.645  1.00  0.00    -0.370 N 
ATOM     77  N   UNL     1     -15.683   9.895   5.323  1.00  0.00    -0.370 N 
ATOM     78  H   UNL     1     -15.270  12.129   7.501  1.00  0.00     0.159 HD
ATOM     79  H   UNL     1     -14.384  11.828   6.041  1.00  0.00     0.159 HD
ATOM     80  H   UNL     1     -16.193   9.062   5.069  1.00  0.00     0.159 HD
ATOM     81  H   UNL     1     -15.081  10.299   4.624  1.00  0.00     0.159 HD
ENDBRANCH  73  74
ENDBRANCH  72  73
ENDBRANCH  71  72
ENDBRANCH  45  71
ENDBRANCH   3  45
TORSDOF 20
ENDMDL
MODEL 43
REMARK VINA RESULT:    -6.566      3.841     11.270
REMARK INTER + INTRA:         -23.593
REMARK INTER:                 -19.720
REMARK INTRA:                  -3.874
REMARK UNBOUND:                -4.745
REMARK SMILES CCCCCC(=O)N[C@H](CC(=O)O)C(=O)N[C@H]1C(=O)N[C@H](CCCN=C(N)N)C(=O)N[C@@H]2CC[C@H](O)N(C2=O)[C@@H](CC(C)C)C(=O)N(C)[C@@H](Cc2ccccc2)C(=O)N[C@H](C(C)C)C(=O)O[C@@H]1C
REMARK SMILES IDX 30 1 31 2 29 3 32 5 35 6 37 7 34 8 38 9 33 10 39 11 36 12
REMARK SMILES IDX 40 14 41 15 42 16 43 17 44 18 45 19 46 20 47 21 48 22 49 23
REMARK SMILES IDX 50 24 51 25 52 26 56 27 53 28 55 29 54 30 57 31 58 32 59 33
REMARK SMILES IDX 60 35 61 36 62 37 63 38 64 39 65 40 66 41 67 42 68 43 21 45
REMARK SMILES IDX 20 46 18 47 19 48 17 50 16 52 14 53 15 54 9 56 8 57 6 58
REMARK SMILES IDX 7 59 5 61 4 62 3 63 2 64 1 65 10 66 11 67 12 68 13 69 22 71
REMARK SMILES IDX 23 72 24 73 25 74 26 75 27 76 28 77
REMARK H PARENT 31 4 36 13 59 34 20 49 16 55 8 60 13 70 27 78 27 79 28 80
REMARK H PARENT 28 81
REMARK Flexibility Score:  259.900
ROOT
ATOM      1  O   UNL     1     -10.353   2.856   8.018  1.00  0.00    -0.273 OA
ATOM      2  N   UNL     1     -10.033   0.731   7.237  1.00  0.00    -0.343 N 
ATOM      3  C   UNL     1     -10.821   1.765   7.693  1.00  0.00     0.243 C 
ATOM      4  H   UNL     1     -10.455  -0.148   6.965  1.00  0.00     0.164 HD
ENDROOT
BRANCH   2   5
ATOM      5  C   UNL     1      -8.579   0.851   7.234  1.00  0.00     0.171 C 
ATOM      6  C   UNL     1      -6.778   2.932   8.147  1.00  0.00     0.214 C 
ATOM      7  N   UNL     1      -7.248   2.948   6.781  1.00  0.00    -0.303 N 
ATOM      8  C   UNL     1      -6.678   1.532   8.732  1.00  0.00     0.057 C 
ATOM      9  C   UNL     1      -8.148   2.014   6.294  1.00  0.00     0.247 C 
ATOM     10  C   UNL     1      -8.025   0.847   8.657  1.00  0.00     0.040 C 
ATOM     11  O   UNL     1      -8.613   2.086   5.149  1.00  0.00    -0.272 OA
BRANCH   6  12
ATOM     12  O   UNL     1      -7.656   3.724   8.914  1.00  0.00    -0.373 OA
ATOM     13  H   UNL     1      -8.131   4.313   8.289  1.00  0.00     0.213 HD
ENDBRANCH   6  12
BRANCH   7  14
ATOM     14  C   UNL     1      -6.842   4.099   5.947  1.00  0.00     0.177 C 
BRANCH  14  15
ATOM     15  C   UNL     1      -5.918   3.756   4.762  1.00  0.00     0.038 C 
BRANCH  15  16
ATOM     16  C   UNL     1      -4.787   4.734   4.372  1.00  0.00    -0.015 C 
ATOM     17  C   UNL     1      -5.232   6.198   4.435  1.00  0.00     0.007 C 
ATOM     18  C   UNL     1      -4.315   4.437   2.943  1.00  0.00     0.007 C 
ENDBRANCH  15  16
ENDBRANCH  14  15
BRANCH  14  19
ATOM     19  C   UNL     1      -7.973   5.184   5.930  1.00  0.00     0.245 C 
ATOM     20  O   UNL     1      -8.218   5.753   7.007  1.00  0.00    -0.272 OA
BRANCH  19  21
ATOM     21  N   UNL     1      -8.769   5.452   4.830  1.00  0.00    -0.332 N 
ATOM     22  C   UNL     1      -8.979   4.559   3.705  1.00  0.00     0.147 C 
BRANCH  21  23
ATOM     23  C   UNL     1      -9.465   6.767   4.779  1.00  0.00     0.178 C 
BRANCH  23  24
ATOM     24  C   UNL     1      -9.208   7.584   3.496  1.00  0.00     0.070 C 
BRANCH  24  25
ATOM     25  C   UNL     1      -8.816   9.033   3.670  1.00  0.00    -0.045 A 
ATOM     26  C   UNL     1      -9.590   9.897   4.455  1.00  0.00     0.004 A 
ATOM     27  C   UNL     1      -7.667   9.536   3.040  1.00  0.00     0.004 A 
ATOM     28  C   UNL     1      -9.230  11.239   4.597  1.00  0.00     0.000 A 
ATOM     29  C   UNL     1      -7.308  10.877   3.184  1.00  0.00     0.000 A 
ATOM     30  C   UNL     1      -8.092  11.728   3.960  1.00  0.00     0.000 A 
ENDBRANCH  24  25
ENDBRANCH  23  24
BRANCH  23  31
ATOM     31  C   UNL     1     -10.948   6.682   5.211  1.00  0.00     0.243 C 
ATOM     32  O   UNL     1     -11.866   6.368   4.458  1.00  0.00    -0.273 OA
ATOM     33  N   UNL     1     -11.183   7.174   6.484  1.00  0.00    -0.341 N 
ATOM     34  H   UNL     1     -10.378   7.426   7.063  1.00  0.00     0.164 HD
BRANCH  33  35
ATOM     35  C   UNL     1     -12.526   7.302   7.056  1.00  0.00     0.194 C 
BRANCH  35  36
ATOM     36  C   UNL     1     -13.217   8.662   6.756  1.00  0.00     0.017 C 
ATOM     37  C   UNL     1     -13.615   8.772   5.274  1.00  0.00     0.010 C 
ATOM     38  C   UNL     1     -12.336   9.874   7.085  1.00  0.00     0.010 C 
ENDBRANCH  35  36
BRANCH  35  39
ATOM     39  C   UNL     1     -12.567   6.953   8.570  1.00  0.00     0.329 C 
ATOM     40  O   UNL     1     -12.612   7.787   9.466  1.00  0.00    -0.250 OA
BRANCH  39  41
ATOM     41  O   UNL     1     -12.634   5.605   8.791  1.00  0.00    -0.458 OA
BRANCH  41  42
ATOM     42  C   UNL     1     -12.904   5.190  10.151  1.00  0.00     0.205 CG0
ATOM     43  C   UNL     1     -11.567   4.814  10.785  1.00  0.00     0.056 C 
ATOM     44  G   UNL     1     -13.894   4.009  10.119  1.00  0.00     0.000 G0
ENDBRANCH  41  42
ENDBRANCH  39  41
ENDBRANCH  35  39
ENDBRANCH  33  35
ENDBRANCH  23  31
ENDBRANCH  21  23
ENDBRANCH  19  21
ENDBRANCH  14  19
ENDBRANCH   7  14
ENDBRANCH   2   5
BRANCH   3  45
ATOM     45  C   UNL     1     -12.326   1.469   7.748  1.00  0.00     0.171 C 
BRANCH  45  46
ATOM     46  N   UNL     1     -12.936   2.642   8.361  1.00  0.00    -0.342 N 
ATOM     47  C   UNL     1     -13.136   2.744   9.715  1.00  0.00     0.247 C 
ATOM     48  O   UNL     1     -12.751   1.890  10.514  1.00  0.00    -0.273 OA
ATOM     49  H   UNL     1     -13.219   3.398   7.741  1.00  0.00     0.164 HD
BRANCH  47  50
ATOM     50  C   UNL     1     -13.904   3.994  10.166  1.00  0.00     0.212 CG0
ATOM     51  G   UNL     1     -12.923   5.183  10.132  1.00  0.00     0.000 G0
BRANCH  50  52
ATOM     52  N   UNL     1     -15.011   4.133   9.223  1.00  0.00    -0.339 N 
ATOM     53  C   UNL     1     -16.325   3.926   9.565  1.00  0.00     0.243 C 
ATOM     54  O   UNL     1     -16.667   3.554  10.685  1.00  0.00    -0.273 OA
ATOM     55  H   UNL     1     -14.782   4.331   8.251  1.00  0.00     0.164 HD
BRANCH  53  56
ATOM     56  C   UNL     1     -17.308   4.045   8.383  1.00  0.00     0.182 C 
BRANCH  56  57
ATOM     57  N   UNL     1     -18.005   5.335   8.405  1.00  0.00    -0.344 N 
ATOM     58  C   UNL     1     -17.335   6.534   8.389  1.00  0.00     0.220 C 
ATOM     59  O   UNL     1     -16.111   6.611   8.428  1.00  0.00    -0.275 OA
ATOM     60  H   UNL     1     -19.012   5.317   8.271  1.00  0.00     0.164 HD
BRANCH  58  61
ATOM     61  C   UNL     1     -18.257   7.738   8.358  1.00  0.00     0.100 C 
BRANCH  61  62
ATOM     62  C   UNL     1     -17.538   9.059   8.084  1.00  0.00     0.010 C 
BRANCH  62  63
ATOM     63  C   UNL     1     -16.930   9.164   6.679  1.00  0.00     0.000 C 
BRANCH  63  64
ATOM     64  C   UNL     1     -16.834  10.591   6.143  1.00  0.00    -0.003 C 
ATOM     65  C   UNL     1     -15.722  11.369   6.832  1.00  0.00     0.004 C 
ENDBRANCH  63  64
ENDBRANCH  62  63
ENDBRANCH  61  62
ENDBRANCH  58  61
ENDBRANCH  56  57
BRANCH  56  66
ATOM     66  C   UNL     1     -18.278   2.866   8.339  1.00  0.00     0.157 C 
BRANCH  66  67
ATOM     67  C   UNL     1     -17.864   1.858   7.306  1.00  0.00     0.305 C 
ATOM     68  O   UNL     1     -17.314   0.786   7.507  1.00  0.00    -0.252 OA
BRANCH  67  69
ATOM     69  O   UNL     1     -18.212   2.231   6.060  1.00  0.00    -0.481 OA
ATOM     70  H   UNL     1     -17.397   2.620   5.678  1.00  0.00     0.296 HD
ENDBRANCH  67  69
ENDBRANCH  66  67
ENDBRANCH  56  66
ENDBRANCH  53  56
ENDBRANCH  50  52
ENDBRANCH  47  50
ENDBRANCH  45  46
BRANCH  45  71
ATOM     71  C   UNL     1     -12.592   0.200   8.565  1.00  0.00     0.037 C 
BRANCH  71  72
ATOM     72  C   UNL     1     -13.257  -0.895   7.729  1.00  0.00     0.026 C 
BRANCH  72  73
ATOM     73  C   UNL     1     -14.576  -0.417   7.127  1.00  0.00     0.146 C 
BRANCH  73  74
ATOM     74  N   UNL     1     -14.378  -0.253   5.690  1.00  0.00    -0.254 NA
ATOM     75  C   UNL     1     -14.646   0.891   5.175  1.00  0.00     0.185 C 
ATOM     76  N   UNL     1     -14.473   1.073   3.856  1.00  0.00    -0.370 N 
ATOM     77  N   UNL     1     -15.098   2.004   5.778  1.00  0.00    -0.370 N 
ATOM     78  H   UNL     1     -14.141   0.281   3.324  1.00  0.00     0.159 HD
ATOM     79  H   UNL     1     -14.795   1.887   3.363  1.00  0.00     0.159 HD
ATOM     80  H   UNL     1     -15.271   2.015   6.772  1.00  0.00     0.159 HD
ATOM     81  H   UNL     1     -15.162   2.881   5.289  1.00  0.00     0.159 HD
ENDBRANCH  73  74
ENDBRANCH  72  73
ENDBRANCH  71  72
ENDBRANCH  45  71
ENDBRANCH   3  45
TORSDOF 20
ENDMDL
MODEL 44
REMARK VINA RESULT:    -6.563      3.891     11.815
REMARK INTER + INTRA:         -23.585
REMARK INTER:                 -19.120
REMARK INTRA:                  -4.465
REMARK UNBOUND:                -4.745
REMARK SMILES CCCCCC(=O)N[C@H](CC(=O)O)C(=O)N[C@H]1C(=O)N[C@H](CCCN=C(N)N)C(=O)N[C@@H]2CC[C@H](O)N(C2=O)[C@@H](CC(C)C)C(=O)N(C)[C@@H](Cc2ccccc2)C(=O)N[C@H](C(C)C)C(=O)O[C@@H]1C
REMARK SMILES IDX 30 1 31 2 29 3 32 5 35 6 37 7 34 8 38 9 33 10 39 11 36 12
REMARK SMILES IDX 40 14 41 15 42 16 43 17 44 18 45 19 46 20 47 21 48 22 49 23
REMARK SMILES IDX 50 24 51 25 52 26 56 27 53 28 55 29 54 30 57 31 58 32 59 33
REMARK SMILES IDX 60 35 61 36 62 37 63 38 64 39 65 40 66 41 67 42 68 43 21 45
REMARK SMILES IDX 20 46 18 47 19 48 17 50 16 52 14 53 15 54 9 56 8 57 6 58
REMARK SMILES IDX 7 59 5 61 4 62 3 63 2 64 1 65 10 66 11 67 12 68 13 69 22 71
REMARK SMILES IDX 23 72 24 73 25 74 26 75 27 76 28 77
REMARK H PARENT 31 4 36 13 59 34 20 49 16 55 8 60 13 70 27 78 27 79 28 80
REMARK H PARENT 28 81
REMARK Flexibility Score:  259.900
ROOT
ATOM      1  O   UNL     1     -13.477   7.281   6.530  1.00  0.00    -0.273 OA
ATOM      2  N   UNL     1     -12.125   8.111   8.177  1.00  0.00    -0.343 N 
ATOM      3  C   UNL     1     -13.323   7.620   7.703  1.00  0.00     0.243 C 
ATOM      4  H   UNL     1     -12.031   8.367   9.152  1.00  0.00     0.164 HD
ENDROOT
BRANCH   2   5
ATOM      5  C   UNL     1     -11.014   8.363   7.267  1.00  0.00     0.171 C 
ATOM      6  C   UNL     1     -10.560   7.683   4.485  1.00  0.00     0.214 C 
ATOM      7  N   UNL     1     -10.116   6.777   5.520  1.00  0.00    -0.303 N 
ATOM      8  C   UNL     1     -10.557   9.140   4.919  1.00  0.00     0.057 C 
ATOM      9  C   UNL     1     -10.346   7.017   6.865  1.00  0.00     0.247 C 
ATOM     10  C   UNL     1     -11.429   9.312   6.144  1.00  0.00     0.040 C 
ATOM     11  O   UNL     1     -10.040   6.195   7.739  1.00  0.00    -0.272 OA
BRANCH   6  12
ATOM     12  O   UNL     1     -11.855   7.288   4.095  1.00  0.00    -0.373 OA
ATOM     13  H   UNL     1     -12.489   7.797   4.644  1.00  0.00     0.213 HD
ENDBRANCH   6  12
BRANCH   7  14
ATOM     14  C   UNL     1      -9.527   5.495   5.080  1.00  0.00     0.177 C 
BRANCH  14  15
ATOM     15  C   UNL     1     -10.155   4.884   3.812  1.00  0.00     0.038 C 
BRANCH  15  16
ATOM     16  C   UNL     1      -9.291   4.708   2.544  1.00  0.00    -0.015 C 
ATOM     17  C   UNL     1      -9.817   5.526   1.361  1.00  0.00     0.007 C 
ATOM     18  C   UNL     1      -9.268   3.230   2.133  1.00  0.00     0.007 C 
ENDBRANCH  15  16
ENDBRANCH  14  15
BRANCH  14  19
ATOM     19  C   UNL     1      -8.007   5.437   5.457  1.00  0.00     0.245 C 
ATOM     20  O   UNL     1      -7.276   6.316   4.970  1.00  0.00    -0.272 OA
BRANCH  19  21
ATOM     21  N   UNL     1      -7.433   4.416   6.194  1.00  0.00    -0.332 N 
ATOM     22  C   UNL     1      -6.449   4.588   7.248  1.00  0.00     0.147 C 
BRANCH  21  23
ATOM     23  C   UNL     1      -7.841   3.019   5.882  1.00  0.00     0.178 C 
BRANCH  23  24
ATOM     24  C   UNL     1      -6.671   2.048   5.621  1.00  0.00     0.070 C 
BRANCH  24  25
ATOM     25  C   UNL     1      -5.902   2.227   4.333  1.00  0.00    -0.045 A 
ATOM     26  C   UNL     1      -5.049   3.323   4.153  1.00  0.00     0.004 A 
ATOM     27  C   UNL     1      -6.037   1.295   3.293  1.00  0.00     0.004 A 
ATOM     28  C   UNL     1      -4.354   3.491   2.953  1.00  0.00     0.000 A 
ATOM     29  C   UNL     1      -5.342   1.463   2.094  1.00  0.00     0.000 A 
ATOM     30  C   UNL     1      -4.503   2.563   1.924  1.00  0.00     0.000 A 
ENDBRANCH  24  25
ENDBRANCH  23  24
BRANCH  23  31
ATOM     31  C   UNL     1      -8.933   2.481   6.837  1.00  0.00     0.243 C 
ATOM     32  O   UNL     1      -8.719   2.119   7.991  1.00  0.00    -0.273 OA
ATOM     33  N   UNL     1     -10.153   2.267   6.218  1.00  0.00    -0.341 N 
ATOM     34  H   UNL     1     -10.269   2.584   5.252  1.00  0.00     0.164 HD
BRANCH  33  35
ATOM     35  C   UNL     1     -11.296   1.652   6.897  1.00  0.00     0.194 C 
BRANCH  35  36
ATOM     36  C   UNL     1     -11.598   0.196   6.441  1.00  0.00     0.017 C 
ATOM     37  C   UNL     1     -13.017   0.076   5.858  1.00  0.00     0.010 C 
ATOM     38  C   UNL     1     -11.481  -0.829   7.576  1.00  0.00     0.010 C 
ENDBRANCH  35  36
BRANCH  35  39
ATOM     39  C   UNL     1     -12.566   2.547   6.859  1.00  0.00     0.329 C 
ATOM     40  O   UNL     1     -12.852   3.293   5.930  1.00  0.00    -0.250 OA
BRANCH  39  41
ATOM     41  O   UNL     1     -13.377   2.346   7.942  1.00  0.00    -0.458 OA
BRANCH  41  42
ATOM     42  C   UNL     1     -13.009   3.043   9.156  1.00  0.00     0.205 CG0
ATOM     43  C   UNL     1     -12.461   2.002  10.130  1.00  0.00     0.056 C 
ATOM     44  G   UNL     1     -14.255   3.765   9.706  1.00  0.00     0.000 G0
ENDBRANCH  41  42
ENDBRANCH  39  41
ENDBRANCH  35  39
ENDBRANCH  33  35
ENDBRANCH  23  31
ENDBRANCH  21  23
ENDBRANCH  19  21
ENDBRANCH  14  19
ENDBRANCH   7  14
ENDBRANCH   2   5
BRANCH   3  45
ATOM     45  C   UNL     1     -14.444   7.505   8.745  1.00  0.00     0.171 C 
BRANCH  45  46
ATOM     46  N   UNL     1     -14.688   6.078   8.904  1.00  0.00    -0.342 N 
ATOM     47  C   UNL     1     -13.954   5.296   9.760  1.00  0.00     0.247 C 
ATOM     48  O   UNL     1     -13.087   5.754  10.506  1.00  0.00    -0.273 OA
ATOM     49  H   UNL     1     -15.435   5.668   8.346  1.00  0.00     0.164 HD
BRANCH  47  50
ATOM     50  C   UNL     1     -14.270   3.795   9.703  1.00  0.00     0.212 CG0
ATOM     51  G   UNL     1     -13.016   3.073   9.169  1.00  0.00     0.000 G0
BRANCH  50  52
ATOM     52  N   UNL     1     -14.615   3.417  11.071  1.00  0.00    -0.339 N 
ATOM     53  C   UNL     1     -15.739   2.697  11.395  1.00  0.00     0.243 C 
ATOM     54  O   UNL     1     -16.573   2.360  10.560  1.00  0.00    -0.273 OA
ATOM     55  H   UNL     1     -14.020   3.763  11.821  1.00  0.00     0.164 HD
BRANCH  53  56
ATOM     56  C   UNL     1     -15.938   2.493  12.911  1.00  0.00     0.182 C 
BRANCH  56  57
ATOM     57  N   UNL     1     -16.966   1.482  13.175  1.00  0.00    -0.344 N 
ATOM     58  C   UNL     1     -16.946   0.687  14.295  1.00  0.00     0.220 C 
ATOM     59  O   UNL     1     -16.031   0.714  15.111  1.00  0.00    -0.275 OA
ATOM     60  H   UNL     1     -17.791   1.497  12.580  1.00  0.00     0.164 HD
BRANCH  58  61
ATOM     61  C   UNL     1     -18.139  -0.246  14.392  1.00  0.00     0.100 C 
BRANCH  61  62
ATOM     62  C   UNL     1     -18.906  -0.404  13.079  1.00  0.00     0.010 C 
BRANCH  62  63
ATOM     63  C   UNL     1     -19.103  -1.860  12.639  1.00  0.00     0.000 C 
BRANCH  63  64
ATOM     64  C   UNL     1     -18.989  -2.878  13.772  1.00  0.00    -0.003 C 
ATOM     65  C   UNL     1     -20.356  -3.233  14.339  1.00  0.00     0.004 C 
ENDBRANCH  63  64
ENDBRANCH  62  63
ENDBRANCH  61  62
ENDBRANCH  58  61
ENDBRANCH  56  57
BRANCH  56  66
ATOM     66  C   UNL     1     -16.231   3.814  13.620  1.00  0.00     0.157 C 
BRANCH  66  67
ATOM     67  C   UNL     1     -15.210   4.098  14.684  1.00  0.00     0.305 C 
ATOM     68  O   UNL     1     -15.249   4.991  15.517  1.00  0.00    -0.252 OA
BRANCH  67  69
ATOM     69  O   UNL     1     -14.204   3.203  14.681  1.00  0.00    -0.481 OA
ATOM     70  H   UNL     1     -13.759   3.330  13.816  1.00  0.00     0.296 HD
ENDBRANCH  67  69
ENDBRANCH  66  67
ENDBRANCH  56  66
ENDBRANCH  53  56
ENDBRANCH  50  52
ENDBRANCH  47  50
ENDBRANCH  45  46
BRANCH  45  71
ATOM     71  C   UNL     1     -15.698   8.243   8.263  1.00  0.00     0.037 C 
BRANCH  71  72
ATOM     72  C   UNL     1     -16.914   7.318   8.180  1.00  0.00     0.026 C 
BRANCH  72  73
ATOM     73  C   UNL     1     -18.221   8.107   8.205  1.00  0.00     0.146 C 
BRANCH  73  74
ATOM     74  N   UNL     1     -18.490   8.570   6.847  1.00  0.00    -0.254 NA
ATOM     75  C   UNL     1     -18.600   9.832   6.655  1.00  0.00     0.185 C 
ATOM     76  N   UNL     1     -18.846  10.288   5.416  1.00  0.00    -0.370 N 
ATOM     77  N   UNL     1     -18.502  10.834   7.546  1.00  0.00    -0.370 N 
ATOM     78  H   UNL     1     -18.941   9.598   4.685  1.00  0.00     0.159 HD
ATOM     79  H   UNL     1     -19.086  11.243   5.215  1.00  0.00     0.159 HD
ATOM     80  H   UNL     1     -18.315  10.641   8.518  1.00  0.00     0.159 HD
ATOM     81  H   UNL     1     -18.492  11.799   7.257  1.00  0.00     0.159 HD
ENDBRANCH  73  74
ENDBRANCH  72  73
ENDBRANCH  71  72
ENDBRANCH  45  71
ENDBRANCH   3  45
TORSDOF 20
ENDMDL
MODEL 45
REMARK VINA RESULT:    -6.503      3.727     11.146
REMARK INTER + INTRA:         -23.412
REMARK INTER:                 -19.258
REMARK INTRA:                  -4.154
REMARK UNBOUND:                -4.745
REMARK SMILES CCCCCC(=O)N[C@H](CC(=O)O)C(=O)N[C@H]1C(=O)N[C@H](CCCN=C(N)N)C(=O)N[C@@H]2CC[C@H](O)N(C2=O)[C@@H](CC(C)C)C(=O)N(C)[C@@H](Cc2ccccc2)C(=O)N[C@H](C(C)C)C(=O)O[C@@H]1C
REMARK SMILES IDX 30 1 31 2 29 3 32 5 35 6 37 7 34 8 38 9 33 10 39 11 36 12
REMARK SMILES IDX 40 14 41 15 42 16 43 17 44 18 45 19 46 20 47 21 48 22 49 23
REMARK SMILES IDX 50 24 51 25 52 26 56 27 53 28 55 29 54 30 57 31 58 32 59 33
REMARK SMILES IDX 60 35 61 36 62 37 63 38 64 39 65 40 66 41 67 42 68 43 21 45
REMARK SMILES IDX 20 46 18 47 19 48 17 50 16 52 14 53 15 54 9 56 8 57 6 58
REMARK SMILES IDX 7 59 5 61 4 62 3 63 2 64 1 65 10 66 11 67 12 68 13 69 22 71
REMARK SMILES IDX 23 72 24 73 25 74 26 75 27 76 28 77
REMARK H PARENT 31 4 36 13 59 34 20 49 16 55 8 60 13 70 27 78 27 79 28 80
REMARK H PARENT 28 81
REMARK Flexibility Score:  259.900
ROOT
ATOM      1  O   UNL     1      -8.888   2.511   9.055  1.00  0.00    -0.273 OA
ATOM      2  N   UNL     1      -8.274   1.163   7.312  1.00  0.00    -0.343 N 
ATOM      3  C   UNL     1      -9.064   1.486   8.394  1.00  0.00     0.243 C 
ATOM      4  H   UNL     1      -8.457   0.319   6.783  1.00  0.00     0.164 HD
ENDROOT
BRANCH   2   5
ATOM      5  C   UNL     1      -7.110   1.974   6.974  1.00  0.00     0.171 C 
ATOM      6  C   UNL     1      -6.299   4.655   7.722  1.00  0.00     0.214 C 
ATOM      7  N   UNL     1      -7.089   4.459   6.529  1.00  0.00    -0.303 N 
ATOM      8  C   UNL     1      -5.401   3.473   8.050  1.00  0.00     0.057 C 
ATOM      9  C   UNL     1      -7.553   3.212   6.142  1.00  0.00     0.247 C 
ATOM     10  C   UNL     1      -6.238   2.222   8.204  1.00  0.00     0.040 C 
ATOM     11  O   UNL     1      -8.301   3.064   5.167  1.00  0.00    -0.272 OA
BRANCH   6  12
ATOM     12  O   UNL     1      -7.185   4.912   8.787  1.00  0.00    -0.373 OA
ATOM     13  H   UNL     1      -6.959   4.284   9.506  1.00  0.00     0.213 HD
ENDBRANCH   6  12
BRANCH   7  14
ATOM     14  C   UNL     1      -7.518   5.673   5.801  1.00  0.00     0.177 C 
BRANCH  14  15
ATOM     15  C   UNL     1      -6.888   5.858   4.407  1.00  0.00     0.038 C 
BRANCH  15  16
ATOM     16  C   UNL     1      -5.355   5.756   4.245  1.00  0.00    -0.015 C 
ATOM     17  C   UNL     1      -4.858   4.308   4.289  1.00  0.00     0.007 C 
ATOM     18  C   UNL     1      -4.661   6.537   5.368  1.00  0.00     0.007 C 
ENDBRANCH  15  16
ENDBRANCH  14  15
BRANCH  14  19
ATOM     19  C   UNL     1      -8.989   6.048   6.189  1.00  0.00     0.245 C 
ATOM     20  O   UNL     1      -9.219   6.239   7.395  1.00  0.00    -0.272 OA
BRANCH  19  21
ATOM     21  N   UNL     1     -10.043   6.065   5.292  1.00  0.00    -0.332 N 
ATOM     22  C   UNL     1     -10.515   4.925   4.525  1.00  0.00     0.147 C 
BRANCH  21  23
ATOM     23  C   UNL     1     -10.753   7.356   5.076  1.00  0.00     0.178 C 
BRANCH  23  24
ATOM     24  C   UNL     1     -10.527   7.993   3.690  1.00  0.00     0.070 C 
BRANCH  24  25
ATOM     25  C   UNL     1      -9.356   8.939   3.550  1.00  0.00    -0.045 A 
ATOM     26  C   UNL     1      -8.186   8.539   2.893  1.00  0.00     0.004 A 
ATOM     27  C   UNL     1      -9.426  10.235   4.084  1.00  0.00     0.004 A 
ATOM     28  C   UNL     1      -7.102   9.413   2.783  1.00  0.00     0.000 A 
ATOM     29  C   UNL     1      -8.342  11.107   3.972  1.00  0.00     0.000 A 
ATOM     30  C   UNL     1      -7.180  10.695   3.324  1.00  0.00     0.000 A 
ENDBRANCH  24  25
ENDBRANCH  23  24
BRANCH  23  31
ATOM     31  C   UNL     1     -12.227   7.319   5.544  1.00  0.00     0.243 C 
ATOM     32  O   UNL     1     -13.092   8.097   5.150  1.00  0.00    -0.273 OA
ATOM     33  N   UNL     1     -12.453   6.444   6.593  1.00  0.00    -0.341 N 
ATOM     34  H   UNL     1     -11.692   5.825   6.881  1.00  0.00     0.164 HD
BRANCH  33  35
ATOM     35  C   UNL     1     -13.746   6.330   7.274  1.00  0.00     0.194 C 
BRANCH  35  36
ATOM     36  C   UNL     1     -14.104   7.554   8.164  1.00  0.00     0.017 C 
ATOM     37  C   UNL     1     -14.638   8.723   7.319  1.00  0.00     0.010 C 
ATOM     38  C   UNL     1     -12.913   8.080   8.975  1.00  0.00     0.010 C 
ENDBRANCH  35  36
BRANCH  35  39
ATOM     39  C   UNL     1     -13.901   4.988   8.042  1.00  0.00     0.329 C 
ATOM     40  O   UNL     1     -14.949   4.358   8.117  1.00  0.00    -0.250 OA
BRANCH  39  41
ATOM     41  O   UNL     1     -12.714   4.542   8.555  1.00  0.00    -0.458 OA
BRANCH  41  42
ATOM     42  C   UNL     1     -12.696   4.254   9.973  1.00  0.00     0.205 CG0
ATOM     43  C   UNL     1     -11.333   4.691  10.508  1.00  0.00     0.056 C 
ATOM     44  G   UNL     1     -12.952   2.747  10.172  1.00  0.00     0.000 G0
ENDBRANCH  41  42
ENDBRANCH  39  41
ENDBRANCH  35  39
ENDBRANCH  33  35
ENDBRANCH  23  31
ENDBRANCH  21  23
ENDBRANCH  19  21
ENDBRANCH  14  19
ENDBRANCH   7  14
ENDBRANCH   2   5
BRANCH   3  45
ATOM     45  C   UNL     1     -10.189   0.491   8.707  1.00  0.00     0.171 C 
BRANCH  45  46
ATOM     46  N   UNL     1     -11.106   1.199   9.590  1.00  0.00    -0.342 N 
ATOM     47  C   UNL     1     -12.140   1.968   9.117  1.00  0.00     0.247 C 
ATOM     48  O   UNL     1     -12.411   2.057   7.919  1.00  0.00    -0.273 OA
ATOM     49  H   UNL     1     -10.952   1.107  10.593  1.00  0.00     0.164 HD
BRANCH  47  50
ATOM     50  C   UNL     1     -12.923   2.737  10.190  1.00  0.00     0.212 CG0
ATOM     51  G   UNL     1     -12.677   4.242   9.959  1.00  0.00     0.000 G0
BRANCH  50  52
ATOM     52  N   UNL     1     -14.318   2.346  10.009  1.00  0.00    -0.339 N 
ATOM     53  C   UNL     1     -14.772   1.062  10.188  1.00  0.00     0.243 C 
ATOM     54  O   UNL     1     -14.024   0.128  10.463  1.00  0.00    -0.273 OA
ATOM     55  H   UNL     1     -14.968   3.054   9.672  1.00  0.00     0.164 HD
BRANCH  53  56
ATOM     56  C   UNL     1     -16.266   0.873   9.856  1.00  0.00     0.182 C 
BRANCH  56  57
ATOM     57  N   UNL     1     -16.729   1.895   8.911  1.00  0.00    -0.344 N 
ATOM     58  C   UNL     1     -17.738   1.660   8.009  1.00  0.00     0.220 C 
ATOM     59  O   UNL     1     -18.270   0.563   7.880  1.00  0.00    -0.275 OA
ATOM     60  H   UNL     1     -16.387   2.841   9.053  1.00  0.00     0.164 HD
BRANCH  58  61
ATOM     61  C   UNL     1     -18.091   2.875   7.172  1.00  0.00     0.100 C 
BRANCH  61  62
ATOM     62  C   UNL     1     -17.137   3.117   6.002  1.00  0.00     0.010 C 
BRANCH  62  63
ATOM     63  C   UNL     1     -17.257   2.086   4.872  1.00  0.00     0.000 C 
BRANCH  63  64
ATOM     64  C   UNL     1     -15.941   1.785   4.157  1.00  0.00    -0.003 C 
ATOM     65  C   UNL     1     -14.751   2.341   4.925  1.00  0.00     0.004 C 
ENDBRANCH  63  64
ENDBRANCH  62  63
ENDBRANCH  61  62
ENDBRANCH  58  61
ENDBRANCH  56  57
BRANCH  56  66
ATOM     66  C   UNL     1     -17.120   0.829  11.122  1.00  0.00     0.157 C 
BRANCH  66  67
ATOM     67  C   UNL     1     -16.637   1.824  12.138  1.00  0.00     0.305 C 
ATOM     68  O   UNL     1     -16.615   3.040  12.020  1.00  0.00    -0.252 OA
BRANCH  67  69
ATOM     69  O   UNL     1     -16.250   1.237  13.286  1.00  0.00    -0.481 OA
ATOM     70  H   UNL     1     -15.510   0.648  13.028  1.00  0.00     0.296 HD
ENDBRANCH  67  69
ENDBRANCH  66  67
ENDBRANCH  56  66
ENDBRANCH  53  56
ENDBRANCH  50  52
ENDBRANCH  47  50
ENDBRANCH  45  46
BRANCH  45  71
ATOM     71  C   UNL     1      -9.621  -0.767   9.372  1.00  0.00     0.037 C 
BRANCH  71  72
ATOM     72  C   UNL     1      -9.603  -1.964   8.419  1.00  0.00     0.026 C 
BRANCH  72  73
ATOM     73  C   UNL     1     -10.548  -1.754   7.237  1.00  0.00     0.146 C 
BRANCH  73  74
ATOM     74  N   UNL     1     -11.912  -1.966   7.712  1.00  0.00    -0.254 NA
ATOM     75  C   UNL     1     -12.848  -1.275   7.174  1.00  0.00     0.185 C 
ATOM     76  N   UNL     1     -14.113  -1.448   7.589  1.00  0.00    -0.370 N 
ATOM     77  N   UNL     1     -12.763  -0.349   6.203  1.00  0.00    -0.370 N 
ATOM     78  H   UNL     1     -14.265  -2.123   8.325  1.00  0.00     0.159 HD
ATOM     79  H   UNL     1     -14.872  -0.847   7.320  1.00  0.00     0.159 HD
ATOM     80  H   UNL     1     -11.872  -0.117   5.791  1.00  0.00     0.159 HD
ATOM     81  H   UNL     1     -13.585   0.047   5.777  1.00  0.00     0.159 HD
ENDBRANCH  73  74
ENDBRANCH  72  73
ENDBRANCH  71  72
ENDBRANCH  45  71
ENDBRANCH   3  45
TORSDOF 20
ENDMDL
MODEL 46
REMARK VINA RESULT:    -6.487      2.530      3.385
REMARK INTER + INTRA:         -23.366
REMARK INTER:                 -19.025
REMARK INTRA:                  -4.341
REMARK UNBOUND:                -4.745
REMARK SMILES CCCCCC(=O)N[C@H](CC(=O)O)C(=O)N[C@H]1C(=O)N[C@H](CCCN=C(N)N)C(=O)N[C@@H]2CC[C@H](O)N(C2=O)[C@@H](CC(C)C)C(=O)N(C)[C@@H](Cc2ccccc2)C(=O)N[C@H](C(C)C)C(=O)O[C@@H]1C
REMARK SMILES IDX 30 1 31 2 29 3 32 5 35 6 37 7 34 8 38 9 33 10 39 11 36 12
REMARK SMILES IDX 40 14 41 15 42 16 43 17 44 18 45 19 46 20 47 21 48 22 49 23
REMARK SMILES IDX 50 24 51 25 52 26 56 27 53 28 55 29 54 30 57 31 58 32 59 33
REMARK SMILES IDX 60 35 61 36 62 37 63 38 64 39 65 40 66 41 67 42 68 43 21 45
REMARK SMILES IDX 20 46 18 47 19 48 17 50 16 52 14 53 15 54 9 56 8 57 6 58
REMARK SMILES IDX 7 59 5 61 4 62 3 63 2 64 1 65 10 66 11 67 12 68 13 69 22 71
REMARK SMILES IDX 23 72 24 73 25 74 26 75 27 76 28 77
REMARK H PARENT 31 4 36 13 59 34 20 49 16 55 8 60 13 70 27 78 27 79 28 80
REMARK H PARENT 28 81
REMARK Flexibility Score:  259.900
ROOT
ATOM      1  O   UNL     1     -12.752   6.798   6.095  1.00  0.00    -0.273 OA
ATOM      2  N   UNL     1     -11.821   6.366   8.138  1.00  0.00    -0.343 N 
ATOM      3  C   UNL     1     -11.761   6.518   6.770  1.00  0.00     0.243 C 
ATOM      4  H   UNL     1     -10.983   6.149   8.663  1.00  0.00     0.164 HD
ENDROOT
BRANCH   2   5
ATOM      5  C   UNL     1     -13.102   6.416   8.836  1.00  0.00     0.171 C 
ATOM      6  C   UNL     1     -13.950   5.500  11.452  1.00  0.00     0.214 C 
ATOM      7  N   UNL     1     -14.076   4.618  10.316  1.00  0.00    -0.303 N 
ATOM      8  C   UNL     1     -14.072   6.971  11.088  1.00  0.00     0.057 C 
ATOM      9  C   UNL     1     -13.643   4.973   9.048  1.00  0.00     0.247 C 
ATOM     10  C   UNL     1     -13.026   7.332  10.056  1.00  0.00     0.040 C 
ATOM     11  O   UNL     1     -13.674   4.180   8.098  1.00  0.00    -0.272 OA
BRANCH   6  12
ATOM     12  O   UNL     1     -12.705   5.245  12.060  1.00  0.00    -0.373 OA
ATOM     13  H   UNL     1     -12.877   4.669  12.835  1.00  0.00     0.213 HD
ENDBRANCH   6  12
BRANCH   7  14
ATOM     14  C   UNL     1     -14.555   3.245  10.582  1.00  0.00     0.177 C 
BRANCH  14  15
ATOM     15  C   UNL     1     -13.466   2.240  11.006  1.00  0.00     0.038 C 
BRANCH  15  16
ATOM     16  C   UNL     1     -12.575   1.585   9.928  1.00  0.00    -0.015 C 
ATOM     17  C   UNL     1     -12.765   0.067   9.856  1.00  0.00     0.007 C 
ATOM     18  C   UNL     1     -11.098   1.870  10.232  1.00  0.00     0.007 C 
ENDBRANCH  15  16
ENDBRANCH  14  15
BRANCH  14  19
ATOM     19  C   UNL     1     -16.022   3.279  11.135  1.00  0.00     0.245 C 
ATOM     20  O   UNL     1     -16.730   4.238  10.783  1.00  0.00    -0.272 OA
BRANCH  19  21
ATOM     21  N   UNL     1     -16.518   2.380  12.062  1.00  0.00    -0.332 N 
ATOM     22  C   UNL     1     -16.463   2.540  13.504  1.00  0.00     0.147 C 
BRANCH  21  23
ATOM     23  C   UNL     1     -17.155   1.135  11.552  1.00  0.00     0.178 C 
BRANCH  23  24
ATOM     24  C   UNL     1     -16.441   0.493  10.344  1.00  0.00     0.070 C 
BRANCH  24  25
ATOM     25  C   UNL     1     -16.869   0.951   8.969  1.00  0.00    -0.045 A 
ATOM     26  C   UNL     1     -18.216   1.212   8.686  1.00  0.00     0.004 A 
ATOM     27  C   UNL     1     -15.918   1.118   7.951  1.00  0.00     0.004 A 
ATOM     28  C   UNL     1     -18.605   1.618   7.408  1.00  0.00     0.000 A 
ATOM     29  C   UNL     1     -16.309   1.526   6.675  1.00  0.00     0.000 A 
ATOM     30  C   UNL     1     -17.653   1.773   6.404  1.00  0.00     0.000 A 
ENDBRANCH  24  25
ENDBRANCH  23  24
BRANCH  23  31
ATOM     31  C   UNL     1     -17.541   0.148  12.680  1.00  0.00     0.243 C 
ATOM     32  O   UNL     1     -16.730  -0.387  13.431  1.00  0.00    -0.273 OA
ATOM     33  N   UNL     1     -18.873  -0.228  12.653  1.00  0.00    -0.341 N 
ATOM     34  H   UNL     1     -19.499   0.249  12.000  1.00  0.00     0.164 HD
BRANCH  33  35
ATOM     35  C   UNL     1     -19.435  -1.242  13.550  1.00  0.00     0.194 C 
BRANCH  35  36
ATOM     36  C   UNL     1     -20.099  -2.441  12.817  1.00  0.00     0.017 C 
ATOM     37  C   UNL     1     -19.353  -3.755  13.105  1.00  0.00     0.010 C 
ATOM     38  C   UNL     1     -20.149  -2.266  11.294  1.00  0.00     0.010 C 
ENDBRANCH  35  36
BRANCH  35  39
ATOM     39  C   UNL     1     -20.371  -0.631  14.630  1.00  0.00     0.329 C 
ATOM     40  O   UNL     1     -20.107   0.375  15.277  1.00  0.00    -0.250 OA
BRANCH  39  41
ATOM     41  O   UNL     1     -21.565  -1.292  14.717  1.00  0.00    -0.458 OA
BRANCH  41  42
ATOM     42  C   UNL     1     -21.953  -1.743  16.037  1.00  0.00     0.205 CG0
ATOM     43  C   UNL     1     -21.904  -3.270  16.028  1.00  0.00     0.056 C 
ATOM     44  G   UNL     1     -23.362  -1.200  16.348  1.00  0.00     0.000 G0
ENDBRANCH  41  42
ENDBRANCH  39  41
ENDBRANCH  35  39
ENDBRANCH  33  35
ENDBRANCH  23  31
ENDBRANCH  21  23
ENDBRANCH  19  21
ENDBRANCH  14  19
ENDBRANCH   7  14
ENDBRANCH   2   5
BRANCH   3  45
ATOM     45  C   UNL     1     -10.370   6.334   6.149  1.00  0.00     0.171 C 
BRANCH  45  46
ATOM     46  N   UNL     1     -10.181   7.475   5.263  1.00  0.00    -0.342 N 
ATOM     47  C   UNL     1     -10.071   8.761   5.731  1.00  0.00     0.247 C 
ATOM     48  O   UNL     1     -10.051   9.035   6.931  1.00  0.00    -0.273 OA
ATOM     49  H   UNL     1     -10.135   7.286   4.263  1.00  0.00     0.164 HD
BRANCH  47  50
ATOM     50  C   UNL     1     -10.002   9.844   4.645  1.00  0.00     0.212 CG0
ATOM     51  G   UNL     1     -10.240  11.206   5.328  1.00  0.00     0.000 G0
BRANCH  50  52
ATOM     52  N   UNL     1      -8.672   9.719   4.054  1.00  0.00    -0.339 N 
ATOM     53  C   UNL     1      -8.377   8.844   3.037  1.00  0.00     0.243 C 
ATOM     54  O   UNL     1      -9.201   8.057   2.581  1.00  0.00    -0.273 OA
ATOM     55  H   UNL     1      -7.919  10.267   4.465  1.00  0.00     0.164 HD
BRANCH  53  56
ATOM     56  C   UNL     1      -6.888   8.828   2.636  1.00  0.00     0.182 C 
BRANCH  56  57
ATOM     57  N   UNL     1      -6.068   8.200   3.678  1.00  0.00    -0.344 N 
ATOM     58  C   UNL     1      -5.785   6.856   3.680  1.00  0.00     0.220 C 
ATOM     59  O   UNL     1      -6.254   6.078   2.857  1.00  0.00    -0.275 OA
ATOM     60  H   UNL     1      -5.579   8.822   4.316  1.00  0.00     0.164 HD
BRANCH  58  61
ATOM     61  C   UNL     1      -4.873   6.436   4.817  1.00  0.00     0.100 C 
BRANCH  61  62
ATOM     62  C   UNL     1      -5.427   5.286   5.659  1.00  0.00     0.010 C 
BRANCH  62  63
ATOM     63  C   UNL     1      -4.729   3.941   5.419  1.00  0.00     0.000 C 
BRANCH  63  64
ATOM     64  C   UNL     1      -5.324   3.121   4.275  1.00  0.00    -0.003 C 
ATOM     65  C   UNL     1      -4.355   3.014   3.107  1.00  0.00     0.004 C 
ENDBRANCH  63  64
ENDBRANCH  62  63
ENDBRANCH  61  62
ENDBRANCH  58  61
ENDBRANCH  56  57
BRANCH  56  66
ATOM     66  C   UNL     1      -6.390  10.227   2.277  1.00  0.00     0.157 C 
BRANCH  66  67
ATOM     67  C   UNL     1      -5.098  10.165   1.514  1.00  0.00     0.305 C 
ATOM     68  O   UNL     1      -4.431   9.168   1.282  1.00  0.00    -0.252 OA
BRANCH  67  69
ATOM     69  O   UNL     1      -4.730  11.367   1.032  1.00  0.00    -0.481 OA
ATOM     70  H   UNL     1      -3.829  11.228   0.671  1.00  0.00     0.296 HD
ENDBRANCH  67  69
ENDBRANCH  66  67
ENDBRANCH  56  66
ENDBRANCH  53  56
ENDBRANCH  50  52
ENDBRANCH  47  50
ENDBRANCH  45  46
BRANCH  45  71
ATOM     71  C   UNL     1     -10.297   5.007   5.385  1.00  0.00     0.037 C 
BRANCH  71  72
ATOM     72  C   UNL     1      -9.067   4.932   4.478  1.00  0.00     0.026 C 
BRANCH  72  73
ATOM     73  C   UNL     1      -8.475   3.524   4.452  1.00  0.00     0.146 C 
BRANCH  73  74
ATOM     74  N   UNL     1      -9.582   2.574   4.500  1.00  0.00    -0.254 NA
ATOM     75  C   UNL     1      -9.337   1.389   4.925  1.00  0.00     0.185 C 
ATOM     76  N   UNL     1     -10.335   0.493   4.982  1.00  0.00    -0.370 N 
ATOM     77  N   UNL     1      -8.173   0.868   5.349  1.00  0.00    -0.370 N 
ATOM     78  H   UNL     1     -11.246   0.802   4.673  1.00  0.00     0.159 HD
ATOM     79  H   UNL     1     -10.192  -0.485   5.165  1.00  0.00     0.159 HD
ATOM     80  H   UNL     1      -7.334   1.430   5.366  1.00  0.00     0.159 HD
ATOM     81  H   UNL     1      -8.125  -0.045   5.771  1.00  0.00     0.159 HD
ENDBRANCH  73  74
ENDBRANCH  72  73
ENDBRANCH  71  72
ENDBRANCH  45  71
ENDBRANCH   3  45
TORSDOF 20
ENDMDL
MODEL 47
REMARK VINA RESULT:    -6.476      4.782      8.539
REMARK INTER + INTRA:         -23.337
REMARK INTER:                 -18.208
REMARK INTRA:                  -5.129
REMARK UNBOUND:                -4.745
REMARK SMILES CCCCCC(=O)N[C@H](CC(=O)O)C(=O)N[C@H]1C(=O)N[C@H](CCCN=C(N)N)C(=O)N[C@@H]2CC[C@H](O)N(C2=O)[C@@H](CC(C)C)C(=O)N(C)[C@@H](Cc2ccccc2)C(=O)N[C@H](C(C)C)C(=O)O[C@@H]1C
REMARK SMILES IDX 30 1 31 2 29 3 32 5 35 6 37 7 34 8 38 9 33 10 39 11 36 12
REMARK SMILES IDX 40 14 41 15 42 16 43 17 44 18 45 19 46 20 47 21 48 22 49 23
REMARK SMILES IDX 50 24 51 25 52 26 56 27 53 28 55 29 54 30 57 31 58 32 59 33
REMARK SMILES IDX 60 35 61 36 62 37 63 38 64 39 65 40 66 41 67 42 68 43 21 45
REMARK SMILES IDX 20 46 18 47 19 48 17 50 16 52 14 53 15 54 9 56 8 57 6 58
REMARK SMILES IDX 7 59 5 61 4 62 3 63 2 64 1 65 10 66 11 67 12 68 13 69 22 71
REMARK SMILES IDX 23 72 24 73 25 74 26 75 27 76 28 77
REMARK H PARENT 31 4 36 13 59 34 20 49 16 55 8 60 13 70 27 78 27 79 28 80
REMARK H PARENT 28 81
REMARK Flexibility Score:  259.900
ROOT
ATOM      1  O   UNL     1      -9.874   3.695   5.118  1.00  0.00    -0.273 OA
ATOM      2  N   UNL     1      -9.803   1.831   3.795  1.00  0.00    -0.343 N 
ATOM      3  C   UNL     1      -9.363   3.078   4.183  1.00  0.00     0.243 C 
ATOM      4  H   UNL     1      -9.349   1.347   3.030  1.00  0.00     0.164 HD
ENDROOT
BRANCH   2   5
ATOM      5  C   UNL     1     -10.984   1.236   4.410  1.00  0.00     0.171 C 
ATOM      6  C   UNL     1     -12.812   2.167   6.458  1.00  0.00     0.214 C 
ATOM      7  N   UNL     1     -11.653   1.394   6.839  1.00  0.00    -0.303 N 
ATOM      8  C   UNL     1     -13.338   1.821   5.074  1.00  0.00     0.057 C 
ATOM      9  C   UNL     1     -10.713   0.962   5.917  1.00  0.00     0.247 C 
ATOM     10  C   UNL     1     -12.245   2.019   4.047  1.00  0.00     0.040 C 
ATOM     11  O   UNL     1      -9.679   0.375   6.260  1.00  0.00    -0.272 OA
BRANCH   6  12
ATOM     12  O   UNL     1     -12.462   3.530   6.526  1.00  0.00    -0.373 OA
ATOM     13  H   UNL     1     -12.073   3.770   5.658  1.00  0.00     0.213 HD
ENDBRANCH   6  12
BRANCH   7  14
ATOM     14  C   UNL     1     -11.422   1.200   8.286  1.00  0.00     0.177 C 
BRANCH  14  15
ATOM     15  C   UNL     1     -12.241   0.069   8.936  1.00  0.00     0.038 C 
BRANCH  15  16
ATOM     16  C   UNL     1     -13.672   0.358   9.440  1.00  0.00    -0.015 C 
ATOM     17  C   UNL     1     -14.743  -0.031   8.417  1.00  0.00     0.007 C 
ATOM     18  C   UNL     1     -13.821   1.854   9.746  1.00  0.00     0.007 C 
ENDBRANCH  15  16
ENDBRANCH  14  15
BRANCH  14  19
ATOM     19  C   UNL     1      -9.946   1.580   8.656  1.00  0.00     0.245 C 
ATOM     20  O   UNL     1      -9.289   0.728   9.276  1.00  0.00    -0.272 OA
BRANCH  19  21
ATOM     21  N   UNL     1      -9.391   2.827   8.432  1.00  0.00    -0.332 N 
ATOM     22  C   UNL     1      -8.117   3.078   7.782  1.00  0.00     0.147 C 
BRANCH  21  23
ATOM     23  C   UNL     1     -10.148   4.020   8.902  1.00  0.00     0.178 C 
BRANCH  23  24
ATOM     24  C   UNL     1     -10.005   4.324  10.407  1.00  0.00     0.070 C 
BRANCH  24  25
ATOM     25  C   UNL     1     -11.277   4.393  11.220  1.00  0.00    -0.045 A 
ATOM     26  C   UNL     1     -11.585   3.399  12.157  1.00  0.00     0.004 A 
ATOM     27  C   UNL     1     -12.174   5.458  11.041  1.00  0.00     0.004 A 
ATOM     28  C   UNL     1     -12.772   3.461  12.891  1.00  0.00     0.000 A 
ATOM     29  C   UNL     1     -13.358   5.519  11.777  1.00  0.00     0.000 A 
ATOM     30  C   UNL     1     -13.657   4.519  12.699  1.00  0.00     0.000 A 
ENDBRANCH  24  25
ENDBRANCH  23  24
BRANCH  23  31
ATOM     31  C   UNL     1      -9.983   5.245   7.971  1.00  0.00     0.243 C 
ATOM     32  O   UNL     1      -8.907   5.791   7.739  1.00  0.00    -0.273 OA
ATOM     33  N   UNL     1     -11.185   5.796   7.562  1.00  0.00    -0.341 N 
ATOM     34  H   UNL     1     -12.049   5.298   7.791  1.00  0.00     0.164 HD
BRANCH  33  35
ATOM     35  C   UNL     1     -11.273   7.029   6.775  1.00  0.00     0.194 C 
BRANCH  35  36
ATOM     36  C   UNL     1     -12.302   8.058   7.320  1.00  0.00     0.017 C 
ATOM     37  C   UNL     1     -13.686   7.415   7.518  1.00  0.00     0.010 C 
ATOM     38  C   UNL     1     -12.488   9.271   6.400  1.00  0.00     0.010 C 
ENDBRANCH  35  36
BRANCH  35  39
ATOM     39  C   UNL     1     -11.472   6.756   5.258  1.00  0.00     0.329 C 
ATOM     40  O   UNL     1     -12.214   5.892   4.807  1.00  0.00    -0.250 OA
BRANCH  39  41
ATOM     41  O   UNL     1     -10.791   7.648   4.476  1.00  0.00    -0.458 OA
BRANCH  41  42
ATOM     42  C   UNL     1      -9.410   7.891   4.834  1.00  0.00     0.205 CG0
ATOM     43  C   UNL     1      -9.279   9.379   5.152  1.00  0.00     0.056 C 
ATOM     44  G   UNL     1      -8.513   7.459   3.657  1.00  0.00     0.000 G0
ENDBRANCH  41  42
ENDBRANCH  39  41
ENDBRANCH  35  39
ENDBRANCH  33  35
ENDBRANCH  23  31
ENDBRANCH  21  23
ENDBRANCH  19  21
ENDBRANCH  14  19
ENDBRANCH   7  14
ENDBRANCH   2   5
BRANCH   3  45
ATOM     45  C   UNL     1      -8.178   3.635   3.382  1.00  0.00     0.171 C 
BRANCH  45  46
ATOM     46  N   UNL     1      -8.483   5.042   3.155  1.00  0.00    -0.342 N 
ATOM     47  C   UNL     1      -7.992   6.040   3.959  1.00  0.00     0.247 C 
ATOM     48  O   UNL     1      -7.204   5.829   4.881  1.00  0.00    -0.273 OA
ATOM     49  H   UNL     1      -9.087   5.266   2.367  1.00  0.00     0.164 HD
BRANCH  47  50
ATOM     50  C   UNL     1      -8.520   7.447   3.643  1.00  0.00     0.212 CG0
ATOM     51  G   UNL     1      -9.396   7.895   4.830  1.00  0.00     0.000 G0
BRANCH  50  52
ATOM     52  N   UNL     1      -7.332   8.276   3.457  1.00  0.00    -0.339 N 
ATOM     53  C   UNL     1      -7.142   9.090   2.367  1.00  0.00     0.243 C 
ATOM     54  O   UNL     1      -7.938   9.143   1.434  1.00  0.00    -0.273 OA
ATOM     55  H   UNL     1      -6.585   8.191   4.143  1.00  0.00     0.164 HD
BRANCH  53  56
ATOM     56  C   UNL     1      -5.774   9.802   2.347  1.00  0.00     0.182 C 
BRANCH  56  57
ATOM     57  N   UNL     1      -5.860  11.086   1.642  1.00  0.00    -0.344 N 
ATOM     58  C   UNL     1      -6.658  12.114   2.080  1.00  0.00     0.220 C 
ATOM     59  O   UNL     1      -7.408  12.007   3.044  1.00  0.00    -0.275 OA
ATOM     60  H   UNL     1      -5.182  11.251   0.903  1.00  0.00     0.164 HD
BRANCH  58  61
ATOM     61  C   UNL     1      -6.544  13.367   1.231  1.00  0.00     0.100 C 
BRANCH  61  62
ATOM     62  C   UNL     1      -5.414  13.315   0.204  1.00  0.00     0.010 C 
BRANCH  62  63
ATOM     63  C   UNL     1      -4.818  14.685  -0.145  1.00  0.00     0.000 C 
BRANCH  63  64
ATOM     64  C   UNL     1      -3.654  14.630  -1.133  1.00  0.00    -0.003 C 
ATOM     65  C   UNL     1      -3.605  13.293  -1.858  1.00  0.00     0.004 C 
ENDBRANCH  63  64
ENDBRANCH  62  63
ENDBRANCH  61  62
ENDBRANCH  58  61
ENDBRANCH  56  57
BRANCH  56  66
ATOM     66  C   UNL     1      -4.682   8.901   1.774  1.00  0.00     0.157 C 
BRANCH  66  67
ATOM     67  C   UNL     1      -3.426   8.982   2.592  1.00  0.00     0.305 C 
ATOM     68  O   UNL     1      -2.606   8.093   2.766  1.00  0.00    -0.252 OA
BRANCH  67  69
ATOM     69  O   UNL     1      -3.233  10.208   3.115  1.00  0.00    -0.481 OA
ATOM     70  H   UNL     1      -3.350  10.823   2.360  1.00  0.00     0.296 HD
ENDBRANCH  67  69
ENDBRANCH  66  67
ENDBRANCH  56  66
ENDBRANCH  53  56
ENDBRANCH  50  52
ENDBRANCH  47  50
ENDBRANCH  45  46
BRANCH  45  71
ATOM     71  C   UNL     1      -8.019   2.871   2.063  1.00  0.00     0.037 C 
BRANCH  71  72
ATOM     72  C   UNL     1      -6.777   1.976   2.062  1.00  0.00     0.026 C 
BRANCH  72  73
ATOM     73  C   UNL     1      -5.787   2.390   3.149  1.00  0.00     0.146 C 
BRANCH  73  74
ATOM     74  N   UNL     1      -4.989   3.496   2.628  1.00  0.00    -0.254 NA
ATOM     75  C   UNL     1      -4.533   4.352   3.466  1.00  0.00     0.185 C 
ATOM     76  N   UNL     1      -3.794   5.380   3.017  1.00  0.00    -0.370 N 
ATOM     77  N   UNL     1      -4.683   4.391   4.801  1.00  0.00    -0.370 N 
ATOM     78  H   UNL     1      -3.638   5.430   2.020  1.00  0.00     0.159 HD
ATOM     79  H   UNL     1      -3.528   6.162   3.589  1.00  0.00     0.159 HD
ATOM     80  H   UNL     1      -5.214   3.678   5.279  1.00  0.00     0.159 HD
ATOM     81  H   UNL     1      -4.181   5.051   5.371  1.00  0.00     0.159 HD
ENDBRANCH  73  74
ENDBRANCH  72  73
ENDBRANCH  71  72
ENDBRANCH  45  71
ENDBRANCH   3  45
TORSDOF 20
ENDMDL
MODEL 48
REMARK VINA RESULT:    -6.443      4.211      7.877
REMARK INTER + INTRA:         -23.240
REMARK INTER:                 -17.407
REMARK INTRA:                  -5.832
REMARK UNBOUND:                -4.745
REMARK SMILES CCCCCC(=O)N[C@H](CC(=O)O)C(=O)N[C@H]1C(=O)N[C@H](CCCN=C(N)N)C(=O)N[C@@H]2CC[C@H](O)N(C2=O)[C@@H](CC(C)C)C(=O)N(C)[C@@H](Cc2ccccc2)C(=O)N[C@H](C(C)C)C(=O)O[C@@H]1C
REMARK SMILES IDX 30 1 31 2 29 3 32 5 35 6 37 7 34 8 38 9 33 10 39 11 36 12
REMARK SMILES IDX 40 14 41 15 42 16 43 17 44 18 45 19 46 20 47 21 48 22 49 23
REMARK SMILES IDX 50 24 51 25 52 26 56 27 53 28 55 29 54 30 57 31 58 32 59 33
REMARK SMILES IDX 60 35 61 36 62 37 63 38 64 39 65 40 66 41 67 42 68 43 21 45
REMARK SMILES IDX 20 46 18 47 19 48 17 50 16 52 14 53 15 54 9 56 8 57 6 58
REMARK SMILES IDX 7 59 5 61 4 62 3 63 2 64 1 65 10 66 11 67 12 68 13 69 22 71
REMARK SMILES IDX 23 72 24 73 25 74 26 75 27 76 28 77
REMARK H PARENT 31 4 36 13 59 34 20 49 16 55 8 60 13 70 27 78 27 79 28 80
REMARK H PARENT 28 81
REMARK Flexibility Score:  259.900
ROOT
ATOM      1  O   UNL     1     -13.764   4.813  10.347  1.00  0.00    -0.273 OA
ATOM      2  N   UNL     1     -12.955   5.581   8.351  1.00  0.00    -0.343 N 
ATOM      3  C   UNL     1     -12.803   5.076   9.624  1.00  0.00     0.243 C 
ATOM      4  H   UNL     1     -12.142   5.773   7.779  1.00  0.00     0.164 HD
ENDROOT
BRANCH   2   5
ATOM      5  C   UNL     1     -14.277   5.940   7.848  1.00  0.00     0.171 C 
ATOM      6  C   UNL     1     -16.959   5.265   8.717  1.00  0.00     0.214 C 
ATOM      7  N   UNL     1     -16.299   4.434   7.737  1.00  0.00    -0.303 N 
ATOM      8  C   UNL     1     -16.524   6.721   8.660  1.00  0.00     0.057 C 
ATOM      9  C   UNL     1     -15.001   4.669   7.317  1.00  0.00     0.247 C 
ATOM     10  C   UNL     1     -15.026   6.817   8.850  1.00  0.00     0.040 C 
ATOM     11  O   UNL     1     -14.412   3.903   6.543  1.00  0.00    -0.272 OA
BRANCH   6  12
ATOM     12  O   UNL     1     -16.696   4.722   9.990  1.00  0.00    -0.373 OA
ATOM     13  H   UNL     1     -17.000   3.790   9.973  1.00  0.00     0.213 HD
ENDBRANCH   6  12
BRANCH   7  14
ATOM     14  C   UNL     1     -17.016   3.217   7.300  1.00  0.00     0.177 C 
BRANCH  14  15
ATOM     15  C   UNL     1     -17.197   3.075   5.776  1.00  0.00     0.038 C 
BRANCH  15  16
ATOM     16  C   UNL     1     -16.978   1.699   5.109  1.00  0.00    -0.015 C 
ATOM     17  C   UNL     1     -15.982   1.765   3.947  1.00  0.00     0.007 C 
ATOM     18  C   UNL     1     -18.312   1.166   4.568  1.00  0.00     0.007 C 
ENDBRANCH  15  16
ENDBRANCH  14  15
BRANCH  14  19
ATOM     19  C   UNL     1     -16.742   2.037   8.294  1.00  0.00     0.245 C 
ATOM     20  O   UNL     1     -17.562   1.878   9.214  1.00  0.00    -0.272 OA
BRANCH  19  21
ATOM     21  N   UNL     1     -15.601   1.255   8.267  1.00  0.00    -0.332 N 
ATOM     22  C   UNL     1     -15.321   0.206   7.303  1.00  0.00     0.147 C 
BRANCH  21  23
ATOM     23  C   UNL     1     -14.570   1.491   9.315  1.00  0.00     0.178 C 
BRANCH  23  24
ATOM     24  C   UNL     1     -14.748   0.652  10.597  1.00  0.00     0.070 C 
BRANCH  24  25
ATOM     25  C   UNL     1     -15.381   1.338  11.786  1.00  0.00    -0.045 A 
ATOM     26  C   UNL     1     -14.784   2.465  12.365  1.00  0.00     0.004 A 
ATOM     27  C   UNL     1     -16.578   0.849  12.330  1.00  0.00     0.004 A 
ATOM     28  C   UNL     1     -15.366   3.083  13.474  1.00  0.00     0.000 A 
ATOM     29  C   UNL     1     -17.159   1.468  13.438  1.00  0.00     0.000 A 
ATOM     30  C   UNL     1     -16.551   2.583  14.011  1.00  0.00     0.000 A 
ENDBRANCH  24  25
ENDBRANCH  23  24
BRANCH  23  31
ATOM     31  C   UNL     1     -13.129   1.519   8.750  1.00  0.00     0.243 C 
ATOM     32  O   UNL     1     -12.705   2.388   7.993  1.00  0.00    -0.273 OA
ATOM     33  N   UNL     1     -12.406   0.371   9.024  1.00  0.00    -0.341 N 
ATOM     34  H   UNL     1     -12.814  -0.321   9.658  1.00  0.00     0.164 HD
BRANCH  33  35
ATOM     35  C   UNL     1     -11.063   0.126   8.490  1.00  0.00     0.194 C 
BRANCH  35  36
ATOM     36  C   UNL     1     -10.766  -1.368   8.179  1.00  0.00     0.017 C 
ATOM     37  C   UNL     1      -9.300  -1.722   8.484  1.00  0.00     0.010 C 
ATOM     38  C   UNL     1     -11.035  -1.747   6.717  1.00  0.00     0.010 C 
ENDBRANCH  35  36
BRANCH  35  39
ATOM     39  C   UNL     1      -9.947   0.771   9.358  1.00  0.00     0.329 C 
ATOM     40  O   UNL     1      -9.873   0.657  10.576  1.00  0.00    -0.250 OA
BRANCH  39  41
ATOM     41  O   UNL     1      -9.004   1.410   8.602  1.00  0.00    -0.458 OA
BRANCH  41  42
ATOM     42  C   UNL     1      -9.487   2.103   7.425  1.00  0.00     0.205 CG0
ATOM     43  C   UNL     1      -9.029   1.303   6.208  1.00  0.00     0.056 C 
ATOM     44  G   UNL     1      -8.925   3.538   7.434  1.00  0.00     0.000 G0
ENDBRANCH  41  42
ENDBRANCH  39  41
ENDBRANCH  35  39
ENDBRANCH  33  35
ENDBRANCH  23  31
ENDBRANCH  21  23
ENDBRANCH  19  21
ENDBRANCH  14  19
ENDBRANCH   7  14
ENDBRANCH   2   5
BRANCH   3  45
ATOM     45  C   UNL     1     -11.353   4.845  10.070  1.00  0.00     0.171 C 
BRANCH  45  46
ATOM     46  N   UNL     1     -10.712   4.134   8.972  1.00  0.00    -0.342 N 
ATOM     47  C   UNL     1      -9.377   4.272   8.685  1.00  0.00     0.247 C 
ATOM     48  O   UNL     1      -8.611   4.945   9.376  1.00  0.00    -0.273 OA
ATOM     49  H   UNL     1     -11.298   3.521   8.409  1.00  0.00     0.164 HD
BRANCH  47  50
ATOM     50  C   UNL     1      -8.906   3.544   7.418  1.00  0.00     0.212 CG0
ATOM     51  G   UNL     1      -9.493   2.119   7.452  1.00  0.00     0.000 G0
BRANCH  50  52
ATOM     52  N   UNL     1      -9.399   4.346   6.302  1.00  0.00    -0.339 N 
ATOM     53  C   UNL     1      -8.594   4.810   5.291  1.00  0.00     0.243 C 
ATOM     54  O   UNL     1      -7.379   4.630   5.276  1.00  0.00    -0.273 OA
ATOM     55  H   UNL     1     -10.379   4.623   6.316  1.00  0.00     0.164 HD
BRANCH  53  56
ATOM     56  C   UNL     1      -9.323   5.707   4.270  1.00  0.00     0.182 C 
BRANCH  56  57
ATOM     57  N   UNL     1     -10.499   6.342   4.873  1.00  0.00    -0.344 N 
ATOM     58  C   UNL     1     -10.750   7.688   4.756  1.00  0.00     0.220 C 
ATOM     59  O   UNL     1      -9.975   8.462   4.205  1.00  0.00    -0.275 OA
ATOM     60  H   UNL     1     -11.214   5.725   5.248  1.00  0.00     0.164 HD
BRANCH  58  61
ATOM     61  C   UNL     1     -12.052   8.115   5.407  1.00  0.00     0.100 C 
BRANCH  61  62
ATOM     62  C   UNL     1     -11.956   9.439   6.166  1.00  0.00     0.010 C 
BRANCH  62  63
ATOM     63  C   UNL     1     -13.296  10.167   6.330  1.00  0.00     0.000 C 
BRANCH  63  64
ATOM     64  C   UNL     1     -14.473   9.478   5.640  1.00  0.00    -0.003 C 
ATOM     65  C   UNL     1     -15.774   9.717   6.391  1.00  0.00     0.004 C 
ENDBRANCH  63  64
ENDBRANCH  62  63
ENDBRANCH  61  62
ENDBRANCH  58  61
ENDBRANCH  56  57
BRANCH  56  66
ATOM     66  C   UNL     1      -9.671   4.938   2.997  1.00  0.00     0.157 C 
BRANCH  66  67
ATOM     67  C   UNL     1     -10.323   3.624   3.317  1.00  0.00     0.305 C 
ATOM     68  O   UNL     1      -9.871   2.510   3.102  1.00  0.00    -0.252 OA
BRANCH  67  69
ATOM     69  O   UNL     1     -11.504   3.779   3.947  1.00  0.00    -0.481 OA
ATOM     70  H   UNL     1     -12.147   3.283   3.397  1.00  0.00     0.296 HD
ENDBRANCH  67  69
ENDBRANCH  66  67
ENDBRANCH  56  66
ENDBRANCH  53  56
ENDBRANCH  50  52
ENDBRANCH  47  50
ENDBRANCH  45  46
BRANCH  45  71
ATOM     71  C   UNL     1     -11.317   4.031  11.368  1.00  0.00     0.037 C 
BRANCH  71  72
ATOM     72  C   UNL     1     -11.103   4.917  12.598  1.00  0.00     0.026 C 
BRANCH  72  73
ATOM     73  C   UNL     1     -10.969   4.085  13.872  1.00  0.00     0.146 C 
BRANCH  73  74
ATOM     74  N   UNL     1     -12.132   4.360  14.710  1.00  0.00    -0.254 NA
ATOM     75  C   UNL     1     -11.956   5.065  15.766  1.00  0.00     0.185 C 
ATOM     76  N   UNL     1     -13.007   5.336  16.556  1.00  0.00    -0.370 N 
ATOM     77  N   UNL     1     -10.822   5.611  16.238  1.00  0.00    -0.370 N 
ATOM     78  H   UNL     1     -13.900   4.955  16.277  1.00  0.00     0.159 HD
ATOM     79  H   UNL     1     -12.923   5.754  17.466  1.00  0.00     0.159 HD
ATOM     80  H   UNL     1      -9.951   5.494  15.744  1.00  0.00     0.159 HD
ATOM     81  H   UNL     1     -10.827   6.245  17.020  1.00  0.00     0.159 HD
ENDBRANCH  73  74
ENDBRANCH  72  73
ENDBRANCH  71  72
ENDBRANCH  45  71
ENDBRANCH   3  45
TORSDOF 20
ENDMDL
MODEL 49
REMARK VINA RESULT:    -6.433      3.770      7.303
REMARK INTER + INTRA:         -23.213
REMARK INTER:                 -16.541
REMARK INTRA:                  -6.672
REMARK UNBOUND:                -4.745
REMARK SMILES CCCCCC(=O)N[C@H](CC(=O)O)C(=O)N[C@H]1C(=O)N[C@H](CCCN=C(N)N)C(=O)N[C@@H]2CC[C@H](O)N(C2=O)[C@@H](CC(C)C)C(=O)N(C)[C@@H](Cc2ccccc2)C(=O)N[C@H](C(C)C)C(=O)O[C@@H]1C
REMARK SMILES IDX 30 1 31 2 29 3 32 5 35 6 37 7 34 8 38 9 33 10 39 11 36 12
REMARK SMILES IDX 40 14 41 15 42 16 43 17 44 18 45 19 46 20 47 21 48 22 49 23
REMARK SMILES IDX 50 24 51 25 52 26 56 27 53 28 55 29 54 30 57 31 58 32 59 33
REMARK SMILES IDX 60 35 61 36 62 37 63 38 64 39 65 40 66 41 67 42 68 43 21 45
REMARK SMILES IDX 20 46 18 47 19 48 17 50 16 52 14 53 15 54 9 56 8 57 6 58
REMARK SMILES IDX 7 59 5 61 4 62 3 63 2 64 1 65 10 66 11 67 12 68 13 69 22 71
REMARK SMILES IDX 23 72 24 73 25 74 26 75 27 76 28 77
REMARK H PARENT 31 4 36 13 59 34 20 49 16 55 8 60 13 70 27 78 27 79 28 80
REMARK H PARENT 28 81
REMARK Flexibility Score:  259.900
ROOT
ATOM      1  O   UNL     1     -13.837   4.339  10.842  1.00  0.00    -0.273 OA
ATOM      2  N   UNL     1     -13.026   5.220   8.894  1.00  0.00    -0.343 N 
ATOM      3  C   UNL     1     -12.881   4.574  10.103  1.00  0.00     0.243 C 
ATOM      4  H   UNL     1     -12.219   5.383   8.305  1.00  0.00     0.164 HD
ENDROOT
BRANCH   2   5
ATOM      5  C   UNL     1     -14.319   5.763   8.493  1.00  0.00     0.171 C 
ATOM      6  C   UNL     1     -17.031   5.223   9.363  1.00  0.00     0.214 C 
ATOM      7  N   UNL     1     -16.478   4.477   8.257  1.00  0.00    -0.303 N 
ATOM      8  C   UNL     1     -16.461   6.627   9.486  1.00  0.00     0.057 C 
ATOM      9  C   UNL     1     -15.174   4.649   7.823  1.00  0.00     0.247 C 
ATOM     10  C   UNL     1     -14.956   6.559   9.630  1.00  0.00     0.040 C 
ATOM     11  O   UNL     1     -14.681   3.945   6.932  1.00  0.00    -0.272 OA
BRANCH   6  12
ATOM     12  O   UNL     1     -16.790   4.489  10.541  1.00  0.00    -0.373 OA
ATOM     13  H   UNL     1     -17.579   4.598  11.114  1.00  0.00     0.213 HD
ENDBRANCH   6  12
BRANCH   7  14
ATOM     14  C   UNL     1     -17.318   3.402   7.687  1.00  0.00     0.177 C 
BRANCH  14  15
ATOM     15  C   UNL     1     -17.478   3.437   6.154  1.00  0.00     0.038 C 
BRANCH  15  16
ATOM     16  C   UNL     1     -17.217   2.156   5.332  1.00  0.00    -0.015 C 
ATOM     17  C   UNL     1     -16.238   2.391   4.178  1.00  0.00     0.007 C 
ATOM     18  C   UNL     1     -18.536   1.638   4.746  1.00  0.00     0.007 C 
ENDBRANCH  15  16
ENDBRANCH  14  15
BRANCH  14  19
ATOM     19  C   UNL     1     -17.205   2.104   8.557  1.00  0.00     0.245 C 
ATOM     20  O   UNL     1     -18.003   1.992   9.502  1.00  0.00    -0.272 OA
BRANCH  19  21
ATOM     21  N   UNL     1     -16.211   1.154   8.399  1.00  0.00    -0.332 N 
ATOM     22  C   UNL     1     -16.193   0.114   7.386  1.00  0.00     0.147 C 
BRANCH  21  23
ATOM     23  C   UNL     1     -15.063   1.183   9.348  1.00  0.00     0.178 C 
BRANCH  23  24
ATOM     24  C   UNL     1     -15.147   0.155  10.494  1.00  0.00     0.070 C 
BRANCH  24  25
ATOM     25  C   UNL     1     -15.918   0.562  11.728  1.00  0.00    -0.045 A 
ATOM     26  C   UNL     1     -16.882  -0.289  12.285  1.00  0.00     0.004 A 
ATOM     27  C   UNL     1     -15.680   1.805  12.333  1.00  0.00     0.004 A 
ATOM     28  C   UNL     1     -17.602   0.102  13.416  1.00  0.00     0.000 A 
ATOM     29  C   UNL     1     -16.400   2.193  13.464  1.00  0.00     0.000 A 
ATOM     30  C   UNL     1     -17.363   1.342  14.003  1.00  0.00     0.000 A 
ENDBRANCH  24  25
ENDBRANCH  23  24
BRANCH  23  31
ATOM     31  C   UNL     1     -13.692   1.253   8.634  1.00  0.00     0.243 C 
ATOM     32  O   UNL     1     -13.348   2.173   7.895  1.00  0.00    -0.273 OA
ATOM     33  N   UNL     1     -12.948   0.092   8.751  1.00  0.00    -0.341 N 
ATOM     34  H   UNL     1     -13.289  -0.642   9.377  1.00  0.00     0.164 HD
BRANCH  33  35
ATOM     35  C   UNL     1     -11.671  -0.112   8.060  1.00  0.00     0.194 C 
BRANCH  35  36
ATOM     36  C   UNL     1     -11.614  -1.408   7.203  1.00  0.00     0.017 C 
ATOM     37  C   UNL     1     -11.302  -1.090   5.730  1.00  0.00     0.010 C 
ATOM     38  C   UNL     1     -12.920  -2.210   7.232  1.00  0.00     0.010 C 
ENDBRANCH  35  36
BRANCH  35  39
ATOM     39  C   UNL     1     -10.450   0.007   9.014  1.00  0.00     0.329 C 
ATOM     40  O   UNL     1     -10.074  -0.887   9.763  1.00  0.00    -0.250 OA
BRANCH  39  41
ATOM     41  O   UNL     1      -9.785   1.193   8.861  1.00  0.00    -0.458 OA
BRANCH  41  42
ATOM     42  C   UNL     1      -9.531   1.615   7.500  1.00  0.00     0.205 CG0
ATOM     43  C   UNL     1      -8.355   0.789   6.981  1.00  0.00     0.056 C 
ATOM     44  G   UNL     1      -9.233   3.127   7.502  1.00  0.00     0.000 G0
ENDBRANCH  41  42
ENDBRANCH  39  41
ENDBRANCH  35  39
ENDBRANCH  33  35
ENDBRANCH  23  31
ENDBRANCH  21  23
ENDBRANCH  19  21
ENDBRANCH  14  19
ENDBRANCH   7  14
ENDBRANCH   2   5
BRANCH   3  45
ATOM     45  C   UNL     1     -11.448   4.149  10.453  1.00  0.00     0.171 C 
BRANCH  45  46
ATOM     46  N   UNL     1     -10.899   3.574   9.233  1.00  0.00    -0.342 N 
ATOM     47  C   UNL     1      -9.579   3.712   8.883  1.00  0.00     0.247 C 
ATOM     48  O   UNL     1      -8.751   4.267   9.606  1.00  0.00    -0.273 OA
ATOM     49  H   UNL     1     -11.539   3.057   8.632  1.00  0.00     0.164 HD
BRANCH  47  50
ATOM     50  C   UNL     1      -9.209   3.147   7.504  1.00  0.00     0.212 CG0
ATOM     51  G   UNL     1      -9.536   1.640   7.514  1.00  0.00     0.000 G0
BRANCH  50  52
ATOM     52  N   UNL     1     -10.009   3.905   6.545  1.00  0.00    -0.339 N 
ATOM     53  C   UNL     1      -9.546   4.288   5.310  1.00  0.00     0.243 C 
ATOM     54  O   UNL     1      -8.397   4.067   4.937  1.00  0.00    -0.273 OA
ATOM     55  H   UNL     1     -10.933   4.214   6.841  1.00  0.00     0.164 HD
BRANCH  53  56
ATOM     56  C   UNL     1     -10.539   5.153   4.508  1.00  0.00     0.182 C 
BRANCH  56  57
ATOM     57  N   UNL     1      -9.922   6.419   4.098  1.00  0.00    -0.344 N 
ATOM     58  C   UNL     1      -9.365   6.597   2.855  1.00  0.00     0.220 C 
ATOM     59  O   UNL     1      -9.279   5.693   2.031  1.00  0.00    -0.275 OA
ATOM     60  H   UNL     1     -10.062   7.219   4.709  1.00  0.00     0.164 HD
BRANCH  58  61
ATOM     61  C   UNL     1      -8.839   8.002   2.627  1.00  0.00     0.100 C 
BRANCH  61  62
ATOM     62  C   UNL     1      -7.666   8.375   3.534  1.00  0.00     0.010 C 
BRANCH  62  63
ATOM     63  C   UNL     1      -6.347   7.681   3.170  1.00  0.00     0.000 C 
BRANCH  63  64
ATOM     64  C   UNL     1      -5.956   6.544   4.113  1.00  0.00    -0.003 C 
ATOM     65  C   UNL     1      -5.114   5.496   3.399  1.00  0.00     0.004 C 
ENDBRANCH  63  64
ENDBRANCH  62  63
ENDBRANCH  61  62
ENDBRANCH  58  61
ENDBRANCH  56  57
BRANCH  56  66
ATOM     66  C   UNL     1     -11.841   5.369   5.277  1.00  0.00     0.157 C 
BRANCH  66  67
ATOM     67  C   UNL     1     -11.796   6.639   6.077  1.00  0.00     0.305 C 
ATOM     68  O   UNL     1     -11.187   6.828   7.118  1.00  0.00    -0.252 OA
BRANCH  67  69
ATOM     69  O   UNL     1     -12.487   7.637   5.493  1.00  0.00    -0.481 OA
ATOM     70  H   UNL     1     -12.179   7.643   4.562  1.00  0.00     0.296 HD
ENDBRANCH  67  69
ENDBRANCH  66  67
ENDBRANCH  56  66
ENDBRANCH  53  56
ENDBRANCH  50  52
ENDBRANCH  47  50
ENDBRANCH  45  46
BRANCH  45  71
ATOM     71  C   UNL     1     -11.458   3.135  11.602  1.00  0.00     0.037 C 
BRANCH  71  72
ATOM     72  C   UNL     1     -10.660   3.627  12.812  1.00  0.00     0.026 C 
BRANCH  72  73
ATOM     73  C   UNL     1     -11.330   4.829  13.474  1.00  0.00     0.146 C 
BRANCH  73  74
ATOM     74  N   UNL     1     -12.101   4.339  14.613  1.00  0.00    -0.254 NA
ATOM     75  C   UNL     1     -13.378   4.435  14.557  1.00  0.00     0.185 C 
ATOM     76  N   UNL     1     -14.115   3.992  15.589  1.00  0.00    -0.370 N 
ATOM     77  N   UNL     1     -14.146   4.938  13.575  1.00  0.00    -0.370 N 
ATOM     78  H   UNL     1     -13.614   3.605  16.376  1.00  0.00     0.159 HD
ATOM     79  H   UNL     1     -15.101   4.165  15.680  1.00  0.00     0.159 HD
ATOM     80  H   UNL     1     -13.728   5.305  12.733  1.00  0.00     0.159 HD
ATOM     81  H   UNL     1     -15.149   4.855  13.593  1.00  0.00     0.159 HD
ENDBRANCH  73  74
ENDBRANCH  72  73
ENDBRANCH  71  72
ENDBRANCH  45  71
ENDBRANCH   3  45
TORSDOF 20
ENDMDL
MODEL 50
REMARK VINA RESULT:    -6.263      2.171      4.429
REMARK INTER + INTRA:         -22.724
REMARK INTER:                 -18.853
REMARK INTRA:                  -3.871
REMARK UNBOUND:                -4.745
REMARK SMILES CCCCCC(=O)N[C@H](CC(=O)O)C(=O)N[C@H]1C(=O)N[C@H](CCCN=C(N)N)C(=O)N[C@@H]2CC[C@H](O)N(C2=O)[C@@H](CC(C)C)C(=O)N(C)[C@@H](Cc2ccccc2)C(=O)N[C@H](C(C)C)C(=O)O[C@@H]1C
REMARK SMILES IDX 30 1 31 2 29 3 32 5 35 6 37 7 34 8 38 9 33 10 39 11 36 12
REMARK SMILES IDX 40 14 41 15 42 16 43 17 44 18 45 19 46 20 47 21 48 22 49 23
REMARK SMILES IDX 50 24 51 25 52 26 56 27 53 28 55 29 54 30 57 31 58 32 59 33
REMARK SMILES IDX 60 35 61 36 62 37 63 38 64 39 65 40 66 41 67 42 68 43 21 45
REMARK SMILES IDX 20 46 18 47 19 48 17 50 16 52 14 53 15 54 9 56 8 57 6 58
REMARK SMILES IDX 7 59 5 61 4 62 3 63 2 64 1 65 10 66 11 67 12 68 13 69 22 71
REMARK SMILES IDX 23 72 24 73 25 74 26 75 27 76 28 77
REMARK H PARENT 31 4 36 13 59 34 20 49 16 55 8 60 13 70 27 78 27 79 28 80
REMARK H PARENT 28 81
REMARK Flexibility Score:  259.900
ROOT
ATOM      1  O   UNL     1     -14.195   6.639   7.638  1.00  0.00    -0.273 OA
ATOM      2  N   UNL     1     -13.901   4.531   8.476  1.00  0.00    -0.343 N 
ATOM      3  C   UNL     1     -13.502   5.625   7.739  1.00  0.00     0.243 C 
ATOM      4  H   UNL     1     -13.299   3.720   8.549  1.00  0.00     0.164 HD
ENDROOT
BRANCH   2   5
ATOM      5  C   UNL     1     -15.230   4.484   9.077  1.00  0.00     0.171 C 
ATOM      6  C   UNL     1     -16.506   2.604  10.877  1.00  0.00     0.214 C 
ATOM      7  N   UNL     1     -16.636   2.421   9.450  1.00  0.00    -0.303 N 
ATOM      8  C   UNL     1     -16.355   4.061  11.285  1.00  0.00     0.057 C 
ATOM      9  C   UNL     1     -16.010   3.252   8.535  1.00  0.00     0.247 C 
ATOM     10  C   UNL     1     -15.153   4.665  10.592  1.00  0.00     0.040 C 
ATOM     11  O   UNL     1     -16.055   3.038   7.316  1.00  0.00    -0.272 OA
BRANCH   6  12
ATOM     12  O   UNL     1     -15.395   1.854  11.308  1.00  0.00    -0.373 OA
ATOM     13  H   UNL     1     -15.259   2.060  12.257  1.00  0.00     0.213 HD
ENDBRANCH   6  12
BRANCH   7  14
ATOM     14  C   UNL     1     -17.351   1.212   8.991  1.00  0.00     0.177 C 
BRANCH  14  15
ATOM     15  C   UNL     1     -16.449   0.060   8.506  1.00  0.00     0.038 C 
BRANCH  15  16
ATOM     16  C   UNL     1     -16.446  -0.325   7.010  1.00  0.00    -0.015 C 
ATOM     17  C   UNL     1     -17.483   0.460   6.202  1.00  0.00     0.007 C 
ATOM     18  C   UNL     1     -16.751  -1.821   6.859  1.00  0.00     0.007 C 
ENDBRANCH  15  16
ENDBRANCH  14  15
BRANCH  14  19
ATOM     19  C   UNL     1     -18.693   1.040   9.784  1.00  0.00     0.245 C 
ATOM     20  O   UNL     1     -19.612   1.829   9.505  1.00  0.00    -0.272 OA
BRANCH  19  21
ATOM     21  N   UNL     1     -18.862   0.152  10.831  1.00  0.00    -0.332 N 
ATOM     22  C   UNL     1     -18.162   0.205  12.102  1.00  0.00     0.147 C 
BRANCH  21  23
ATOM     23  C   UNL     1     -19.832  -0.963  10.648  1.00  0.00     0.178 C 
BRANCH  23  24
ATOM     24  C   UNL     1     -19.780  -1.643   9.264  1.00  0.00     0.070 C 
BRANCH  24  25
ATOM     25  C   UNL     1     -20.571  -2.919   9.095  1.00  0.00    -0.045 A 
ATOM     26  C   UNL     1     -19.922  -4.147   8.915  1.00  0.00     0.004 A 
ATOM     27  C   UNL     1     -21.974  -2.890   9.110  1.00  0.00     0.004 A 
ATOM     28  C   UNL     1     -20.660  -5.320   8.742  1.00  0.00     0.000 A 
ATOM     29  C   UNL     1     -22.710  -4.063   8.938  1.00  0.00     0.000 A 
ATOM     30  C   UNL     1     -22.052  -5.277   8.751  1.00  0.00     0.000 A 
ENDBRANCH  24  25
ENDBRANCH  23  24
BRANCH  23  31
ATOM     31  C   UNL     1     -19.868  -1.935  11.851  1.00  0.00     0.243 C 
ATOM     32  O   UNL     1     -18.975  -2.738  12.112  1.00  0.00    -0.273 OA
ATOM     33  N   UNL     1     -21.085  -1.955  12.510  1.00  0.00    -0.341 N 
ATOM     34  H   UNL     1     -21.793  -1.266  12.243  1.00  0.00     0.164 HD
BRANCH  33  35
ATOM     35  C   UNL     1     -21.387  -2.884  13.603  1.00  0.00     0.194 C 
BRANCH  35  36
ATOM     36  C   UNL     1     -20.850  -2.429  14.989  1.00  0.00     0.017 C 
ATOM     37  C   UNL     1     -21.782  -2.882  16.126  1.00  0.00     0.010 C 
ATOM     38  C   UNL     1     -20.688  -0.908  15.105  1.00  0.00     0.010 C 
ENDBRANCH  35  36
BRANCH  35  39
ATOM     39  C   UNL     1     -20.979  -4.347  13.274  1.00  0.00     0.329 C 
ATOM     40  O   UNL     1     -20.186  -5.004  13.938  1.00  0.00    -0.250 OA
BRANCH  39  41
ATOM     41  O   UNL     1     -21.670  -4.853  12.207  1.00  0.00    -0.458 OA
BRANCH  41  42
ATOM     42  C   UNL     1     -23.018  -5.306  12.475  1.00  0.00     0.205 CG0
ATOM     43  C   UNL     1     -22.931  -6.372  13.565  1.00  0.00     0.056 C 
ATOM     44  G   UNL     1     -23.623  -5.850  11.165  1.00  0.00     0.000 G0
ENDBRANCH  41  42
ENDBRANCH  39  41
ENDBRANCH  35  39
ENDBRANCH  33  35
ENDBRANCH  23  31
ENDBRANCH  21  23
ENDBRANCH  19  21
ENDBRANCH  14  19
ENDBRANCH   7  14
ENDBRANCH   2   5
BRANCH   3  45
ATOM     45  C   UNL     1     -12.127   5.502   7.070  1.00  0.00     0.171 C 
BRANCH  45  46
ATOM     46  N   UNL     1     -12.025   6.639   6.166  1.00  0.00    -0.342 N 
ATOM     47  C   UNL     1     -10.910   7.437   6.110  1.00  0.00     0.247 C 
ATOM     48  O   UNL     1      -9.891   7.209   6.763  1.00  0.00    -0.273 OA
ATOM     49  H   UNL     1     -12.825   6.830   5.566  1.00  0.00     0.164 HD
BRANCH  47  50
ATOM     50  C   UNL     1     -11.032   8.660   5.189  1.00  0.00     0.212 CG0
ATOM     51  G   UNL     1     -11.566   9.832   6.037  1.00  0.00     0.000 G0
BRANCH  50  52
ATOM     52  N   UNL     1      -9.687   8.891   4.669  1.00  0.00    -0.339 N 
ATOM     53  C   UNL     1      -9.213   8.314   3.516  1.00  0.00     0.243 C 
ATOM     54  O   UNL     1      -9.871   7.511   2.859  1.00  0.00    -0.273 OA
ATOM     55  H   UNL     1      -9.055   9.460   5.228  1.00  0.00     0.164 HD
BRANCH  53  56
ATOM     56  C   UNL     1      -7.736   8.637   3.213  1.00  0.00     0.182 C 
BRANCH  56  57
ATOM     57  N   UNL     1      -6.839   7.753   3.963  1.00  0.00    -0.344 N 
ATOM     58  C   UNL     1      -5.614   7.363   3.478  1.00  0.00     0.220 C 
ATOM     59  O   UNL     1      -5.218   7.666   2.358  1.00  0.00    -0.275 OA
ATOM     60  H   UNL     1      -7.083   7.563   4.932  1.00  0.00     0.164 HD
BRANCH  58  61
ATOM     61  C   UNL     1      -4.831   6.496   4.447  1.00  0.00     0.100 C 
BRANCH  61  62
ATOM     62  C   UNL     1      -5.549   5.203   4.835  1.00  0.00     0.010 C 
BRANCH  62  63
ATOM     63  C   UNL     1      -4.731   3.931   4.581  1.00  0.00     0.000 C 
BRANCH  63  64
ATOM     64  C   UNL     1      -4.505   3.615   3.103  1.00  0.00    -0.003 C 
ATOM     65  C   UNL     1      -4.724   2.138   2.812  1.00  0.00     0.004 C 
ENDBRANCH  63  64
ENDBRANCH  62  63
ENDBRANCH  61  62
ENDBRANCH  58  61
ENDBRANCH  56  57
BRANCH  56  66
ATOM     66  C   UNL     1      -7.425  10.113   3.454  1.00  0.00     0.157 C 
BRANCH  66  67
ATOM     67  C   UNL     1      -6.877  10.763   2.217  1.00  0.00     0.305 C 
ATOM     68  O   UNL     1      -6.605  11.945   2.068  1.00  0.00    -0.252 OA
BRANCH  67  69
ATOM     69  O   UNL     1      -6.646   9.874   1.232  1.00  0.00    -0.481 OA
ATOM     70  H   UNL     1      -5.684   9.689   1.282  1.00  0.00     0.296 HD
ENDBRANCH  67  69
ENDBRANCH  66  67
ENDBRANCH  56  66
ENDBRANCH  53  56
ENDBRANCH  50  52
ENDBRANCH  47  50
ENDBRANCH  45  46
BRANCH  45  71
ATOM     71  C   UNL     1     -12.016   4.170   6.319  1.00  0.00     0.037 C 
BRANCH  71  72
ATOM     72  C   UNL     1     -10.904   3.282   6.883  1.00  0.00     0.026 C 
BRANCH  72  73
ATOM     73  C   UNL     1     -10.312   3.870   8.163  1.00  0.00     0.146 C 
BRANCH  73  74
ATOM     74  N   UNL     1      -9.012   3.243   8.382  1.00  0.00    -0.254 NA
ATOM     75  C   UNL     1      -7.963   3.943   8.149  1.00  0.00     0.185 C 
ATOM     76  N   UNL     1      -6.752   3.395   8.343  1.00  0.00    -0.370 N 
ATOM     77  N   UNL     1      -7.873   5.212   7.716  1.00  0.00    -0.370 N 
ATOM     78  H   UNL     1      -6.730   2.437   8.662  1.00  0.00     0.159 HD
ATOM     79  H   UNL     1      -5.895   3.827   8.046  1.00  0.00     0.159 HD
ATOM     80  H   UNL     1      -8.705   5.752   7.532  1.00  0.00     0.159 HD
ATOM     81  H   UNL     1      -6.991   5.697   7.679  1.00  0.00     0.159 HD
ENDBRANCH  73  74
ENDBRANCH  72  73
ENDBRANCH  71  72
ENDBRANCH  45  71
ENDBRANCH   3  45
TORSDOF 20
ENDMDL
