MODEL 1
REMARK VINA RESULT:    -6.374      0.000      0.000
REMARK INTER + INTRA:         -20.455
REMARK INTER:                 -15.876
REMARK INTRA:                  -4.579
REMARK UNBOUND:                -4.579
REMARK SMILES CCCCCCC[C@H](N)[C@H](O)C(=O)N[C@H](C)C(=O)N(C)[C@H](CC(C)C)C(=O)N[C@@H](Cc1ccc(O)cc1)C(=O)N[C@@H](Cc1ccc(O)cc1)C(=O)O
REMARK SMILES IDX 18 1 17 2 15 3 16 4 14 5 12 6 13 7 10 9 11 10 8 12 9 13 7 16
REMARK SMILES IDX 6 17 5 18 4 19 3 20 2 21 1 22 19 23 20 24 21 25 22 26 23 27
REMARK SMILES IDX 24 28 25 29 26 30 27 31 28 32 29 34 30 35 31 36 32 37 37 38
REMARK SMILES IDX 33 39 36 40 34 41 35 42 38 44 39 45 40 46 41 48 42 49 43 50
REMARK SMILES IDX 44 51 49 52 45 53 48 54 46 55 47 56 50 58 51 59 52 60
REMARK H PARENT 14 8 11 11 9 14 9 15 28 33 35 43 40 47 47 57 52 61
ROOT
ATOM      1  O   UNL     1     -10.019  -7.884   4.688  1.00  0.00    -0.272 OA
ATOM      2  C   UNL     1     -11.105  -7.456   5.104  1.00  0.00     0.245 C 
ENDROOT
BRANCH   2   3
ATOM      3  C   UNL     1     -11.853  -6.390   4.263  1.00  0.00     0.168 C 
ATOM      4  C   UNL     1     -11.595  -4.990   4.810  1.00  0.00     0.041 C 
BRANCH   3   5
ATOM      5  N   UNL     1     -11.614  -6.465   2.830  1.00  0.00    -0.342 N 
ATOM      6  C   UNL     1     -12.435  -7.190   1.992  1.00  0.00     0.251 C 
ATOM      7  O   UNL     1     -13.390  -7.851   2.387  1.00  0.00    -0.272 OA
ATOM      8  H   UNL     1     -10.831  -5.986   2.391  1.00  0.00     0.164 HD
BRANCH   6   9
ATOM      9  C   UNL     1     -12.078  -7.010   0.508  1.00  0.00     0.219 C 
BRANCH   9  10
ATOM     10  O   UNL     1     -12.620  -8.045  -0.320  1.00  0.00    -0.382 OA
ATOM     11  H   UNL     1     -12.864  -7.575  -1.148  1.00  0.00     0.211 HD
ENDBRANCH   9  10
BRANCH   9  12
ATOM     12  C   UNL     1     -12.453  -5.610  -0.043  1.00  0.00     0.089 C 
BRANCH  12  13
ATOM     13  N   UNL     1     -13.510  -5.035   0.820  1.00  0.00    -0.325 NA
ATOM     14  H   UNL     1     -13.923  -5.780   1.385  1.00  0.00     0.119 HD
ATOM     15  H   UNL     1     -14.272  -4.695   0.229  1.00  0.00     0.119 HD
ENDBRANCH  12  13
BRANCH  12  16
ATOM     16  C   UNL     1     -11.285  -4.605  -0.194  1.00  0.00     0.022 C 
BRANCH  16  17
ATOM     17  C   UNL     1     -11.601  -3.114  -0.374  1.00  0.00     0.002 C 
BRANCH  17  18
ATOM     18  C   UNL     1     -11.080  -2.497  -1.670  1.00  0.00     0.000 C 
BRANCH  18  19
ATOM     19  C   UNL     1     -12.182  -2.125  -2.671  1.00  0.00    -0.000 C 
BRANCH  19  20
ATOM     20  C   UNL     1     -12.785  -3.303  -3.442  1.00  0.00    -0.000 C 
BRANCH  20  21
ATOM     21  C   UNL     1     -14.316  -3.318  -3.411  1.00  0.00    -0.003 C 
ATOM     22  C   UNL     1     -14.842  -3.269  -1.985  1.00  0.00     0.004 C 
ENDBRANCH  20  21
ENDBRANCH  19  20
ENDBRANCH  18  19
ENDBRANCH  17  18
ENDBRANCH  16  17
ENDBRANCH  12  16
ENDBRANCH   9  12
ENDBRANCH   6   9
ENDBRANCH   3   5
ENDBRANCH   2   3
BRANCH   2  23
ATOM     23  N   UNL     1     -11.687  -8.017   6.236  1.00  0.00    -0.332 N 
ATOM     24  C   UNL     1     -12.846  -8.898   6.218  1.00  0.00     0.147 C 
BRANCH  23  25
ATOM     25  C   UNL     1     -11.054  -7.841   7.572  1.00  0.00     0.174 C 
BRANCH  25  26
ATOM     26  C   UNL     1     -11.711  -8.711   8.669  1.00  0.00     0.038 C 
BRANCH  26  27
ATOM     27  C   UNL     1     -10.773  -9.611   9.503  1.00  0.00    -0.015 C 
ATOM     28  C   UNL     1     -11.502 -10.312  10.649  1.00  0.00     0.007 C 
ATOM     29  C   UNL     1      -9.996 -10.622   8.663  1.00  0.00     0.007 C 
ENDBRANCH  26  27
ENDBRANCH  25  26
BRANCH  25  30
ATOM     30  C   UNL     1     -10.979  -6.339   7.931  1.00  0.00     0.243 C 
ATOM     31  O   UNL     1     -11.971  -5.707   8.294  1.00  0.00    -0.273 OA
ATOM     32  N   UNL     1      -9.741  -5.761   7.813  1.00  0.00    -0.342 N 
ATOM     33  H   UNL     1      -8.944  -6.380   7.644  1.00  0.00     0.164 HD
BRANCH  32  34
ATOM     34  C   UNL     1      -9.488  -4.344   8.085  1.00  0.00     0.175 C 
BRANCH  34  35
ATOM     35  C   UNL     1      -8.666  -4.160   9.370  1.00  0.00     0.070 C 
BRANCH  35  36
ATOM     36  C   UNL     1      -9.327  -3.225  10.358  1.00  0.00    -0.045 A 
ATOM     37  C   UNL     1      -8.554  -2.572  11.330  1.00  0.00     0.007 A 
ATOM     38  C   UNL     1     -10.712  -3.016  10.334  1.00  0.00     0.007 A 
ATOM     39  C   UNL     1      -9.157  -1.718  12.255  1.00  0.00     0.046 A 
ATOM     40  C   UNL     1     -11.316  -2.162  11.260  1.00  0.00     0.046 A 
ATOM     41  C   UNL     1     -10.532  -1.520  12.212  1.00  0.00     0.115 A 
BRANCH  41  42
ATOM     42  O   UNL     1     -11.081  -0.680  13.135  1.00  0.00    -0.508 OA
ATOM     43  H   UNL     1     -10.399  -0.048  13.417  1.00  0.00     0.293 HD
ENDBRANCH  41  42
ENDBRANCH  35  36
ENDBRANCH  34  35
BRANCH  34  44
ATOM     44  C   UNL     1      -8.778  -3.739   6.853  1.00  0.00     0.243 C 
ATOM     45  O   UNL     1      -7.871  -4.290   6.235  1.00  0.00    -0.273 OA
ATOM     46  N   UNL     1      -9.167  -2.446   6.575  1.00  0.00    -0.341 N 
ATOM     47  H   UNL     1      -9.838  -1.990   7.188  1.00  0.00     0.164 HD
BRANCH  46  48
ATOM     48  C   UNL     1      -8.584  -1.643   5.498  1.00  0.00     0.196 C 
BRANCH  48  49
ATOM     49  C   UNL     1      -9.330  -1.861   4.171  1.00  0.00     0.072 C 
BRANCH  49  50
ATOM     50  C   UNL     1      -8.392  -2.103   3.010  1.00  0.00    -0.045 A 
ATOM     51  C   UNL     1      -8.913  -2.371   1.735  1.00  0.00     0.007 A 
ATOM     52  C   UNL     1      -7.003  -2.086   3.189  1.00  0.00     0.007 A 
ATOM     53  C   UNL     1      -8.058  -2.609   0.659  1.00  0.00     0.046 A 
ATOM     54  C   UNL     1      -6.147  -2.326   2.112  1.00  0.00     0.046 A 
ATOM     55  C   UNL     1      -6.682  -2.584   0.855  1.00  0.00     0.115 A 
BRANCH  55  56
ATOM     56  O   UNL     1      -5.881  -2.824  -0.222  1.00  0.00    -0.508 OA
ATOM     57  H   UNL     1      -4.957  -2.801   0.072  1.00  0.00     0.293 HD
ENDBRANCH  55  56
ENDBRANCH  49  50
ENDBRANCH  48  49
BRANCH  48  58
ATOM     58  C   UNL     1      -8.651  -0.160   5.888  1.00  0.00     0.326 C 
ATOM     59  O   UNL     1      -9.651   0.531   5.998  1.00  0.00    -0.250 OA
BRANCH  58  60
ATOM     60  O   UNL     1      -7.436   0.389   6.141  1.00  0.00    -0.480 OA
ATOM     61  H   UNL     1      -7.656   1.292   6.455  1.00  0.00     0.296 HD
ENDBRANCH  58  60
ENDBRANCH  48  58
ENDBRANCH  46  48
ENDBRANCH  34  44
ENDBRANCH  32  34
ENDBRANCH  25  30
ENDBRANCH  23  25
ENDBRANCH   2  23
TORSDOF 28
ENDMDL
MODEL 2
REMARK VINA RESULT:    -6.328      1.957      3.507
REMARK INTER + INTRA:         -20.340
REMARK INTER:                 -15.473
REMARK INTRA:                  -4.867
REMARK UNBOUND:                -4.579
REMARK SMILES CCCCCCC[C@H](N)[C@H](O)C(=O)N[C@H](C)C(=O)N(C)[C@H](CC(C)C)C(=O)N[C@@H](Cc1ccc(O)cc1)C(=O)N[C@@H](Cc1ccc(O)cc1)C(=O)O
REMARK SMILES IDX 18 1 17 2 15 3 16 4 14 5 12 6 13 7 10 9 11 10 8 12 9 13 7 16
REMARK SMILES IDX 6 17 5 18 4 19 3 20 2 21 1 22 19 23 20 24 21 25 22 26 23 27
REMARK SMILES IDX 24 28 25 29 26 30 27 31 28 32 29 34 30 35 31 36 32 37 37 38
REMARK SMILES IDX 33 39 36 40 34 41 35 42 38 44 39 45 40 46 41 48 42 49 43 50
REMARK SMILES IDX 44 51 49 52 45 53 48 54 46 55 47 56 50 58 51 59 52 60
REMARK H PARENT 14 8 11 11 9 14 9 15 28 33 35 43 40 47 47 57 52 61
ROOT
ATOM      1  O   UNL     1      -9.894  -5.618   5.583  1.00  0.00    -0.272 OA
ATOM      2  C   UNL     1     -10.931  -6.290   5.477  1.00  0.00     0.245 C 
ENDROOT
BRANCH   2   3
ATOM      3  C   UNL     1     -11.304  -6.862   4.086  1.00  0.00     0.168 C 
ATOM      4  C   UNL     1     -12.101  -8.155   4.228  1.00  0.00     0.041 C 
BRANCH   3   5
ATOM      5  N   UNL     1     -11.957  -5.918   3.192  1.00  0.00    -0.342 N 
ATOM      6  C   UNL     1     -11.746  -5.940   1.830  1.00  0.00     0.251 C 
ATOM      7  O   UNL     1     -10.973  -6.716   1.278  1.00  0.00    -0.272 OA
ATOM      8  H   UNL     1     -12.594  -5.205   3.539  1.00  0.00     0.164 HD
BRANCH   6   9
ATOM      9  C   UNL     1     -12.646  -4.950   1.073  1.00  0.00     0.219 C 
BRANCH   9  10
ATOM     10  O   UNL     1     -12.690  -3.659   1.693  1.00  0.00    -0.382 OA
ATOM     11  H   UNL     1     -13.025  -3.072   0.980  1.00  0.00     0.211 HD
ENDBRANCH   9  10
BRANCH   9  12
ATOM     12  C   UNL     1     -12.286  -4.827  -0.430  1.00  0.00     0.089 C 
BRANCH  12  13
ATOM     13  N   UNL     1     -13.508  -5.080  -1.226  1.00  0.00    -0.325 NA
ATOM     14  H   UNL     1     -14.162  -4.306  -1.094  1.00  0.00     0.119 HD
ATOM     15  H   UNL     1     -13.986  -5.901  -0.846  1.00  0.00     0.119 HD
ENDBRANCH  12  13
BRANCH  12  16
ATOM     16  C   UNL     1     -11.636  -3.491  -0.865  1.00  0.00     0.022 C 
BRANCH  16  17
ATOM     17  C   UNL     1     -10.106  -3.394  -0.939  1.00  0.00     0.002 C 
BRANCH  17  18
ATOM     18  C   UNL     1      -9.420  -3.024   0.374  1.00  0.00     0.000 C 
BRANCH  18  19
ATOM     19  C   UNL     1      -7.897  -2.872   0.262  1.00  0.00    -0.000 C 
BRANCH  19  20
ATOM     20  C   UNL     1      -7.334  -1.551   0.795  1.00  0.00    -0.000 C 
BRANCH  20  21
ATOM     21  C   UNL     1      -5.845  -1.629   1.139  1.00  0.00    -0.003 C 
ATOM     22  C   UNL     1      -5.294  -3.027   0.905  1.00  0.00     0.004 C 
ENDBRANCH  20  21
ENDBRANCH  19  20
ENDBRANCH  18  19
ENDBRANCH  17  18
ENDBRANCH  16  17
ENDBRANCH  12  16
ENDBRANCH   9  12
ENDBRANCH   6   9
ENDBRANCH   3   5
ENDBRANCH   2   3
BRANCH   2  23
ATOM     23  N   UNL     1     -11.665  -6.619   6.611  1.00  0.00    -0.332 N 
ATOM     24  C   UNL     1     -13.087  -6.932   6.612  1.00  0.00     0.147 C 
BRANCH  23  25
ATOM     25  C   UNL     1     -10.983  -6.800   7.921  1.00  0.00     0.174 C 
BRANCH  25  26
ATOM     26  C   UNL     1     -11.572  -7.965   8.752  1.00  0.00     0.038 C 
BRANCH  26  27
ATOM     27  C   UNL     1     -10.647  -9.174   9.015  1.00  0.00    -0.015 C 
ATOM     28  C   UNL     1     -11.144 -10.050  10.164  1.00  0.00     0.007 C 
ATOM     29  C   UNL     1     -10.381 -10.018   7.772  1.00  0.00     0.007 C 
ENDBRANCH  26  27
ENDBRANCH  25  26
BRANCH  25  30
ATOM     30  C   UNL     1     -10.933  -5.456   8.684  1.00  0.00     0.243 C 
ATOM     31  O   UNL     1     -11.850  -5.090   9.418  1.00  0.00    -0.273 OA
ATOM     32  N   UNL     1      -9.805  -4.702   8.484  1.00  0.00    -0.342 N 
ATOM     33  H   UNL     1      -9.030  -5.135   7.976  1.00  0.00     0.164 HD
BRANCH  32  34
ATOM     34  C   UNL     1      -9.598  -3.390   9.103  1.00  0.00     0.175 C 
BRANCH  34  35
ATOM     35  C   UNL     1      -8.293  -3.355   9.914  1.00  0.00     0.070 C 
BRANCH  35  36
ATOM     36  C   UNL     1      -8.482  -2.786  11.302  1.00  0.00    -0.045 A 
ATOM     37  C   UNL     1      -9.618  -2.017  11.597  1.00  0.00     0.007 A 
ATOM     38  C   UNL     1      -7.524  -2.998  12.302  1.00  0.00     0.007 A 
ATOM     39  C   UNL     1      -9.794  -1.477  12.871  1.00  0.00     0.046 A 
ATOM     40  C   UNL     1      -7.699  -2.456  13.578  1.00  0.00     0.046 A 
ATOM     41  C   UNL     1      -8.834  -1.701  13.851  1.00  0.00     0.115 A 
BRANCH  41  42
ATOM     42  O   UNL     1      -9.043  -1.153  15.082  1.00  0.00    -0.508 OA
ATOM     43  H   UNL     1      -9.938  -0.776  15.100  1.00  0.00     0.293 HD
ENDBRANCH  41  42
ENDBRANCH  35  36
ENDBRANCH  34  35
BRANCH  34  44
ATOM     44  C   UNL     1      -9.611  -2.325   7.984  1.00  0.00     0.243 C 
ATOM     45  O   UNL     1      -9.931  -1.151   8.147  1.00  0.00    -0.273 OA
ATOM     46  N   UNL     1      -9.353  -2.841   6.732  1.00  0.00    -0.341 N 
ATOM     47  H   UNL     1      -9.208  -3.843   6.631  1.00  0.00     0.164 HD
BRANCH  46  48
ATOM     48  C   UNL     1      -9.378  -2.037   5.508  1.00  0.00     0.196 C 
BRANCH  48  49
ATOM     49  C   UNL     1      -8.204  -2.393   4.580  1.00  0.00     0.072 C 
BRANCH  49  50
ATOM     50  C   UNL     1      -7.135  -1.324   4.559  1.00  0.00    -0.045 A 
ATOM     51  C   UNL     1      -5.830  -1.632   4.971  1.00  0.00     0.007 A 
ATOM     52  C   UNL     1      -7.430  -0.017   4.152  1.00  0.00     0.007 A 
ATOM     53  C   UNL     1      -4.839  -0.650   4.969  1.00  0.00     0.046 A 
ATOM     54  C   UNL     1      -6.438   0.966   4.150  1.00  0.00     0.046 A 
ATOM     55  C   UNL     1      -5.149   0.640   4.558  1.00  0.00     0.115 A 
BRANCH  55  56
ATOM     56  O   UNL     1      -4.153   1.571   4.572  1.00  0.00    -0.508 OA
ATOM     57  H   UNL     1      -3.347   1.161   4.220  1.00  0.00     0.293 HD
ENDBRANCH  55  56
ENDBRANCH  49  50
ENDBRANCH  48  49
BRANCH  48  58
ATOM     58  C   UNL     1     -10.705  -2.283   4.776  1.00  0.00     0.326 C 
ATOM     59  O   UNL     1     -11.774  -1.732   4.980  1.00  0.00    -0.250 OA
BRANCH  58  60
ATOM     60  O   UNL     1     -10.617  -3.217   3.795  1.00  0.00    -0.480 OA
ATOM     61  H   UNL     1      -9.893  -2.878   3.225  1.00  0.00     0.296 HD
ENDBRANCH  58  60
ENDBRANCH  48  58
ENDBRANCH  46  48
ENDBRANCH  34  44
ENDBRANCH  32  34
ENDBRANCH  25  30
ENDBRANCH  23  25
ENDBRANCH   2  23
TORSDOF 28
ENDMDL
MODEL 3
REMARK VINA RESULT:    -6.107      2.261      7.621
REMARK INTER + INTRA:         -19.791
REMARK INTER:                 -15.459
REMARK INTRA:                  -4.332
REMARK UNBOUND:                -4.579
REMARK SMILES CCCCCCC[C@H](N)[C@H](O)C(=O)N[C@H](C)C(=O)N(C)[C@H](CC(C)C)C(=O)N[C@@H](Cc1ccc(O)cc1)C(=O)N[C@@H](Cc1ccc(O)cc1)C(=O)O
REMARK SMILES IDX 18 1 17 2 15 3 16 4 14 5 12 6 13 7 10 9 11 10 8 12 9 13 7 16
REMARK SMILES IDX 6 17 5 18 4 19 3 20 2 21 1 22 19 23 20 24 21 25 22 26 23 27
REMARK SMILES IDX 24 28 25 29 26 30 27 31 28 32 29 34 30 35 31 36 32 37 37 38
REMARK SMILES IDX 33 39 36 40 34 41 35 42 38 44 39 45 40 46 41 48 42 49 43 50
REMARK SMILES IDX 44 51 49 52 45 53 48 54 46 55 47 56 50 58 51 59 52 60
REMARK H PARENT 14 8 11 11 9 14 9 15 28 33 35 43 40 47 47 57 52 61
ROOT
ATOM      1  O   UNL     1     -10.905  -6.576   0.995  1.00  0.00    -0.272 OA
ATOM      2  C   UNL     1     -11.887  -5.824   0.898  1.00  0.00     0.245 C 
ENDROOT
BRANCH   2   3
ATOM      3  C   UNL     1     -11.895  -4.758  -0.227  1.00  0.00     0.168 C 
ATOM      4  C   UNL     1     -13.209  -4.797  -0.999  1.00  0.00     0.041 C 
BRANCH   3   5
ATOM      5  N   UNL     1     -11.560  -3.411   0.206  1.00  0.00    -0.342 N 
ATOM      6  C   UNL     1     -10.266  -2.936   0.174  1.00  0.00     0.251 C 
ATOM      7  O   UNL     1      -9.306  -3.614  -0.176  1.00  0.00    -0.272 OA
ATOM      8  H   UNL     1     -12.268  -2.766   0.551  1.00  0.00     0.164 HD
BRANCH   6   9
ATOM      9  C   UNL     1     -10.170  -1.446   0.540  1.00  0.00     0.219 C 
BRANCH   9  10
ATOM     10  O   UNL     1     -11.241  -0.671  -0.012  1.00  0.00    -0.382 OA
ATOM     11  H   UNL     1     -11.759  -1.328  -0.527  1.00  0.00     0.211 HD
ENDBRANCH   9  10
BRANCH   9  12
ATOM     12  C   UNL     1     -10.042  -1.201   2.066  1.00  0.00     0.089 C 
BRANCH  12  13
ATOM     13  N   UNL     1     -10.254  -2.489   2.766  1.00  0.00    -0.325 NA
ATOM     14  H   UNL     1     -11.005  -2.380   3.450  1.00  0.00     0.119 HD
ATOM     15  H   UNL     1      -9.421  -2.708   3.316  1.00  0.00     0.119 HD
ENDBRANCH  12  13
BRANCH  12  16
ATOM     16  C   UNL     1      -8.721  -0.550   2.541  1.00  0.00     0.022 C 
BRANCH  16  17
ATOM     17  C   UNL     1      -8.037  -1.085   3.806  1.00  0.00     0.002 C 
BRANCH  17  18
ATOM     18  C   UNL     1      -6.670  -1.727   3.578  1.00  0.00     0.000 C 
BRANCH  18  19
ATOM     19  C   UNL     1      -6.483  -2.316   2.174  1.00  0.00    -0.000 C 
BRANCH  19  20
ATOM     20  C   UNL     1      -5.300  -1.750   1.383  1.00  0.00    -0.000 C 
BRANCH  20  21
ATOM     21  C   UNL     1      -5.677  -1.329  -0.040  1.00  0.00    -0.003 C 
ATOM     22  C   UNL     1      -5.801   0.182  -0.156  1.00  0.00     0.004 C 
ENDBRANCH  20  21
ENDBRANCH  19  20
ENDBRANCH  18  19
ENDBRANCH  17  18
ENDBRANCH  16  17
ENDBRANCH  12  16
ENDBRANCH   9  12
ENDBRANCH   6   9
ENDBRANCH   3   5
ENDBRANCH   2   3
BRANCH   2  23
ATOM     23  N   UNL     1     -13.000  -6.026   1.706  1.00  0.00    -0.332 N 
ATOM     24  C   UNL     1     -13.791  -4.960   2.303  1.00  0.00     0.147 C 
BRANCH  23  25
ATOM     25  C   UNL     1     -13.541  -7.397   1.912  1.00  0.00     0.174 C 
BRANCH  25  26
ATOM     26  C   UNL     1     -14.954  -7.584   1.311  1.00  0.00     0.038 C 
BRANCH  26  27
ATOM     27  C   UNL     1     -15.039  -8.236  -0.087  1.00  0.00    -0.015 C 
ATOM     28  C   UNL     1     -15.754  -7.346  -1.105  1.00  0.00     0.007 C 
ATOM     29  C   UNL     1     -13.687  -8.692  -0.629  1.00  0.00     0.007 C 
ENDBRANCH  26  27
ENDBRANCH  25  26
BRANCH  25  30
ATOM     30  C   UNL     1     -13.443  -7.790   3.404  1.00  0.00     0.243 C 
ATOM     31  O   UNL     1     -14.437  -8.092   4.063  1.00  0.00    -0.273 OA
ATOM     32  N   UNL     1     -12.182  -7.771   3.941  1.00  0.00    -0.342 N 
ATOM     33  H   UNL     1     -11.395  -7.648   3.298  1.00  0.00     0.164 HD
BRANCH  32  34
ATOM     34  C   UNL     1     -11.903  -8.088   5.344  1.00  0.00     0.175 C 
BRANCH  34  35
ATOM     35  C   UNL     1     -10.603  -8.892   5.488  1.00  0.00     0.070 C 
BRANCH  35  36
ATOM     36  C   UNL     1     -10.682  -9.944   6.571  1.00  0.00    -0.045 A 
ATOM     37  C   UNL     1     -11.570 -11.023   6.438  1.00  0.00     0.007 A 
ATOM     38  C   UNL     1      -9.895  -9.848   7.727  1.00  0.00     0.007 A 
ATOM     39  C   UNL     1     -11.660 -11.991   7.438  1.00  0.00     0.046 A 
ATOM     40  C   UNL     1      -9.987 -10.816   8.729  1.00  0.00     0.046 A 
ATOM     41  C   UNL     1     -10.868 -11.881   8.575  1.00  0.00     0.115 A 
BRANCH  41  42
ATOM     42  O   UNL     1     -10.989 -12.846   9.530  1.00  0.00    -0.508 OA
ATOM     43  H   UNL     1     -10.231 -12.775  10.134  1.00  0.00     0.293 HD
ENDBRANCH  41  42
ENDBRANCH  35  36
ENDBRANCH  34  35
BRANCH  34  44
ATOM     44  C   UNL     1     -11.851  -6.760   6.133  1.00  0.00     0.243 C 
ATOM     45  O   UNL     1     -12.820  -6.032   6.330  1.00  0.00    -0.273 OA
ATOM     46  N   UNL     1     -10.574  -6.387   6.496  1.00  0.00    -0.341 N 
ATOM     47  H   UNL     1      -9.790  -6.967   6.208  1.00  0.00     0.164 HD
BRANCH  46  48
ATOM     48  C   UNL     1     -10.268  -5.135   7.191  1.00  0.00     0.196 C 
BRANCH  48  49
ATOM     49  C   UNL     1      -9.701  -5.399   8.596  1.00  0.00     0.072 C 
BRANCH  49  50
ATOM     50  C   UNL     1      -9.910  -4.233   9.537  1.00  0.00    -0.045 A 
ATOM     51  C   UNL     1     -11.210  -3.823   9.862  1.00  0.00     0.007 A 
ATOM     52  C   UNL     1      -8.820  -3.538  10.076  1.00  0.00     0.007 A 
ATOM     53  C   UNL     1     -11.416  -2.740  10.718  1.00  0.00     0.046 A 
ATOM     54  C   UNL     1      -9.025  -2.454  10.932  1.00  0.00     0.046 A 
ATOM     55  C   UNL     1     -10.323  -2.065  11.246  1.00  0.00     0.115 A 
BRANCH  55  56
ATOM     56  O   UNL     1     -10.566  -1.011  12.077  1.00  0.00    -0.508 OA
ATOM     57  H   UNL     1      -9.829  -0.939  12.704  1.00  0.00     0.293 HD
ENDBRANCH  55  56
ENDBRANCH  49  50
ENDBRANCH  48  49
BRANCH  48  58
ATOM     58  C   UNL     1      -9.246  -4.342   6.364  1.00  0.00     0.326 C 
ATOM     59  O   UNL     1      -9.476  -3.567   5.451  1.00  0.00    -0.250 OA
BRANCH  58  60
ATOM     60  O   UNL     1      -7.960  -4.556   6.743  1.00  0.00    -0.480 OA
ATOM     61  H   UNL     1      -8.028  -4.675   7.715  1.00  0.00     0.296 HD
ENDBRANCH  58  60
ENDBRANCH  48  58
ENDBRANCH  46  48
ENDBRANCH  34  44
ENDBRANCH  32  34
ENDBRANCH  25  30
ENDBRANCH  23  25
ENDBRANCH   2  23
TORSDOF 28
ENDMDL
MODEL 4
REMARK VINA RESULT:    -6.094     15.072     20.356
REMARK INTER + INTRA:         -19.757
REMARK INTER:                 -14.616
REMARK INTRA:                  -5.142
REMARK UNBOUND:                -4.579
REMARK SMILES CCCCCCC[C@H](N)[C@H](O)C(=O)N[C@H](C)C(=O)N(C)[C@H](CC(C)C)C(=O)N[C@@H](Cc1ccc(O)cc1)C(=O)N[C@@H](Cc1ccc(O)cc1)C(=O)O
REMARK SMILES IDX 18 1 17 2 15 3 16 4 14 5 12 6 13 7 10 9 11 10 8 12 9 13 7 16
REMARK SMILES IDX 6 17 5 18 4 19 3 20 2 21 1 22 19 23 20 24 21 25 22 26 23 27
REMARK SMILES IDX 24 28 25 29 26 30 27 31 28 32 29 34 30 35 31 36 32 37 37 38
REMARK SMILES IDX 33 39 36 40 34 41 35 42 38 44 39 45 40 46 41 48 42 49 43 50
REMARK SMILES IDX 44 51 49 52 45 53 48 54 46 55 47 56 50 58 51 59 52 60
REMARK H PARENT 14 8 11 11 9 14 9 15 28 33 35 43 40 47 47 57 52 61
ROOT
ATOM      1  O   UNL     1       0.585   4.186  -6.958  1.00  0.00    -0.272 OA
ATOM      2  C   UNL     1       0.675   5.076  -7.817  1.00  0.00     0.245 C 
ENDROOT
BRANCH   2   3
ATOM      3  C   UNL     1       1.414   4.756  -9.140  1.00  0.00     0.168 C 
ATOM      4  C   UNL     1       0.533   5.076 -10.343  1.00  0.00     0.041 C 
BRANCH   3   5
ATOM      5  N   UNL     1       2.735   5.351  -9.262  1.00  0.00    -0.342 N 
ATOM      6  C   UNL     1       3.798   4.929  -8.490  1.00  0.00     0.251 C 
ATOM      7  O   UNL     1       3.704   4.063  -7.627  1.00  0.00    -0.272 OA
ATOM      8  H   UNL     1       2.927   6.102  -9.920  1.00  0.00     0.164 HD
BRANCH   6   9
ATOM      9  C   UNL     1       5.123   5.597  -8.888  1.00  0.00     0.219 C 
BRANCH   9  10
ATOM     10  O   UNL     1       5.401   5.483 -10.289  1.00  0.00    -0.382 OA
ATOM     11  H   UNL     1       5.360   6.411 -10.609  1.00  0.00     0.211 HD
ENDBRANCH   9  10
BRANCH   9  12
ATOM     12  C   UNL     1       5.224   7.074  -8.425  1.00  0.00     0.089 C 
BRANCH  12  13
ATOM     13  N   UNL     1       4.252   7.287  -7.328  1.00  0.00    -0.325 NA
ATOM     14  H   UNL     1       4.515   8.123  -6.804  1.00  0.00     0.119 HD
ATOM     15  H   UNL     1       4.333   6.517  -6.660  1.00  0.00     0.119 HD
ENDBRANCH  12  13
BRANCH  12  16
ATOM     16  C   UNL     1       6.630   7.553  -7.989  1.00  0.00     0.022 C 
BRANCH  16  17
ATOM     17  C   UNL     1       7.571   6.566  -7.286  1.00  0.00     0.002 C 
BRANCH  17  18
ATOM     18  C   UNL     1       7.893   6.906  -5.832  1.00  0.00     0.000 C 
BRANCH  18  19
ATOM     19  C   UNL     1       9.391   7.067  -5.545  1.00  0.00    -0.000 C 
BRANCH  19  20
ATOM     20  C   UNL     1       9.915   6.258  -4.354  1.00  0.00    -0.000 C 
BRANCH  20  21
ATOM     21  C   UNL     1       9.051   5.037  -4.032  1.00  0.00    -0.003 C 
ATOM     22  C   UNL     1       8.599   5.046  -2.579  1.00  0.00     0.004 C 
ENDBRANCH  20  21
ENDBRANCH  19  20
ENDBRANCH  18  19
ENDBRANCH  17  18
ENDBRANCH  16  17
ENDBRANCH  12  16
ENDBRANCH   9  12
ENDBRANCH   6   9
ENDBRANCH   3   5
ENDBRANCH   2   3
BRANCH   2  23
ATOM     23  N   UNL     1       0.017   6.288  -7.635  1.00  0.00    -0.332 N 
ATOM     24  C   UNL     1       0.663   7.592  -7.675  1.00  0.00     0.147 C 
BRANCH  23  25
ATOM     25  C   UNL     1      -1.465   6.326  -7.508  1.00  0.00     0.174 C 
BRANCH  25  26
ATOM     26  C   UNL     1      -2.126   7.336  -8.476  1.00  0.00     0.038 C 
BRANCH  26  27
ATOM     27  C   UNL     1      -3.443   6.896  -9.154  1.00  0.00    -0.015 C 
ATOM     28  C   UNL     1      -3.617   5.378  -9.164  1.00  0.00     0.007 C 
ATOM     29  C   UNL     1      -4.681   7.575  -8.574  1.00  0.00     0.007 C 
ENDBRANCH  26  27
ENDBRANCH  25  26
BRANCH  25  30
ATOM     30  C   UNL     1      -1.868   6.527  -6.029  1.00  0.00     0.243 C 
ATOM     31  O   UNL     1      -2.515   7.506  -5.659  1.00  0.00    -0.273 OA
ATOM     32  N   UNL     1      -1.453   5.549  -5.163  1.00  0.00    -0.342 N 
ATOM     33  H   UNL     1      -1.046   4.701  -5.566  1.00  0.00     0.164 HD
BRANCH  32  34
ATOM     34  C   UNL     1      -1.720   5.587  -3.723  1.00  0.00     0.175 C 
BRANCH  34  35
ATOM     35  C   UNL     1      -1.937   4.175  -3.157  1.00  0.00     0.070 C 
BRANCH  35  36
ATOM     36  C   UNL     1      -1.586   3.088  -4.147  1.00  0.00    -0.045 A 
ATOM     37  C   UNL     1      -2.465   2.785  -5.198  1.00  0.00     0.007 A 
ATOM     38  C   UNL     1      -0.399   2.355  -4.019  1.00  0.00     0.007 A 
ATOM     39  C   UNL     1      -2.157   1.774  -6.108  1.00  0.00     0.046 A 
ATOM     40  C   UNL     1      -0.090   1.342  -4.930  1.00  0.00     0.046 A 
ATOM     41  C   UNL     1      -0.972   1.062  -5.968  1.00  0.00     0.115 A 
BRANCH  41  42
ATOM     42  O   UNL     1      -0.709   0.080  -6.877  1.00  0.00    -0.508 OA
ATOM     43  H   UNL     1       0.179  -0.272  -6.697  1.00  0.00     0.293 HD
ENDBRANCH  41  42
ENDBRANCH  35  36
ENDBRANCH  34  35
BRANCH  34  44
ATOM     44  C   UNL     1      -0.538   6.308  -3.036  1.00  0.00     0.243 C 
ATOM     45  O   UNL     1      -0.652   7.302  -2.323  1.00  0.00    -0.273 OA
ATOM     46  N   UNL     1       0.695   5.812  -3.401  1.00  0.00    -0.341 N 
ATOM     47  H   UNL     1       0.742   5.062  -4.086  1.00  0.00     0.164 HD
BRANCH  46  48
ATOM     48  C   UNL     1       1.962   6.377  -2.933  1.00  0.00     0.196 C 
BRANCH  48  49
ATOM     49  C   UNL     1       2.636   5.460  -1.898  1.00  0.00     0.072 C 
BRANCH  49  50
ATOM     50  C   UNL     1       1.914   5.452  -0.570  1.00  0.00    -0.045 A 
ATOM     51  C   UNL     1       0.944   4.473  -0.308  1.00  0.00     0.007 A 
ATOM     52  C   UNL     1       2.183   6.423   0.403  1.00  0.00     0.007 A 
ATOM     53  C   UNL     1       0.261   4.464   0.908  1.00  0.00     0.046 A 
ATOM     54  C   UNL     1       1.498   6.414   1.620  1.00  0.00     0.046 A 
ATOM     55  C   UNL     1       0.543   5.433   1.863  1.00  0.00     0.115 A 
BRANCH  55  56
ATOM     56  O   UNL     1      -0.147   5.389   3.038  1.00  0.00    -0.508 OA
ATOM     57  H   UNL     1       0.427   5.729   3.743  1.00  0.00     0.293 HD
ENDBRANCH  55  56
ENDBRANCH  49  50
ENDBRANCH  48  49
BRANCH  48  58
ATOM     58  C   UNL     1       2.897   6.571  -4.135  1.00  0.00     0.326 C 
ATOM     59  O   UNL     1       3.868   7.307  -4.205  1.00  0.00    -0.250 OA
BRANCH  58  60
ATOM     60  O   UNL     1       2.568   5.804  -5.205  1.00  0.00    -0.480 OA
ATOM     61  H   UNL     1       3.339   5.910  -5.804  1.00  0.00     0.296 HD
ENDBRANCH  58  60
ENDBRANCH  48  58
ENDBRANCH  46  48
ENDBRANCH  34  44
ENDBRANCH  32  34
ENDBRANCH  25  30
ENDBRANCH  23  25
ENDBRANCH   2  23
TORSDOF 28
ENDMDL
MODEL 5
REMARK VINA RESULT:    -6.081      1.870      2.849
REMARK INTER + INTRA:         -19.726
REMARK INTER:                 -14.579
REMARK INTRA:                  -5.147
REMARK UNBOUND:                -4.579
REMARK SMILES CCCCCCC[C@H](N)[C@H](O)C(=O)N[C@H](C)C(=O)N(C)[C@H](CC(C)C)C(=O)N[C@@H](Cc1ccc(O)cc1)C(=O)N[C@@H](Cc1ccc(O)cc1)C(=O)O
REMARK SMILES IDX 18 1 17 2 15 3 16 4 14 5 12 6 13 7 10 9 11 10 8 12 9 13 7 16
REMARK SMILES IDX 6 17 5 18 4 19 3 20 2 21 1 22 19 23 20 24 21 25 22 26 23 27
REMARK SMILES IDX 24 28 25 29 26 30 27 31 28 32 29 34 30 35 31 36 32 37 37 38
REMARK SMILES IDX 33 39 36 40 34 41 35 42 38 44 39 45 40 46 41 48 42 49 43 50
REMARK SMILES IDX 44 51 49 52 45 53 48 54 46 55 47 56 50 58 51 59 52 60
REMARK H PARENT 14 8 11 11 9 14 9 15 28 33 35 43 40 47 47 57 52 61
ROOT
ATOM      1  O   UNL     1      -9.862  -5.456   5.528  1.00  0.00    -0.272 OA
ATOM      2  C   UNL     1     -10.838  -6.218   5.586  1.00  0.00     0.245 C 
ENDROOT
BRANCH   2   3
ATOM      3  C   UNL     1     -10.916  -7.399   4.587  1.00  0.00     0.168 C 
ATOM      4  C   UNL     1     -10.768  -8.733   5.311  1.00  0.00     0.041 C 
BRANCH   3   5
ATOM      5  N   UNL     1     -12.079  -7.383   3.712  1.00  0.00    -0.342 N 
ATOM      6  C   UNL     1     -12.002  -6.947   2.407  1.00  0.00     0.251 C 
ATOM      7  O   UNL     1     -10.975  -6.506   1.900  1.00  0.00    -0.272 OA
ATOM      8  H   UNL     1     -12.994  -7.693   4.031  1.00  0.00     0.164 HD
BRANCH   6   9
ATOM      9  C   UNL     1     -13.314  -7.153   1.633  1.00  0.00     0.219 C 
BRANCH   9  10
ATOM     10  O   UNL     1     -14.001  -8.350   2.019  1.00  0.00    -0.382 OA
ATOM     11  H   UNL     1     -13.287  -9.023   2.061  1.00  0.00     0.211 HD
ENDBRANCH   9  10
BRANCH   9  12
ATOM     12  C   UNL     1     -14.261  -5.927   1.702  1.00  0.00     0.089 C 
BRANCH  12  13
ATOM     13  N   UNL     1     -13.597  -4.868   2.496  1.00  0.00    -0.325 NA
ATOM     14  H   UNL     1     -12.697  -4.643   2.069  1.00  0.00     0.119 HD
ATOM     15  H   UNL     1     -13.368  -5.242   3.421  1.00  0.00     0.119 HD
ENDBRANCH  12  13
BRANCH  12  16
ATOM     16  C   UNL     1     -14.732  -5.356   0.343  1.00  0.00     0.022 C 
BRANCH  16  17
ATOM     17  C   UNL     1     -13.877  -5.602  -0.907  1.00  0.00     0.002 C 
BRANCH  17  18
ATOM     18  C   UNL     1     -13.047  -4.405  -1.365  1.00  0.00     0.000 C 
BRANCH  18  19
ATOM     19  C   UNL     1     -11.729  -4.228  -0.599  1.00  0.00    -0.000 C 
BRANCH  19  20
ATOM     20  C   UNL     1     -10.718  -3.283  -1.254  1.00  0.00    -0.000 C 
BRANCH  20  21
ATOM     21  C   UNL     1      -9.408  -3.169  -0.469  1.00  0.00    -0.003 C 
ATOM     22  C   UNL     1      -9.666  -2.916   1.008  1.00  0.00     0.004 C 
ENDBRANCH  20  21
ENDBRANCH  19  20
ENDBRANCH  18  19
ENDBRANCH  17  18
ENDBRANCH  16  17
ENDBRANCH  12  16
ENDBRANCH   9  12
ENDBRANCH   6   9
ENDBRANCH   3   5
ENDBRANCH   2   3
BRANCH   2  23
ATOM     23  N   UNL     1     -11.770  -6.078   6.609  1.00  0.00    -0.332 N 
ATOM     24  C   UNL     1     -13.183  -5.794   6.406  1.00  0.00     0.147 C 
BRANCH  23  25
ATOM     25  C   UNL     1     -11.381  -6.347   8.021  1.00  0.00     0.174 C 
BRANCH  25  26
ATOM     26  C   UNL     1     -12.387  -7.260   8.759  1.00  0.00     0.038 C 
BRANCH  26  27
ATOM     27  C   UNL     1     -12.040  -8.764   8.839  1.00  0.00    -0.015 C 
ATOM     28  C   UNL     1     -10.565  -9.007   9.155  1.00  0.00     0.007 C 
ATOM     29  C   UNL     1     -12.931  -9.543   9.803  1.00  0.00     0.007 C 
ENDBRANCH  26  27
ENDBRANCH  25  26
BRANCH  25  30
ATOM     30  C   UNL     1     -11.094  -5.017   8.756  1.00  0.00     0.243 C 
ATOM     31  O   UNL     1     -11.877  -4.547   9.579  1.00  0.00    -0.273 OA
ATOM     32  N   UNL     1      -9.915  -4.399   8.424  1.00  0.00    -0.342 N 
ATOM     33  H   UNL     1      -9.255  -4.919   7.841  1.00  0.00     0.164 HD
BRANCH  32  34
ATOM     34  C   UNL     1      -9.492  -3.119   8.999  1.00  0.00     0.175 C 
BRANCH  34  35
ATOM     35  C   UNL     1      -8.272  -3.295   9.916  1.00  0.00     0.070 C 
BRANCH  35  36
ATOM     36  C   UNL     1      -8.483  -2.703  11.291  1.00  0.00    -0.045 A 
ATOM     37  C   UNL     1      -7.543  -2.933  12.307  1.00  0.00     0.007 A 
ATOM     38  C   UNL     1      -9.623  -1.940  11.578  1.00  0.00     0.007 A 
ATOM     39  C   UNL     1      -7.736  -2.401  13.582  1.00  0.00     0.046 A 
ATOM     40  C   UNL     1      -9.818  -1.408  12.855  1.00  0.00     0.046 A 
ATOM     41  C   UNL     1      -8.871  -1.644  13.846  1.00  0.00     0.115 A 
BRANCH  41  42
ATOM     42  O   UNL     1      -9.023  -1.145  15.106  1.00  0.00    -0.508 OA
ATOM     43  H   UNL     1      -8.904  -1.873  15.738  1.00  0.00     0.293 HD
ENDBRANCH  41  42
ENDBRANCH  35  36
ENDBRANCH  34  35
BRANCH  34  44
ATOM     44  C   UNL     1      -9.204  -2.143   7.836  1.00  0.00     0.243 C 
ATOM     45  O   UNL     1      -9.122  -0.924   7.958  1.00  0.00    -0.273 OA
ATOM     46  N   UNL     1      -9.174  -2.756   6.601  1.00  0.00    -0.341 N 
ATOM     47  H   UNL     1      -9.364  -3.753   6.539  1.00  0.00     0.164 HD
BRANCH  46  48
ATOM     48  C   UNL     1      -8.985  -2.027   5.345  1.00  0.00     0.196 C 
BRANCH  48  49
ATOM     49  C   UNL     1      -8.018  -2.769   4.407  1.00  0.00     0.072 C 
BRANCH  49  50
ATOM     50  C   UNL     1      -6.780  -1.961   4.090  1.00  0.00    -0.045 A 
ATOM     51  C   UNL     1      -6.013  -1.420   5.133  1.00  0.00     0.007 A 
ATOM     52  C   UNL     1      -6.393  -1.724   2.765  1.00  0.00     0.007 A 
ATOM     53  C   UNL     1      -4.876  -0.662   4.853  1.00  0.00     0.046 A 
ATOM     54  C   UNL     1      -5.255  -0.964   2.485  1.00  0.00     0.046 A 
ATOM     55  C   UNL     1      -4.505  -0.440   3.533  1.00  0.00     0.115 A 
BRANCH  55  56
ATOM     56  O   UNL     1      -3.388   0.307   3.302  1.00  0.00    -0.508 OA
ATOM     57  H   UNL     1      -3.444   0.672   2.404  1.00  0.00     0.293 HD
ENDBRANCH  55  56
ENDBRANCH  49  50
ENDBRANCH  48  49
BRANCH  48  58
ATOM     58  C   UNL     1     -10.346  -1.860   4.655  1.00  0.00     0.326 C 
ATOM     59  O   UNL     1     -10.655  -1.024   3.822  1.00  0.00    -0.250 OA
BRANCH  58  60
ATOM     60  O   UNL     1     -11.266  -2.780   5.043  1.00  0.00    -0.480 OA
ATOM     61  H   UNL     1     -10.719  -3.559   5.281  1.00  0.00     0.296 HD
ENDBRANCH  58  60
ENDBRANCH  48  58
ENDBRANCH  46  48
ENDBRANCH  34  44
ENDBRANCH  32  34
ENDBRANCH  25  30
ENDBRANCH  23  25
ENDBRANCH   2  23
TORSDOF 28
ENDMDL
MODEL 6
REMARK VINA RESULT:    -6.073     15.882     21.088
REMARK INTER + INTRA:         -19.705
REMARK INTER:                 -15.178
REMARK INTRA:                  -4.527
REMARK UNBOUND:                -4.579
REMARK SMILES CCCCCCC[C@H](N)[C@H](O)C(=O)N[C@H](C)C(=O)N(C)[C@H](CC(C)C)C(=O)N[C@@H](Cc1ccc(O)cc1)C(=O)N[C@@H](Cc1ccc(O)cc1)C(=O)O
REMARK SMILES IDX 18 1 17 2 15 3 16 4 14 5 12 6 13 7 10 9 11 10 8 12 9 13 7 16
REMARK SMILES IDX 6 17 5 18 4 19 3 20 2 21 1 22 19 23 20 24 21 25 22 26 23 27
REMARK SMILES IDX 24 28 25 29 26 30 27 31 28 32 29 34 30 35 31 36 32 37 37 38
REMARK SMILES IDX 33 39 36 40 34 41 35 42 38 44 39 45 40 46 41 48 42 49 43 50
REMARK SMILES IDX 44 51 49 52 45 53 48 54 46 55 47 56 50 58 51 59 52 60
REMARK H PARENT 14 8 11 11 9 14 9 15 28 33 35 43 40 47 47 57 52 61
ROOT
ATOM      1  O   UNL     1       1.783   6.920  -7.420  1.00  0.00    -0.272 OA
ATOM      2  C   UNL     1       1.257   5.910  -7.910  1.00  0.00     0.245 C 
ENDROOT
BRANCH   2   3
ATOM      3  C   UNL     1       1.914   5.262  -9.154  1.00  0.00     0.168 C 
ATOM      4  C   UNL     1       1.205   5.700 -10.431  1.00  0.00     0.041 C 
BRANCH   3   5
ATOM      5  N   UNL     1       3.355   5.440  -9.247  1.00  0.00    -0.342 N 
ATOM      6  C   UNL     1       4.228   4.740  -8.440  1.00  0.00     0.251 C 
ATOM      7  O   UNL     1       3.864   3.959  -7.568  1.00  0.00    -0.272 OA
ATOM      8  H   UNL     1       3.774   6.088  -9.910  1.00  0.00     0.164 HD
BRANCH   6   9
ATOM      9  C   UNL     1       5.700   4.980  -8.810  1.00  0.00     0.219 C 
BRANCH   9  10
ATOM     10  O   UNL     1       5.938   4.893 -10.220  1.00  0.00    -0.382 OA
ATOM     11  H   UNL     1       6.911   5.004 -10.298  1.00  0.00     0.211 HD
ENDBRANCH   9  10
BRANCH   9  12
ATOM     12  C   UNL     1       6.263   6.308  -8.238  1.00  0.00     0.089 C 
BRANCH  12  13
ATOM     13  N   UNL     1       5.138   7.089  -7.676  1.00  0.00    -0.325 NA
ATOM     14  H   UNL     1       5.460   7.595  -6.849  1.00  0.00     0.119 HD
ATOM     15  H   UNL     1       4.425   6.442  -7.332  1.00  0.00     0.119 HD
ENDBRANCH  12  13
BRANCH  12  16
ATOM     16  C   UNL     1       7.391   6.170  -7.188  1.00  0.00     0.022 C 
BRANCH  16  17
ATOM     17  C   UNL     1       8.314   7.366  -6.921  1.00  0.00     0.002 C 
BRANCH  17  18
ATOM     18  C   UNL     1       9.170   7.252  -5.662  1.00  0.00     0.000 C 
BRANCH  18  19
ATOM     19  C   UNL     1      10.492   8.028  -5.733  1.00  0.00    -0.000 C 
BRANCH  19  20
ATOM     20  C   UNL     1      11.361   7.949  -4.474  1.00  0.00    -0.000 C 
BRANCH  20  21
ATOM     21  C   UNL     1      11.537   6.519  -3.956  1.00  0.00    -0.003 C 
ATOM     22  C   UNL     1      12.650   6.436  -2.923  1.00  0.00     0.004 C 
ENDBRANCH  20  21
ENDBRANCH  19  20
ENDBRANCH  18  19
ENDBRANCH  17  18
ENDBRANCH  16  17
ENDBRANCH  12  16
ENDBRANCH   9  12
ENDBRANCH   6   9
ENDBRANCH   3   5
ENDBRANCH   2   3
BRANCH   2  23
ATOM     23  N   UNL     1       0.175   5.311  -7.274  1.00  0.00    -0.332 N 
ATOM     24  C   UNL     1      -1.214   5.472  -7.680  1.00  0.00     0.147 C 
BRANCH  23  25
ATOM     25  C   UNL     1       0.397   4.332  -6.175  1.00  0.00     0.174 C 
BRANCH  25  26
ATOM     26  C   UNL     1      -0.579   3.133  -6.231  1.00  0.00     0.038 C 
BRANCH  26  27
ATOM     27  C   UNL     1      -0.063   1.784  -5.681  1.00  0.00    -0.015 C 
ATOM     28  C   UNL     1      -0.436   1.570  -4.215  1.00  0.00     0.007 C 
ATOM     29  C   UNL     1      -0.484   0.583  -6.524  1.00  0.00     0.007 C 
ENDBRANCH  26  27
ENDBRANCH  25  26
BRANCH  25  30
ATOM     30  C   UNL     1       0.412   5.058  -4.811  1.00  0.00     0.243 C 
ATOM     31  O   UNL     1      -0.585   5.113  -4.093  1.00  0.00    -0.273 OA
ATOM     32  N   UNL     1       1.604   5.638  -4.460  1.00  0.00    -0.342 N 
ATOM     33  H   UNL     1       2.421   5.429  -5.040  1.00  0.00     0.164 HD
BRANCH  32  34
ATOM     34  C   UNL     1       1.795   6.390  -3.217  1.00  0.00     0.175 C 
BRANCH  34  35
ATOM     35  C   UNL     1       2.553   5.558  -2.171  1.00  0.00     0.070 C 
BRANCH  35  36
ATOM     36  C   UNL     1       1.798   5.428  -0.868  1.00  0.00    -0.045 A 
ATOM     37  C   UNL     1       2.283   6.056   0.290  1.00  0.00     0.007 A 
ATOM     38  C   UNL     1       0.624   4.667  -0.789  1.00  0.00     0.007 A 
ATOM     39  C   UNL     1       1.601   5.931   1.500  1.00  0.00     0.046 A 
ATOM     40  C   UNL     1      -0.059   4.540   0.423  1.00  0.00     0.046 A 
ATOM     41  C   UNL     1       0.436   5.175   1.557  1.00  0.00     0.115 A 
BRANCH  41  42
ATOM     42  O   UNL     1      -0.199   5.076   2.760  1.00  0.00    -0.508 OA
ATOM     43  H   UNL     1      -0.792   5.839   2.855  1.00  0.00     0.293 HD
ENDBRANCH  41  42
ENDBRANCH  35  36
ENDBRANCH  34  35
BRANCH  34  44
ATOM     44  C   UNL     1       2.537   7.701  -3.560  1.00  0.00     0.243 C 
ATOM     45  O   UNL     1       2.196   8.480  -4.446  1.00  0.00    -0.273 OA
ATOM     46  N   UNL     1       3.714   7.865  -2.860  1.00  0.00    -0.341 N 
ATOM     47  H   UNL     1       4.014   7.133  -2.221  1.00  0.00     0.164 HD
BRANCH  46  48
ATOM     48  C   UNL     1       4.622   8.996  -3.064  1.00  0.00     0.196 C 
BRANCH  48  49
ATOM     49  C   UNL     1       5.616   9.133  -1.898  1.00  0.00     0.072 C 
BRANCH  49  50
ATOM     50  C   UNL     1       6.592   7.981  -1.828  1.00  0.00    -0.045 A 
ATOM     51  C   UNL     1       7.971   8.227  -1.912  1.00  0.00     0.007 A 
ATOM     52  C   UNL     1       6.142   6.661  -1.699  1.00  0.00     0.007 A 
ATOM     53  C   UNL     1       8.880   7.171  -1.862  1.00  0.00     0.046 A 
ATOM     54  C   UNL     1       7.053   5.603  -1.650  1.00  0.00     0.046 A 
ATOM     55  C   UNL     1       8.415   5.868  -1.730  1.00  0.00     0.115 A 
BRANCH  55  56
ATOM     56  O   UNL     1       9.337   4.864  -1.686  1.00  0.00    -0.508 OA
ATOM     57  H   UNL     1       9.385   4.532  -0.776  1.00  0.00     0.293 HD
ENDBRANCH  55  56
ENDBRANCH  49  50
ENDBRANCH  48  49
BRANCH  48  58
ATOM     58  C   UNL     1       5.392   8.788  -4.375  1.00  0.00     0.326 C 
ATOM     59  O   UNL     1       6.099   9.597  -4.954  1.00  0.00    -0.250 OA
BRANCH  58  60
ATOM     60  O   UNL     1       5.245   7.544  -4.898  1.00  0.00    -0.480 OA
ATOM     61  H   UNL     1       4.674   7.695  -5.682  1.00  0.00     0.296 HD
ENDBRANCH  58  60
ENDBRANCH  48  58
ENDBRANCH  46  48
ENDBRANCH  34  44
ENDBRANCH  32  34
ENDBRANCH  25  30
ENDBRANCH  23  25
ENDBRANCH   2  23
TORSDOF 28
ENDMDL
MODEL 7
REMARK VINA RESULT:    -6.030      2.256      3.190
REMARK INTER + INTRA:         -19.599
REMARK INTER:                 -15.130
REMARK INTRA:                  -4.469
REMARK UNBOUND:                -4.579
REMARK SMILES CCCCCCC[C@H](N)[C@H](O)C(=O)N[C@H](C)C(=O)N(C)[C@H](CC(C)C)C(=O)N[C@@H](Cc1ccc(O)cc1)C(=O)N[C@@H](Cc1ccc(O)cc1)C(=O)O
REMARK SMILES IDX 18 1 17 2 15 3 16 4 14 5 12 6 13 7 10 9 11 10 8 12 9 13 7 16
REMARK SMILES IDX 6 17 5 18 4 19 3 20 2 21 1 22 19 23 20 24 21 25 22 26 23 27
REMARK SMILES IDX 24 28 25 29 26 30 27 31 28 32 29 34 30 35 31 36 32 37 37 38
REMARK SMILES IDX 33 39 36 40 34 41 35 42 38 44 39 45 40 46 41 48 42 49 43 50
REMARK SMILES IDX 44 51 49 52 45 53 48 54 46 55 47 56 50 58 51 59 52 60
REMARK H PARENT 14 8 11 11 9 14 9 15 28 33 35 43 40 47 47 57 52 61
ROOT
ATOM      1  O   UNL     1     -13.020  -4.538   4.561  1.00  0.00    -0.272 OA
ATOM      2  C   UNL     1     -12.763  -5.751   4.596  1.00  0.00     0.245 C 
ENDROOT
BRANCH   2   3
ATOM      3  C   UNL     1     -12.316  -6.451   3.289  1.00  0.00     0.168 C 
ATOM      4  C   UNL     1     -13.048  -7.777   3.108  1.00  0.00     0.041 C 
BRANCH   3   5
ATOM      5  N   UNL     1     -12.390  -5.623   2.096  1.00  0.00    -0.342 N 
ATOM      6  C   UNL     1     -11.685  -5.931   0.951  1.00  0.00     0.251 C 
ATOM      7  O   UNL     1     -10.921  -6.886   0.864  1.00  0.00    -0.272 OA
ATOM      8  H   UNL     1     -12.965  -4.784   2.060  1.00  0.00     0.164 HD
BRANCH   6   9
ATOM      9  C   UNL     1     -12.026  -5.001  -0.224  1.00  0.00     0.219 C 
BRANCH   9  10
ATOM     10  O   UNL     1     -13.421  -4.680  -0.289  1.00  0.00    -0.382 OA
ATOM     11  H   UNL     1     -13.749  -4.893   0.612  1.00  0.00     0.211 HD
ENDBRANCH   9  10
BRANCH   9  12
ATOM     12  C   UNL     1     -11.162  -3.713  -0.252  1.00  0.00     0.089 C 
BRANCH  12  13
ATOM     13  N   UNL     1      -9.951  -3.944   0.568  1.00  0.00    -0.325 NA
ATOM     14  H   UNL     1     -10.230  -4.278   1.493  1.00  0.00     0.119 HD
ATOM     15  H   UNL     1      -9.489  -3.048   0.736  1.00  0.00     0.119 HD
ENDBRANCH  12  13
BRANCH  12  16
ATOM     16  C   UNL     1     -10.763  -3.194  -1.655  1.00  0.00     0.022 C 
BRANCH  16  17
ATOM     17  C   UNL     1     -11.761  -2.338  -2.446  1.00  0.00     0.002 C 
BRANCH  17  18
ATOM     18  C   UNL     1     -12.123  -1.004  -1.797  1.00  0.00     0.000 C 
BRANCH  18  19
ATOM     19  C   UNL     1     -10.924  -0.255  -1.200  1.00  0.00    -0.000 C 
BRANCH  19  20
ATOM     20  C   UNL     1     -10.967   1.268  -1.355  1.00  0.00    -0.000 C 
BRANCH  20  21
ATOM     21  C   UNL     1     -11.275   1.716  -2.786  1.00  0.00    -0.003 C 
ATOM     22  C   UNL     1     -10.116   2.499  -3.384  1.00  0.00     0.004 C 
ENDBRANCH  20  21
ENDBRANCH  19  20
ENDBRANCH  18  19
ENDBRANCH  17  18
ENDBRANCH  16  17
ENDBRANCH  12  16
ENDBRANCH   9  12
ENDBRANCH   6   9
ENDBRANCH   3   5
ENDBRANCH   2   3
BRANCH   2  23
ATOM     23  N   UNL     1     -12.760  -6.426   5.812  1.00  0.00    -0.332 N 
ATOM     24  C   UNL     1     -13.936  -7.025   6.427  1.00  0.00     0.147 C 
BRANCH  23  25
ATOM     25  C   UNL     1     -11.478  -6.694   6.520  1.00  0.00     0.174 C 
BRANCH  25  26
ATOM     26  C   UNL     1     -11.441  -8.086   7.193  1.00  0.00     0.038 C 
BRANCH  26  27
ATOM     27  C   UNL     1     -10.958  -9.270   6.325  1.00  0.00    -0.015 C 
ATOM     28  C   UNL     1     -10.162  -8.813   5.104  1.00  0.00     0.007 C 
ATOM     29  C   UNL     1     -10.179 -10.321   7.112  1.00  0.00     0.007 C 
ENDBRANCH  26  27
ENDBRANCH  25  26
BRANCH  25  30
ATOM     30  C   UNL     1     -11.148  -5.529   7.482  1.00  0.00     0.243 C 
ATOM     31  O   UNL     1     -11.802  -5.325   8.503  1.00  0.00    -0.273 OA
ATOM     32  N   UNL     1     -10.087  -4.741   7.117  1.00  0.00    -0.342 N 
ATOM     33  H   UNL     1      -9.509  -5.057   6.334  1.00  0.00     0.164 HD
BRANCH  32  34
ATOM     34  C   UNL     1      -9.649  -3.578   7.893  1.00  0.00     0.175 C 
BRANCH  34  35
ATOM     35  C   UNL     1      -8.670  -3.984   9.005  1.00  0.00     0.070 C 
BRANCH  35  36
ATOM     36  C   UNL     1      -8.812  -3.136  10.248  1.00  0.00    -0.045 A 
ATOM     37  C   UNL     1     -10.069  -2.630  10.612  1.00  0.00     0.007 A 
ATOM     38  C   UNL     1      -7.697  -2.824  11.037  1.00  0.00     0.007 A 
ATOM     39  C   UNL     1     -10.208  -1.834  11.750  1.00  0.00     0.046 A 
ATOM     40  C   UNL     1      -7.835  -2.027  12.176  1.00  0.00     0.046 A 
ATOM     41  C   UNL     1      -9.091  -1.540  12.523  1.00  0.00     0.115 A 
BRANCH  41  42
ATOM     42  O   UNL     1      -9.269  -0.757  13.625  1.00  0.00    -0.508 OA
ATOM     43  H   UNL     1      -9.670   0.081  13.341  1.00  0.00     0.293 HD
ENDBRANCH  41  42
ENDBRANCH  35  36
ENDBRANCH  34  35
BRANCH  34  44
ATOM     44  C   UNL     1      -9.020  -2.559   6.915  1.00  0.00     0.243 C 
ATOM     45  O   UNL     1      -8.614  -1.446   7.238  1.00  0.00    -0.273 OA
ATOM     46  N   UNL     1      -9.072  -2.961   5.596  1.00  0.00    -0.341 N 
ATOM     47  H   UNL     1      -9.524  -3.842   5.366  1.00  0.00     0.164 HD
BRANCH  46  48
ATOM     48  C   UNL     1      -8.600  -2.134   4.483  1.00  0.00     0.196 C 
BRANCH  48  49
ATOM     49  C   UNL     1      -7.233  -2.615   3.968  1.00  0.00     0.072 C 
BRANCH  49  50
ATOM     50  C   UNL     1      -6.221  -1.497   3.871  1.00  0.00    -0.045 A 
ATOM     51  C   UNL     1      -5.780  -1.060   2.613  1.00  0.00     0.007 A 
ATOM     52  C   UNL     1      -5.696  -0.898   5.023  1.00  0.00     0.007 A 
ATOM     53  C   UNL     1      -4.837  -0.037   2.511  1.00  0.00     0.046 A 
ATOM     54  C   UNL     1      -4.750   0.125   4.921  1.00  0.00     0.046 A 
ATOM     55  C   UNL     1      -4.329   0.547   3.665  1.00  0.00     0.115 A 
BRANCH  55  56
ATOM     56  O   UNL     1      -3.408   1.542   3.523  1.00  0.00    -0.508 OA
ATOM     57  H   UNL     1      -2.939   1.407   2.684  1.00  0.00     0.293 HD
ENDBRANCH  55  56
ENDBRANCH  49  50
ENDBRANCH  48  49
BRANCH  48  58
ATOM     58  C   UNL     1      -9.629  -2.193   3.346  1.00  0.00     0.326 C 
ATOM     59  O   UNL     1      -9.671  -1.490   2.350  1.00  0.00    -0.250 OA
BRANCH  58  60
ATOM     60  O   UNL     1     -10.565  -3.162   3.513  1.00  0.00    -0.480 OA
ATOM     61  H   UNL     1     -10.029  -3.977   3.621  1.00  0.00     0.296 HD
ENDBRANCH  58  60
ENDBRANCH  48  58
ENDBRANCH  46  48
ENDBRANCH  34  44
ENDBRANCH  32  34
ENDBRANCH  25  30
ENDBRANCH  23  25
ENDBRANCH   2  23
TORSDOF 28
ENDMDL
MODEL 8
REMARK VINA RESULT:    -6.023      2.417      7.702
REMARK INTER + INTRA:         -19.581
REMARK INTER:                 -13.998
REMARK INTRA:                  -5.582
REMARK UNBOUND:                -4.579
REMARK SMILES CCCCCCC[C@H](N)[C@H](O)C(=O)N[C@H](C)C(=O)N(C)[C@H](CC(C)C)C(=O)N[C@@H](Cc1ccc(O)cc1)C(=O)N[C@@H](Cc1ccc(O)cc1)C(=O)O
REMARK SMILES IDX 18 1 17 2 15 3 16 4 14 5 12 6 13 7 10 9 11 10 8 12 9 13 7 16
REMARK SMILES IDX 6 17 5 18 4 19 3 20 2 21 1 22 19 23 20 24 21 25 22 26 23 27
REMARK SMILES IDX 24 28 25 29 26 30 27 31 28 32 29 34 30 35 31 36 32 37 37 38
REMARK SMILES IDX 33 39 36 40 34 41 35 42 38 44 39 45 40 46 41 48 42 49 43 50
REMARK SMILES IDX 44 51 49 52 45 53 48 54 46 55 47 56 50 58 51 59 52 60
REMARK H PARENT 14 8 11 11 9 14 9 15 28 33 35 43 40 47 47 57 52 61
ROOT
ATOM      1  O   UNL     1     -10.601  -7.486   3.907  1.00  0.00    -0.272 OA
ATOM      2  C   UNL     1     -11.511  -7.762   4.703  1.00  0.00     0.245 C 
ENDROOT
BRANCH   2   3
ATOM      3  C   UNL     1     -11.156  -7.939   6.201  1.00  0.00     0.168 C 
ATOM      4  C   UNL     1     -10.317  -9.194   6.414  1.00  0.00     0.041 C 
BRANCH   3   5
ATOM      5  N   UNL     1     -10.556  -6.773   6.829  1.00  0.00    -0.342 N 
ATOM      6  C   UNL     1     -10.743  -6.488   8.165  1.00  0.00     0.251 C 
ATOM      7  O   UNL     1     -11.452  -7.161   8.907  1.00  0.00    -0.272 OA
ATOM      8  H   UNL     1      -9.976  -6.121   6.306  1.00  0.00     0.164 HD
BRANCH   6   9
ATOM      9  C   UNL     1      -9.903  -5.293   8.642  1.00  0.00     0.219 C 
BRANCH   9  10
ATOM     10  O   UNL     1      -8.705  -5.119   7.875  1.00  0.00    -0.382 OA
ATOM     11  H   UNL     1      -8.490  -4.168   7.995  1.00  0.00     0.211 HD
ENDBRANCH   9  10
BRANCH   9  12
ATOM     12  C   UNL     1     -10.709  -3.970   8.712  1.00  0.00     0.089 C 
BRANCH  12  13
ATOM     13  N   UNL     1     -12.145  -4.289   8.536  1.00  0.00    -0.325 NA
ATOM     14  H   UNL     1     -12.378  -5.110   9.097  1.00  0.00     0.119 HD
ATOM     15  H   UNL     1     -12.305  -4.573   7.567  1.00  0.00     0.119 HD
ENDBRANCH  12  13
BRANCH  12  16
ATOM     16  C   UNL     1     -10.506  -3.118   9.987  1.00  0.00     0.022 C 
BRANCH  16  17
ATOM     17  C   UNL     1      -9.841  -1.740   9.867  1.00  0.00     0.002 C 
BRANCH  17  18
ATOM     18  C   UNL     1      -8.466  -1.628  10.522  1.00  0.00     0.000 C 
BRANCH  18  19
ATOM     19  C   UNL     1      -7.908  -2.963  11.033  1.00  0.00    -0.000 C 
BRANCH  19  20
ATOM     20  C   UNL     1      -6.802  -2.844  12.086  1.00  0.00    -0.000 C 
BRANCH  20  21
ATOM     21  C   UNL     1      -7.188  -3.457  13.434  1.00  0.00    -0.003 C 
ATOM     22  C   UNL     1      -7.894  -2.444  14.322  1.00  0.00     0.004 C 
ENDBRANCH  20  21
ENDBRANCH  19  20
ENDBRANCH  18  19
ENDBRANCH  17  18
ENDBRANCH  16  17
ENDBRANCH  12  16
ENDBRANCH   9  12
ENDBRANCH   6   9
ENDBRANCH   3   5
ENDBRANCH   2   3
BRANCH   2  23
ATOM     23  N   UNL     1     -12.832  -7.786   4.269  1.00  0.00    -0.332 N 
ATOM     24  C   UNL     1     -13.681  -8.968   4.274  1.00  0.00     0.147 C 
BRANCH  23  25
ATOM     25  C   UNL     1     -13.517  -6.524   3.876  1.00  0.00     0.174 C 
BRANCH  25  26
ATOM     26  C   UNL     1     -13.696  -6.388   2.345  1.00  0.00     0.038 C 
BRANCH  26  27
ATOM     27  C   UNL     1     -12.786  -7.261   1.454  1.00  0.00    -0.015 C 
ATOM     28  C   UNL     1     -13.581  -8.126   0.476  1.00  0.00     0.007 C 
ATOM     29  C   UNL     1     -11.713  -6.464   0.715  1.00  0.00     0.007 C 
ENDBRANCH  26  27
ENDBRANCH  25  26
BRANCH  25  30
ATOM     30  C   UNL     1     -12.815  -5.312   4.530  1.00  0.00     0.243 C 
ATOM     31  O   UNL     1     -13.012  -5.003   5.704  1.00  0.00    -0.273 OA
ATOM     32  N   UNL     1     -11.968  -4.606   3.715  1.00  0.00    -0.342 N 
ATOM     33  H   UNL     1     -11.749  -5.006   2.799  1.00  0.00     0.164 HD
BRANCH  32  34
ATOM     34  C   UNL     1     -11.240  -3.413   4.156  1.00  0.00     0.175 C 
BRANCH  34  35
ATOM     35  C   UNL     1      -9.936  -3.790   4.877  1.00  0.00     0.070 C 
BRANCH  35  36
ATOM     36  C   UNL     1      -9.069  -2.589   5.183  1.00  0.00    -0.045 A 
ATOM     37  C   UNL     1      -9.528  -1.598   6.063  1.00  0.00     0.007 A 
ATOM     38  C   UNL     1      -7.814  -2.437   4.579  1.00  0.00     0.007 A 
ATOM     39  C   UNL     1      -8.741  -0.480   6.340  1.00  0.00     0.046 A 
ATOM     40  C   UNL     1      -7.026  -1.317   4.855  1.00  0.00     0.046 A 
ATOM     41  C   UNL     1      -7.497  -0.348   5.735  1.00  0.00     0.115 A 
BRANCH  41  42
ATOM     42  O   UNL     1      -6.760   0.760   6.031  1.00  0.00    -0.508 OA
ATOM     43  H   UNL     1      -6.124   0.527   6.727  1.00  0.00     0.293 HD
ENDBRANCH  41  42
ENDBRANCH  35  36
ENDBRANCH  34  35
BRANCH  34  44
ATOM     44  C   UNL     1     -10.979  -2.526   2.918  1.00  0.00     0.243 C 
ATOM     45  O   UNL     1     -11.336  -1.355   2.817  1.00  0.00    -0.273 OA
ATOM     46  N   UNL     1     -10.415  -3.209   1.862  1.00  0.00    -0.341 N 
ATOM     47  H   UNL     1     -10.245  -4.207   1.954  1.00  0.00     0.164 HD
BRANCH  46  48
ATOM     48  C   UNL     1     -10.138  -2.596   0.561  1.00  0.00     0.196 C 
BRANCH  48  49
ATOM     49  C   UNL     1      -8.830  -3.132  -0.044  1.00  0.00     0.072 C 
BRANCH  49  50
ATOM     50  C   UNL     1      -7.606  -2.441   0.511  1.00  0.00    -0.045 A 
ATOM     51  C   UNL     1      -6.431  -3.173   0.735  1.00  0.00     0.007 A 
ATOM     52  C   UNL     1      -7.629  -1.077   0.827  1.00  0.00     0.007 A 
ATOM     53  C   UNL     1      -5.299  -2.549   1.259  1.00  0.00     0.046 A 
ATOM     54  C   UNL     1      -6.496  -0.452   1.353  1.00  0.00     0.046 A 
ATOM     55  C   UNL     1      -5.339  -1.194   1.563  1.00  0.00     0.115 A 
BRANCH  55  56
ATOM     56  O   UNL     1      -4.212  -0.622   2.076  1.00  0.00    -0.508 OA
ATOM     57  H   UNL     1      -4.384  -0.382   3.000  1.00  0.00     0.293 HD
ENDBRANCH  55  56
ENDBRANCH  49  50
ENDBRANCH  48  49
BRANCH  48  58
ATOM     58  C   UNL     1     -11.306  -2.894  -0.389  1.00  0.00     0.326 C 
ATOM     59  O   UNL     1     -11.276  -3.561  -1.411  1.00  0.00    -0.250 OA
BRANCH  58  60
ATOM     60  O   UNL     1     -12.480  -2.340   0.006  1.00  0.00    -0.480 OA
ATOM     61  H   UNL     1     -12.495  -2.508   0.973  1.00  0.00     0.296 HD
ENDBRANCH  58  60
ENDBRANCH  48  58
ENDBRANCH  46  48
ENDBRANCH  34  44
ENDBRANCH  32  34
ENDBRANCH  25  30
ENDBRANCH  23  25
ENDBRANCH   2  23
TORSDOF 28
ENDMDL
MODEL 9
REMARK VINA RESULT:    -5.903      2.330      7.950
REMARK INTER + INTRA:         -19.281
REMARK INTER:                 -14.875
REMARK INTRA:                  -4.405
REMARK UNBOUND:                -4.579
REMARK SMILES CCCCCCC[C@H](N)[C@H](O)C(=O)N[C@H](C)C(=O)N(C)[C@H](CC(C)C)C(=O)N[C@@H](Cc1ccc(O)cc1)C(=O)N[C@@H](Cc1ccc(O)cc1)C(=O)O
REMARK SMILES IDX 18 1 17 2 15 3 16 4 14 5 12 6 13 7 10 9 11 10 8 12 9 13 7 16
REMARK SMILES IDX 6 17 5 18 4 19 3 20 2 21 1 22 19 23 20 24 21 25 22 26 23 27
REMARK SMILES IDX 24 28 25 29 26 30 27 31 28 32 29 34 30 35 31 36 32 37 37 38
REMARK SMILES IDX 33 39 36 40 34 41 35 42 38 44 39 45 40 46 41 48 42 49 43 50
REMARK SMILES IDX 44 51 49 52 45 53 48 54 46 55 47 56 50 58 51 59 52 60
REMARK H PARENT 14 8 11 11 9 14 9 15 28 33 35 43 40 47 47 57 52 61
ROOT
ATOM      1  O   UNL     1     -11.794  -4.096   3.166  1.00  0.00    -0.272 OA
ATOM      2  C   UNL     1     -12.216  -4.646   2.138  1.00  0.00     0.245 C 
ENDROOT
BRANCH   2   3
ATOM      3  C   UNL     1     -12.191  -6.193   2.063  1.00  0.00     0.168 C 
ATOM      4  C   UNL     1     -11.653  -6.661   0.715  1.00  0.00     0.041 C 
BRANCH   3   5
ATOM      5  N   UNL     1     -11.516  -6.848   3.173  1.00  0.00    -0.342 N 
ATOM      6  C   UNL     1     -12.216  -7.438   4.205  1.00  0.00     0.251 C 
ATOM      7  O   UNL     1     -13.439  -7.420   4.289  1.00  0.00    -0.272 OA
ATOM      8  H   UNL     1     -10.502  -6.896   3.231  1.00  0.00     0.164 HD
BRANCH   6   9
ATOM      9  C   UNL     1     -11.304  -8.190   5.187  1.00  0.00     0.219 C 
BRANCH   9  10
ATOM     10  O   UNL     1      -9.942  -8.244   4.746  1.00  0.00    -0.382 OA
ATOM     11  H   UNL     1      -9.426  -8.108   5.571  1.00  0.00     0.211 HD
ENDBRANCH   9  10
BRANCH   9  12
ATOM     12  C   UNL     1     -11.392  -7.647   6.637  1.00  0.00     0.089 C 
BRANCH  12  13
ATOM     13  N   UNL     1     -10.684  -8.589   7.533  1.00  0.00    -0.325 NA
ATOM     14  H   UNL     1     -10.734  -9.530   7.138  1.00  0.00     0.119 HD
ATOM     15  H   UNL     1     -11.190  -8.646   8.420  1.00  0.00     0.119 HD
ENDBRANCH  12  13
BRANCH  12  16
ATOM     16  C   UNL     1     -10.865  -6.208   6.856  1.00  0.00     0.022 C 
BRANCH  16  17
ATOM     17  C   UNL     1     -10.547  -5.737   8.282  1.00  0.00     0.002 C 
BRANCH  17  18
ATOM     18  C   UNL     1      -9.529  -4.603   8.374  1.00  0.00     0.000 C 
BRANCH  18  19
ATOM     19  C   UNL     1      -9.450  -3.946   9.759  1.00  0.00    -0.000 C 
BRANCH  19  20
ATOM     20  C   UNL     1      -8.197  -3.101  10.007  1.00  0.00    -0.000 C 
BRANCH  20  21
ATOM     21  C   UNL     1      -8.191  -2.427  11.381  1.00  0.00    -0.003 C 
ATOM     22  C   UNL     1      -7.079  -2.975  12.262  1.00  0.00     0.004 C 
ENDBRANCH  20  21
ENDBRANCH  19  20
ENDBRANCH  18  19
ENDBRANCH  17  18
ENDBRANCH  16  17
ENDBRANCH  12  16
ENDBRANCH   9  12
ENDBRANCH   6   9
ENDBRANCH   3   5
ENDBRANCH   2   3
BRANCH   2  23
ATOM     23  N   UNL     1     -12.810  -3.887   1.136  1.00  0.00    -0.332 N 
ATOM     24  C   UNL     1     -14.213  -3.969   0.759  1.00  0.00     0.147 C 
BRANCH  23  25
ATOM     25  C   UNL     1     -12.039  -2.814   0.450  1.00  0.00     0.174 C 
BRANCH  25  26
ATOM     26  C   UNL     1     -11.150  -3.350  -0.696  1.00  0.00     0.038 C 
BRANCH  26  27
ATOM     27  C   UNL     1     -11.292  -2.662  -2.072  1.00  0.00    -0.015 C 
ATOM     28  C   UNL     1     -12.386  -3.294  -2.931  1.00  0.00     0.007 C 
ATOM     29  C   UNL     1     -11.488  -1.151  -1.979  1.00  0.00     0.007 C 
ENDBRANCH  26  27
ENDBRANCH  25  26
BRANCH  25  30
ATOM     30  C   UNL     1     -11.270  -1.965   1.489  1.00  0.00     0.243 C 
ATOM     31  O   UNL     1     -11.819  -1.075   2.137  1.00  0.00    -0.273 OA
ATOM     32  N   UNL     1      -9.940  -2.266   1.632  1.00  0.00    -0.342 N 
ATOM     33  H   UNL     1      -9.591  -3.107   1.165  1.00  0.00     0.164 HD
BRANCH  32  34
ATOM     34  C   UNL     1      -9.050  -1.548   2.549  1.00  0.00     0.175 C 
BRANCH  34  35
ATOM     35  C   UNL     1      -8.632  -2.435   3.732  1.00  0.00     0.070 C 
BRANCH  35  36
ATOM     36  C   UNL     1      -9.105  -1.895   5.063  1.00  0.00    -0.045 A 
ATOM     37  C   UNL     1      -8.208  -1.221   5.906  1.00  0.00     0.007 A 
ATOM     38  C   UNL     1     -10.429  -2.077   5.483  1.00  0.00     0.007 A 
ATOM     39  C   UNL     1      -8.632  -0.731   7.141  1.00  0.00     0.046 A 
ATOM     40  C   UNL     1     -10.854  -1.588   6.721  1.00  0.00     0.046 A 
ATOM     41  C   UNL     1      -9.950  -0.918   7.539  1.00  0.00     0.115 A 
BRANCH  41  42
ATOM     42  O   UNL     1     -10.323  -0.427   8.755  1.00  0.00    -0.508 OA
ATOM     43  H   UNL     1      -9.879  -0.949   9.444  1.00  0.00     0.293 HD
ENDBRANCH  41  42
ENDBRANCH  35  36
ENDBRANCH  34  35
BRANCH  34  44
ATOM     44  C   UNL     1      -7.829  -1.052   1.741  1.00  0.00     0.243 C 
ATOM     45  O   UNL     1      -7.869  -0.151   0.908  1.00  0.00    -0.273 OA
ATOM     46  N   UNL     1      -6.694  -1.807   1.943  1.00  0.00    -0.341 N 
ATOM     47  H   UNL     1      -6.741  -2.617   2.556  1.00  0.00     0.164 HD
BRANCH  46  48
ATOM     48  C   UNL     1      -5.432  -1.570   1.237  1.00  0.00     0.196 C 
BRANCH  48  49
ATOM     49  C   UNL     1      -4.291  -1.257   2.219  1.00  0.00     0.072 C 
BRANCH  49  50
ATOM     50  C   UNL     1      -4.645  -0.154   3.190  1.00  0.00    -0.045 A 
ATOM     51  C   UNL     1      -4.923   1.135   2.713  1.00  0.00     0.007 A 
ATOM     52  C   UNL     1      -4.681  -0.392   4.570  1.00  0.00     0.007 A 
ATOM     53  C   UNL     1      -5.238   2.164   3.601  1.00  0.00     0.046 A 
ATOM     54  C   UNL     1      -4.995   0.638   5.459  1.00  0.00     0.046 A 
ATOM     55  C   UNL     1      -5.272   1.908   4.966  1.00  0.00     0.115 A 
BRANCH  55  56
ATOM     56  O   UNL     1      -5.583   2.941   5.800  1.00  0.00    -0.508 OA
ATOM     57  H   UNL     1      -6.505   2.839   6.084  1.00  0.00     0.293 HD
ENDBRANCH  55  56
ENDBRANCH  49  50
ENDBRANCH  48  49
BRANCH  48  58
ATOM     58  C   UNL     1      -5.078  -2.818   0.417  1.00  0.00     0.326 C 
ATOM     59  O   UNL     1      -4.119  -2.968  -0.323  1.00  0.00    -0.250 OA
BRANCH  58  60
ATOM     60  O   UNL     1      -5.955  -3.841   0.580  1.00  0.00    -0.480 OA
ATOM     61  H   UNL     1      -5.598  -4.541  -0.008  1.00  0.00     0.296 HD
ENDBRANCH  58  60
ENDBRANCH  48  58
ENDBRANCH  46  48
ENDBRANCH  34  44
ENDBRANCH  32  34
ENDBRANCH  25  30
ENDBRANCH  23  25
ENDBRANCH   2  23
TORSDOF 28
ENDMDL
MODEL 10
REMARK VINA RESULT:    -5.885      2.378      7.153
REMARK INTER + INTRA:         -19.236
REMARK INTER:                 -15.672
REMARK INTRA:                  -3.564
REMARK UNBOUND:                -4.579
REMARK SMILES CCCCCCC[C@H](N)[C@H](O)C(=O)N[C@H](C)C(=O)N(C)[C@H](CC(C)C)C(=O)N[C@@H](Cc1ccc(O)cc1)C(=O)N[C@@H](Cc1ccc(O)cc1)C(=O)O
REMARK SMILES IDX 18 1 17 2 15 3 16 4 14 5 12 6 13 7 10 9 11 10 8 12 9 13 7 16
REMARK SMILES IDX 6 17 5 18 4 19 3 20 2 21 1 22 19 23 20 24 21 25 22 26 23 27
REMARK SMILES IDX 24 28 25 29 26 30 27 31 28 32 29 34 30 35 31 36 32 37 37 38
REMARK SMILES IDX 33 39 36 40 34 41 35 42 38 44 39 45 40 46 41 48 42 49 43 50
REMARK SMILES IDX 44 51 49 52 45 53 48 54 46 55 47 56 50 58 51 59 52 60
REMARK H PARENT 14 8 11 11 9 14 9 15 28 33 35 43 40 47 47 57 52 61
ROOT
ATOM      1  O   UNL     1     -11.776  -4.695   2.858  1.00  0.00    -0.272 OA
ATOM      2  C   UNL     1     -12.921  -4.761   2.388  1.00  0.00     0.245 C 
ENDROOT
BRANCH   2   3
ATOM      3  C   UNL     1     -13.450  -3.567   1.555  1.00  0.00     0.168 C 
ATOM      4  C   UNL     1     -12.765  -2.270   1.970  1.00  0.00     0.041 C 
BRANCH   3   5
ATOM      5  N   UNL     1     -13.412  -3.763   0.114  1.00  0.00    -0.342 N 
ATOM      6  C   UNL     1     -14.422  -3.312  -0.709  1.00  0.00     0.251 C 
ATOM      7  O   UNL     1     -15.435  -2.757  -0.296  1.00  0.00    -0.272 OA
ATOM      8  H   UNL     1     -12.638  -4.240  -0.342  1.00  0.00     0.164 HD
BRANCH   6   9
ATOM      9  C   UNL     1     -14.102  -3.501  -2.201  1.00  0.00     0.219 C 
BRANCH   9  10
ATOM     10  O   UNL     1     -15.149  -3.024  -3.055  1.00  0.00    -0.382 OA
ATOM     11  H   UNL     1     -15.585  -2.326  -2.519  1.00  0.00     0.211 HD
ENDBRANCH   9  10
BRANCH   9  12
ATOM     12  C   UNL     1     -12.736  -2.893  -2.613  1.00  0.00     0.089 C 
BRANCH  12  13
ATOM     13  N   UNL     1     -12.409  -3.362  -3.979  1.00  0.00    -0.325 NA
ATOM     14  H   UNL     1     -11.465  -3.055  -4.222  1.00  0.00     0.119 HD
ATOM     15  H   UNL     1     -13.023  -2.890  -4.647  1.00  0.00     0.119 HD
ENDBRANCH  12  13
BRANCH  12  16
ATOM     16  C   UNL     1     -12.630  -1.351  -2.540  1.00  0.00     0.022 C 
BRANCH  16  17
ATOM     17  C   UNL     1     -11.602  -0.717  -1.593  1.00  0.00     0.002 C 
BRANCH  17  18
ATOM     18  C   UNL     1     -10.790  -1.710  -0.764  1.00  0.00     0.000 C 
BRANCH  18  19
ATOM     19  C   UNL     1      -9.492  -1.129  -0.190  1.00  0.00    -0.000 C 
BRANCH  19  20
ATOM     20  C   UNL     1      -9.325  -1.283   1.325  1.00  0.00    -0.000 C 
BRANCH  20  21
ATOM     21  C   UNL     1      -8.035  -2.010   1.715  1.00  0.00    -0.003 C 
ATOM     22  C   UNL     1      -7.467  -2.798   0.545  1.00  0.00     0.004 C 
ENDBRANCH  20  21
ENDBRANCH  19  20
ENDBRANCH  18  19
ENDBRANCH  17  18
ENDBRANCH  16  17
ENDBRANCH  12  16
ENDBRANCH   9  12
ENDBRANCH   6   9
ENDBRANCH   3   5
ENDBRANCH   2   3
BRANCH   2  23
ATOM     23  N   UNL     1     -13.656  -5.936   2.508  1.00  0.00    -0.332 N 
ATOM     24  C   UNL     1     -15.097  -5.992   2.700  1.00  0.00     0.147 C 
BRANCH  23  25
ATOM     25  C   UNL     1     -12.997  -7.257   2.314  1.00  0.00     0.174 C 
BRANCH  25  26
ATOM     26  C   UNL     1     -13.691  -8.123   1.236  1.00  0.00     0.038 C 
BRANCH  26  27
ATOM     27  C   UNL     1     -13.340  -7.820  -0.238  1.00  0.00    -0.015 C 
ATOM     28  C   UNL     1     -12.964  -9.079  -1.019  1.00  0.00     0.007 C 
ATOM     29  C   UNL     1     -14.425  -7.036  -0.972  1.00  0.00     0.007 C 
ENDBRANCH  26  27
ENDBRANCH  25  26
BRANCH  25  30
ATOM     30  C   UNL     1     -12.830  -7.973   3.674  1.00  0.00     0.243 C 
ATOM     31  O   UNL     1     -13.457  -8.994   3.952  1.00  0.00    -0.273 OA
ATOM     32  N   UNL     1     -11.944  -7.392   4.545  1.00  0.00    -0.342 N 
ATOM     33  H   UNL     1     -11.360  -6.631   4.189  1.00  0.00     0.164 HD
BRANCH  32  34
ATOM     34  C   UNL     1     -11.679  -7.917   5.887  1.00  0.00     0.175 C 
BRANCH  34  35
ATOM     35  C   UNL     1     -10.522  -8.928   5.873  1.00  0.00     0.070 C 
BRANCH  35  36
ATOM     36  C   UNL     1     -10.708 -10.043   6.879  1.00  0.00    -0.045 A 
ATOM     37  C   UNL     1     -11.611 -11.083   6.614  1.00  0.00     0.007 A 
ATOM     38  C   UNL     1     -10.004 -10.042   8.090  1.00  0.00     0.007 A 
ATOM     39  C   UNL     1     -11.799 -12.108   7.542  1.00  0.00     0.046 A 
ATOM     40  C   UNL     1     -10.193 -11.068   9.020  1.00  0.00     0.046 A 
ATOM     41  C   UNL     1     -11.089 -12.093   8.736  1.00  0.00     0.115 A 
BRANCH  41  42
ATOM     42  O   UNL     1     -11.304 -13.112   9.616  1.00  0.00    -0.508 OA
ATOM     43  H   UNL     1     -11.707 -13.852   9.133  1.00  0.00     0.293 HD
ENDBRANCH  41  42
ENDBRANCH  35  36
ENDBRANCH  34  35
BRANCH  34  44
ATOM     44  C   UNL     1     -11.388  -6.720   6.820  1.00  0.00     0.243 C 
ATOM     45  O   UNL     1     -12.112  -6.373   7.750  1.00  0.00    -0.273 OA
ATOM     46  N   UNL     1     -10.292  -5.978   6.436  1.00  0.00    -0.341 N 
ATOM     47  H   UNL     1      -9.791  -6.238   5.589  1.00  0.00     0.164 HD
BRANCH  46  48
ATOM     48  C   UNL     1      -9.861  -4.760   7.126  1.00  0.00     0.196 C 
BRANCH  48  49
ATOM     49  C   UNL     1      -9.222  -5.083   8.487  1.00  0.00     0.072 C 
BRANCH  49  50
ATOM     50  C   UNL     1      -9.478  -4.009   9.519  1.00  0.00    -0.045 A 
ATOM     51  C   UNL     1     -10.795  -3.648   9.842  1.00  0.00     0.007 A 
ATOM     52  C   UNL     1      -8.416  -3.347  10.149  1.00  0.00     0.007 A 
ATOM     53  C   UNL     1     -11.043  -2.649  10.783  1.00  0.00     0.046 A 
ATOM     54  C   UNL     1      -8.665  -2.345  11.091  1.00  0.00     0.046 A 
ATOM     55  C   UNL     1      -9.977  -2.006  11.400  1.00  0.00     0.115 A 
BRANCH  55  56
ATOM     56  O   UNL     1     -10.263  -1.034  12.313  1.00  0.00    -0.508 OA
ATOM     57  H   UNL     1      -9.829  -1.264  13.150  1.00  0.00     0.293 HD
ENDBRANCH  55  56
ENDBRANCH  49  50
ENDBRANCH  48  49
BRANCH  48  58
ATOM     58  C   UNL     1      -8.846  -4.019   6.244  1.00  0.00     0.326 C 
ATOM     59  O   UNL     1      -9.073  -3.117   5.454  1.00  0.00    -0.250 OA
BRANCH  58  60
ATOM     60  O   UNL     1      -7.569  -4.446   6.412  1.00  0.00    -0.480 OA
ATOM     61  H   UNL     1      -7.496  -4.563   7.384  1.00  0.00     0.296 HD
ENDBRANCH  58  60
ENDBRANCH  48  58
ENDBRANCH  46  48
ENDBRANCH  34  44
ENDBRANCH  32  34
ENDBRANCH  25  30
ENDBRANCH  23  25
ENDBRANCH   2  23
TORSDOF 28
ENDMDL
MODEL 11
REMARK VINA RESULT:    -5.854     14.526     19.891
REMARK INTER + INTRA:         -19.160
REMARK INTER:                 -14.373
REMARK INTRA:                  -4.788
REMARK UNBOUND:                -4.579
REMARK SMILES CCCCCCC[C@H](N)[C@H](O)C(=O)N[C@H](C)C(=O)N(C)[C@H](CC(C)C)C(=O)N[C@@H](Cc1ccc(O)cc1)C(=O)N[C@@H](Cc1ccc(O)cc1)C(=O)O
REMARK SMILES IDX 18 1 17 2 15 3 16 4 14 5 12 6 13 7 10 9 11 10 8 12 9 13 7 16
REMARK SMILES IDX 6 17 5 18 4 19 3 20 2 21 1 22 19 23 20 24 21 25 22 26 23 27
REMARK SMILES IDX 24 28 25 29 26 30 27 31 28 32 29 34 30 35 31 36 32 37 37 38
REMARK SMILES IDX 33 39 36 40 34 41 35 42 38 44 39 45 40 46 41 48 42 49 43 50
REMARK SMILES IDX 44 51 49 52 45 53 48 54 46 55 47 56 50 58 51 59 52 60
REMARK H PARENT 14 8 11 11 9 14 9 15 28 33 35 43 40 47 47 57 52 61
ROOT
ATOM      1  O   UNL     1       1.452   6.702  -7.584  1.00  0.00    -0.272 OA
ATOM      2  C   UNL     1       1.161   5.674  -8.213  1.00  0.00     0.245 C 
ENDROOT
BRANCH   2   3
ATOM      3  C   UNL     1       2.001   5.306  -9.462  1.00  0.00     0.168 C 
ATOM      4  C   UNL     1       1.453   5.998 -10.706  1.00  0.00     0.041 C 
BRANCH   3   5
ATOM      5  N   UNL     1       3.434   5.509  -9.316  1.00  0.00    -0.342 N 
ATOM      6  C   UNL     1       4.186   4.774  -8.424  1.00  0.00     0.251 C 
ATOM      7  O   UNL     1       3.709   3.936  -7.667  1.00  0.00    -0.272 OA
ATOM      8  H   UNL     1       3.936   6.202  -9.866  1.00  0.00     0.164 HD
BRANCH   6   9
ATOM      9  C   UNL     1       5.692   5.057  -8.543  1.00  0.00     0.219 C 
BRANCH   9  10
ATOM     10  O   UNL     1       6.217   4.723  -9.834  1.00  0.00    -0.382 OA
ATOM     11  H   UNL     1       5.416   4.518 -10.363  1.00  0.00     0.211 HD
ENDBRANCH   9  10
BRANCH   9  12
ATOM     12  C   UNL     1       6.072   6.509  -8.153  1.00  0.00     0.089 C 
BRANCH  12  13
ATOM     13  N   UNL     1       5.065   7.013  -7.192  1.00  0.00    -0.325 NA
ATOM     14  H   UNL     1       5.449   6.965  -6.246  1.00  0.00     0.119 HD
ATOM     15  H   UNL     1       4.264   6.377  -7.187  1.00  0.00     0.119 HD
ENDBRANCH  12  13
BRANCH  12  16
ATOM     16  C   UNL     1       7.497   6.707  -7.582  1.00  0.00     0.022 C 
BRANCH  16  17
ATOM     17  C   UNL     1       7.718   6.592  -6.068  1.00  0.00     0.002 C 
BRANCH  17  18
ATOM     18  C   UNL     1       9.123   6.955  -5.592  1.00  0.00     0.000 C 
BRANCH  18  19
ATOM     19  C   UNL     1       9.467   6.419  -4.196  1.00  0.00    -0.000 C 
BRANCH  19  20
ATOM     20  C   UNL     1       9.085   4.956  -3.949  1.00  0.00    -0.000 C 
BRANCH  20  21
ATOM     21  C   UNL     1       8.579   4.701  -2.527  1.00  0.00    -0.003 C 
ATOM     22  C   UNL     1       9.389   5.480  -1.502  1.00  0.00     0.004 C 
ENDBRANCH  20  21
ENDBRANCH  19  20
ENDBRANCH  18  19
ENDBRANCH  17  18
ENDBRANCH  16  17
ENDBRANCH  12  16
ENDBRANCH   9  12
ENDBRANCH   6   9
ENDBRANCH   3   5
ENDBRANCH   2   3
BRANCH   2  23
ATOM     23  N   UNL     1       0.182   4.814  -7.727  1.00  0.00    -0.332 N 
ATOM     24  C   UNL     1      -1.062   4.505  -8.417  1.00  0.00     0.147 C 
BRANCH  23  25
ATOM     25  C   UNL     1       0.418   4.034  -6.481  1.00  0.00     0.174 C 
BRANCH  25  26
ATOM     26  C   UNL     1      -0.132   2.591  -6.561  1.00  0.00     0.038 C 
BRANCH  26  27
ATOM     27  C   UNL     1      -1.008   2.109  -5.383  1.00  0.00    -0.015 C 
ATOM     28  C   UNL     1      -2.436   1.776  -5.814  1.00  0.00     0.007 C 
ATOM     29  C   UNL     1      -0.396   0.945  -4.608  1.00  0.00     0.007 C 
ENDBRANCH  26  27
ENDBRANCH  25  26
BRANCH  25  30
ATOM     30  C   UNL     1      -0.090   4.826  -5.254  1.00  0.00     0.243 C 
ATOM     31  O   UNL     1      -1.153   5.444  -5.273  1.00  0.00    -0.273 OA
ATOM     32  N   UNL     1       0.724   4.796  -4.151  1.00  0.00    -0.342 N 
ATOM     33  H   UNL     1       1.516   4.149  -4.164  1.00  0.00     0.164 HD
BRANCH  32  34
ATOM     34  C   UNL     1       0.417   5.510  -2.908  1.00  0.00     0.175 C 
BRANCH  34  35
ATOM     35  C   UNL     1       0.912   4.732  -1.680  1.00  0.00     0.070 C 
BRANCH  35  36
ATOM     36  C   UNL     1       0.010   4.901  -0.478  1.00  0.00    -0.045 A 
ATOM     37  C   UNL     1      -0.807   6.036  -0.368  1.00  0.00     0.007 A 
ATOM     38  C   UNL     1      -0.007   3.947   0.548  1.00  0.00     0.007 A 
ATOM     39  C   UNL     1      -1.632   6.208   0.744  1.00  0.00     0.046 A 
ATOM     40  C   UNL     1      -0.832   4.119   1.662  1.00  0.00     0.046 A 
ATOM     41  C   UNL     1      -1.639   5.248   1.749  1.00  0.00     0.115 A 
BRANCH  41  42
ATOM     42  O   UNL     1      -2.457   5.455   2.820  1.00  0.00    -0.508 OA
ATOM     43  H   UNL     1      -2.742   4.590   3.157  1.00  0.00     0.293 HD
ENDBRANCH  41  42
ENDBRANCH  35  36
ENDBRANCH  34  35
BRANCH  34  44
ATOM     44  C   UNL     1       1.051   6.917  -2.995  1.00  0.00     0.243 C 
ATOM     45  O   UNL     1       0.561   7.862  -3.606  1.00  0.00    -0.273 OA
ATOM     46  N   UNL     1       2.304   6.990  -2.424  1.00  0.00    -0.341 N 
ATOM     47  H   UNL     1       2.718   6.148  -2.032  1.00  0.00     0.164 HD
BRANCH  46  48
ATOM     48  C   UNL     1       3.129   8.200  -2.443  1.00  0.00     0.196 C 
BRANCH  48  49
ATOM     49  C   UNL     1       3.926   8.355  -1.138  1.00  0.00     0.072 C 
BRANCH  49  50
ATOM     50  C   UNL     1       3.150   7.897   0.076  1.00  0.00    -0.045 A 
ATOM     51  C   UNL     1       3.368   6.616   0.603  1.00  0.00     0.007 A 
ATOM     52  C   UNL     1       2.194   8.728   0.676  1.00  0.00     0.007 A 
ATOM     53  C   UNL     1       2.648   6.178   1.715  1.00  0.00     0.046 A 
ATOM     54  C   UNL     1       1.472   8.288   1.788  1.00  0.00     0.046 A 
ATOM     55  C   UNL     1       1.706   7.016   2.299  1.00  0.00     0.115 A 
BRANCH  55  56
ATOM     56  O   UNL     1       1.023   6.550   3.382  1.00  0.00    -0.508 OA
ATOM     57  H   UNL     1       1.175   5.594   3.452  1.00  0.00     0.293 HD
ENDBRANCH  55  56
ENDBRANCH  49  50
ENDBRANCH  48  49
BRANCH  48  58
ATOM     58  C   UNL     1       4.097   8.126  -3.632  1.00  0.00     0.326 C 
ATOM     59  O   UNL     1       4.092   7.310  -4.540  1.00  0.00    -0.250 OA
BRANCH  58  60
ATOM     60  O   UNL     1       5.032   9.109  -3.630  1.00  0.00    -0.480 OA
ATOM     61  H   UNL     1       5.436   9.035  -2.739  1.00  0.00     0.296 HD
ENDBRANCH  58  60
ENDBRANCH  48  58
ENDBRANCH  46  48
ENDBRANCH  34  44
ENDBRANCH  32  34
ENDBRANCH  25  30
ENDBRANCH  23  25
ENDBRANCH   2  23
TORSDOF 28
ENDMDL
MODEL 12
REMARK VINA RESULT:    -5.852      2.438      7.871
REMARK INTER + INTRA:         -19.155
REMARK INTER:                 -15.749
REMARK INTRA:                  -3.407
REMARK UNBOUND:                -4.579
REMARK SMILES CCCCCCC[C@H](N)[C@H](O)C(=O)N[C@H](C)C(=O)N(C)[C@H](CC(C)C)C(=O)N[C@@H](Cc1ccc(O)cc1)C(=O)N[C@@H](Cc1ccc(O)cc1)C(=O)O
REMARK SMILES IDX 18 1 17 2 15 3 16 4 14 5 12 6 13 7 10 9 11 10 8 12 9 13 7 16
REMARK SMILES IDX 6 17 5 18 4 19 3 20 2 21 1 22 19 23 20 24 21 25 22 26 23 27
REMARK SMILES IDX 24 28 25 29 26 30 27 31 28 32 29 34 30 35 31 36 32 37 37 38
REMARK SMILES IDX 33 39 36 40 34 41 35 42 38 44 39 45 40 46 41 48 42 49 43 50
REMARK SMILES IDX 44 51 49 52 45 53 48 54 46 55 47 56 50 58 51 59 52 60
REMARK H PARENT 14 8 11 11 9 14 9 15 28 33 35 43 40 47 47 57 52 61
ROOT
ATOM      1  O   UNL     1      -9.260  -4.977   6.421  1.00  0.00    -0.272 OA
ATOM      2  C   UNL     1      -9.952  -4.591   7.375  1.00  0.00     0.245 C 
ENDROOT
BRANCH   2   3
ATOM      3  C   UNL     1     -10.464  -5.642   8.392  1.00  0.00     0.168 C 
ATOM      4  C   UNL     1     -11.477  -5.021   9.348  1.00  0.00     0.041 C 
BRANCH   3   5
ATOM      5  N   UNL     1     -10.962  -6.874   7.800  1.00  0.00    -0.342 N 
ATOM      6  C   UNL     1     -11.955  -6.872   6.843  1.00  0.00     0.251 C 
ATOM      7  O   UNL     1     -12.517  -5.854   6.453  1.00  0.00    -0.272 OA
ATOM      8  H   UNL     1     -10.596  -7.784   8.069  1.00  0.00     0.164 HD
BRANCH   6   9
ATOM      9  C   UNL     1     -12.219  -8.269   6.259  1.00  0.00     0.219 C 
BRANCH   9  10
ATOM     10  O   UNL     1     -13.476  -8.354   5.576  1.00  0.00    -0.382 OA
ATOM     11  H   UNL     1     -13.765  -7.417   5.506  1.00  0.00     0.211 HD
ENDBRANCH   9  10
BRANCH   9  12
ATOM     12  C   UNL     1     -11.066  -8.780   5.356  1.00  0.00     0.089 C 
BRANCH  12  13
ATOM     13  N   UNL     1     -10.183  -7.637   5.035  1.00  0.00    -0.325 NA
ATOM     14  H   UNL     1     -10.700  -6.962   4.468  1.00  0.00     0.119 HD
ATOM     15  H   UNL     1      -9.423  -7.964   4.433  1.00  0.00     0.119 HD
ENDBRANCH  12  13
BRANCH  12  16
ATOM     16  C   UNL     1     -10.232  -9.954   5.922  1.00  0.00     0.022 C 
BRANCH  16  17
ATOM     17  C   UNL     1     -10.691 -10.642   7.215  1.00  0.00     0.002 C 
BRANCH  17  18
ATOM     18  C   UNL     1      -9.845 -10.329   8.447  1.00  0.00     0.000 C 
BRANCH  18  19
ATOM     19  C   UNL     1     -10.640  -9.722   9.612  1.00  0.00    -0.000 C 
BRANCH  19  20
ATOM     20  C   UNL     1     -12.056 -10.275   9.790  1.00  0.00    -0.000 C 
BRANCH  20  21
ATOM     21  C   UNL     1     -13.134  -9.188   9.750  1.00  0.00    -0.003 C 
ATOM     22  C   UNL     1     -14.210  -9.436  10.796  1.00  0.00     0.004 C 
ENDBRANCH  20  21
ENDBRANCH  19  20
ENDBRANCH  18  19
ENDBRANCH  17  18
ENDBRANCH  16  17
ENDBRANCH  12  16
ENDBRANCH   9  12
ENDBRANCH   6   9
ENDBRANCH   3   5
ENDBRANCH   2   3
BRANCH   2  23
ATOM     23  N   UNL     1     -10.153  -3.231   7.583  1.00  0.00    -0.332 N 
ATOM     24  C   UNL     1     -11.422  -2.545   7.393  1.00  0.00     0.147 C 
BRANCH  23  25
ATOM     25  C   UNL     1      -9.066  -2.391   8.157  1.00  0.00     0.174 C 
BRANCH  25  26
ATOM     26  C   UNL     1      -9.501  -1.631   9.432  1.00  0.00     0.038 C 
BRANCH  26  27
ATOM     27  C   UNL     1      -9.351  -2.376  10.777  1.00  0.00    -0.015 C 
ATOM     28  C   UNL     1      -8.021  -3.120  10.887  1.00  0.00     0.007 C 
ATOM     29  C   UNL     1      -9.569  -1.482  11.994  1.00  0.00     0.007 C 
ENDBRANCH  26  27
ENDBRANCH  25  26
BRANCH  25  30
ATOM     30  C   UNL     1      -8.466  -1.478   7.063  1.00  0.00     0.243 C 
ATOM     31  O   UNL     1      -8.565  -0.253   7.113  1.00  0.00    -0.273 OA
ATOM     32  N   UNL     1      -7.825  -2.123   6.037  1.00  0.00    -0.342 N 
ATOM     33  H   UNL     1      -7.661  -3.128   6.139  1.00  0.00     0.164 HD
BRANCH  32  34
ATOM     34  C   UNL     1      -7.220  -1.421   4.902  1.00  0.00     0.175 C 
BRANCH  34  35
ATOM     35  C   UNL     1      -5.687  -1.503   4.947  1.00  0.00     0.070 C 
BRANCH  35  36
ATOM     36  C   UNL     1      -5.018  -0.301   4.319  1.00  0.00    -0.045 A 
ATOM     37  C   UNL     1      -3.911  -0.474   3.475  1.00  0.00     0.007 A 
ATOM     38  C   UNL     1      -5.475   0.997   4.587  1.00  0.00     0.007 A 
ATOM     39  C   UNL     1      -3.279   0.630   2.903  1.00  0.00     0.046 A 
ATOM     40  C   UNL     1      -4.842   2.103   4.015  1.00  0.00     0.046 A 
ATOM     41  C   UNL     1      -3.750   1.909   3.176  1.00  0.00     0.115 A 
BRANCH  41  42
ATOM     42  O   UNL     1      -3.102   2.961   2.599  1.00  0.00    -0.508 OA
ATOM     43  H   UNL     1      -2.810   2.690   1.713  1.00  0.00     0.293 HD
ENDBRANCH  41  42
ENDBRANCH  35  36
ENDBRANCH  34  35
BRANCH  34  44
ATOM     44  C   UNL     1      -7.793  -2.030   3.602  1.00  0.00     0.243 C 
ATOM     45  O   UNL     1      -8.926  -2.491   3.493  1.00  0.00    -0.273 OA
ATOM     46  N   UNL     1      -6.865  -2.134   2.589  1.00  0.00    -0.341 N 
ATOM     47  H   UNL     1      -5.906  -1.845   2.766  1.00  0.00     0.164 HD
BRANCH  46  48
ATOM     48  C   UNL     1      -7.156  -2.740   1.288  1.00  0.00     0.196 C 
BRANCH  48  49
ATOM     49  C   UNL     1      -7.820  -1.731   0.336  1.00  0.00     0.072 C 
BRANCH  49  50
ATOM     50  C   UNL     1      -9.277  -2.045   0.079  1.00  0.00    -0.045 A 
ATOM     51  C   UNL     1     -10.266  -1.122   0.448  1.00  0.00     0.007 A 
ATOM     52  C   UNL     1      -9.660  -3.259  -0.505  1.00  0.00     0.007 A 
ATOM     53  C   UNL     1     -11.614  -1.407   0.228  1.00  0.00     0.046 A 
ATOM     54  C   UNL     1     -11.010  -3.544  -0.724  1.00  0.00     0.046 A 
ATOM     55  C   UNL     1     -11.976  -2.614  -0.356  1.00  0.00     0.115 A 
BRANCH  55  56
ATOM     56  O   UNL     1     -13.304  -2.855  -0.552  1.00  0.00    -0.508 OA
ATOM     57  H   UNL     1     -13.447  -3.030  -1.496  1.00  0.00     0.293 HD
ENDBRANCH  55  56
ENDBRANCH  49  50
ENDBRANCH  48  49
BRANCH  48  58
ATOM     58  C   UNL     1      -5.846  -3.246   0.668  1.00  0.00     0.326 C 
ATOM     59  O   UNL     1      -5.215  -4.241   0.986  1.00  0.00    -0.250 OA
BRANCH  58  60
ATOM     60  O   UNL     1      -5.393  -2.471  -0.349  1.00  0.00    -0.480 OA
ATOM     61  H   UNL     1      -5.959  -2.737  -1.106  1.00  0.00     0.296 HD
ENDBRANCH  58  60
ENDBRANCH  48  58
ENDBRANCH  46  48
ENDBRANCH  34  44
ENDBRANCH  32  34
ENDBRANCH  25  30
ENDBRANCH  23  25
ENDBRANCH   2  23
TORSDOF 28
ENDMDL
MODEL 13
REMARK VINA RESULT:    -5.848      2.362      9.424
REMARK INTER + INTRA:         -19.144
REMARK INTER:                 -14.852
REMARK INTRA:                  -4.292
REMARK UNBOUND:                -4.579
REMARK SMILES CCCCCCC[C@H](N)[C@H](O)C(=O)N[C@H](C)C(=O)N(C)[C@H](CC(C)C)C(=O)N[C@@H](Cc1ccc(O)cc1)C(=O)N[C@@H](Cc1ccc(O)cc1)C(=O)O
REMARK SMILES IDX 18 1 17 2 15 3 16 4 14 5 12 6 13 7 10 9 11 10 8 12 9 13 7 16
REMARK SMILES IDX 6 17 5 18 4 19 3 20 2 21 1 22 19 23 20 24 21 25 22 26 23 27
REMARK SMILES IDX 24 28 25 29 26 30 27 31 28 32 29 34 30 35 31 36 32 37 37 38
REMARK SMILES IDX 33 39 36 40 34 41 35 42 38 44 39 45 40 46 41 48 42 49 43 50
REMARK SMILES IDX 44 51 49 52 45 53 48 54 46 55 47 56 50 58 51 59 52 60
REMARK H PARENT 14 8 11 11 9 14 9 15 28 33 35 43 40 47 47 57 52 61
ROOT
ATOM      1  O   UNL     1     -10.182  -7.865   4.362  1.00  0.00    -0.272 OA
ATOM      2  C   UNL     1     -11.224  -7.255   4.641  1.00  0.00     0.245 C 
ENDROOT
BRANCH   2   3
ATOM      3  C   UNL     1     -11.424  -6.755   6.093  1.00  0.00     0.168 C 
ATOM      4  C   UNL     1     -11.955  -7.873   6.983  1.00  0.00     0.041 C 
BRANCH   3   5
ATOM      5  N   UNL     1     -10.265  -6.100   6.679  1.00  0.00    -0.342 N 
ATOM      6  C   UNL     1     -10.391  -5.045   7.558  1.00  0.00     0.251 C 
ATOM      7  O   UNL     1     -11.470  -4.557   7.878  1.00  0.00    -0.272 OA
ATOM      8  H   UNL     1      -9.316  -6.394   6.462  1.00  0.00     0.164 HD
BRANCH   6   9
ATOM      9  C   UNL     1      -9.046  -4.607   8.158  1.00  0.00     0.219 C 
BRANCH   9  10
ATOM     10  O   UNL     1      -7.975  -4.657   7.208  1.00  0.00    -0.382 OA
ATOM     11  H   UNL     1      -7.637  -3.735   7.191  1.00  0.00     0.211 HD
ENDBRANCH   9  10
BRANCH   9  12
ATOM     12  C   UNL     1      -9.109  -3.217   8.843  1.00  0.00     0.089 C 
BRANCH  12  13
ATOM     13  N   UNL     1      -9.815  -2.281   7.939  1.00  0.00    -0.325 NA
ATOM     14  H   UNL     1     -10.283  -1.564   8.496  1.00  0.00     0.119 HD
ATOM     15  H   UNL     1     -10.569  -2.785   7.465  1.00  0.00     0.119 HD
ENDBRANCH  12  13
BRANCH  12  16
ATOM     16  C   UNL     1      -9.752  -3.183  10.251  1.00  0.00     0.022 C 
BRANCH  16  17
ATOM     17  C   UNL     1      -9.039  -2.426  11.379  1.00  0.00     0.002 C 
BRANCH  17  18
ATOM     18  C   UNL     1      -7.517  -2.379  11.263  1.00  0.00     0.000 C 
BRANCH  18  19
ATOM     19  C   UNL     1      -6.780  -3.030  12.441  1.00  0.00    -0.000 C 
BRANCH  19  20
ATOM     20  C   UNL     1      -7.631  -3.260  13.693  1.00  0.00    -0.000 C 
BRANCH  20  21
ATOM     21  C   UNL     1      -7.537  -2.113  14.702  1.00  0.00    -0.003 C 
ATOM     22  C   UNL     1      -8.884  -1.434  14.897  1.00  0.00     0.004 C 
ENDBRANCH  20  21
ENDBRANCH  19  20
ENDBRANCH  18  19
ENDBRANCH  17  18
ENDBRANCH  16  17
ENDBRANCH  12  16
ENDBRANCH   9  12
ENDBRANCH   6   9
ENDBRANCH   3   5
ENDBRANCH   2   3
BRANCH   2  23
ATOM     23  N   UNL     1     -12.128  -6.925   3.636  1.00  0.00    -0.332 N 
ATOM     24  C   UNL     1     -13.044  -7.866   3.008  1.00  0.00     0.147 C 
BRANCH  23  25
ATOM     25  C   UNL     1     -12.302  -5.507   3.218  1.00  0.00     0.174 C 
BRANCH  25  26
ATOM     26  C   UNL     1     -13.787  -5.103   3.064  1.00  0.00     0.038 C 
BRANCH  26  27
ATOM     27  C   UNL     1     -14.268  -3.882   3.880  1.00  0.00    -0.015 C 
ATOM     28  C   UNL     1     -13.203  -3.370   4.849  1.00  0.00     0.007 C 
ATOM     29  C   UNL     1     -14.798  -2.743   3.013  1.00  0.00     0.007 C 
ENDBRANCH  26  27
ENDBRANCH  25  26
BRANCH  25  30
ATOM     30  C   UNL     1     -11.445  -5.212   1.965  1.00  0.00     0.243 C 
ATOM     31  O   UNL     1     -10.986  -6.113   1.265  1.00  0.00    -0.273 OA
ATOM     32  N   UNL     1     -11.226  -3.886   1.695  1.00  0.00    -0.342 N 
ATOM     33  H   UNL     1     -11.755  -3.198   2.238  1.00  0.00     0.164 HD
BRANCH  32  34
ATOM     34  C   UNL     1     -10.416  -3.421   0.566  1.00  0.00     0.175 C 
BRANCH  34  35
ATOM     35  C   UNL     1     -11.125  -2.298  -0.206  1.00  0.00     0.070 C 
BRANCH  35  36
ATOM     36  C   UNL     1     -12.125  -2.822  -1.212  1.00  0.00    -0.045 A 
ATOM     37  C   UNL     1     -13.280  -3.486  -0.773  1.00  0.00     0.007 A 
ATOM     38  C   UNL     1     -11.906  -2.674  -2.588  1.00  0.00     0.007 A 
ATOM     39  C   UNL     1     -14.202  -3.985  -1.694  1.00  0.00     0.046 A 
ATOM     40  C   UNL     1     -12.827  -3.174  -3.511  1.00  0.00     0.046 A 
ATOM     41  C   UNL     1     -13.969  -3.825  -3.055  1.00  0.00     0.115 A 
BRANCH  41  42
ATOM     42  O   UNL     1     -14.892  -4.329  -3.922  1.00  0.00    -0.508 OA
ATOM     43  H   UNL     1     -14.788  -3.877  -4.775  1.00  0.00     0.293 HD
ENDBRANCH  41  42
ENDBRANCH  35  36
ENDBRANCH  34  35
BRANCH  34  44
ATOM     44  C   UNL     1      -9.045  -2.966   1.116  1.00  0.00     0.243 C 
ATOM     45  O   UNL     1      -7.972  -3.160   0.551  1.00  0.00    -0.273 OA
ATOM     46  N   UNL     1      -9.114  -2.427   2.383  1.00  0.00    -0.341 N 
ATOM     47  H   UNL     1     -10.013  -2.395   2.858  1.00  0.00     0.164 HD
BRANCH  46  48
ATOM     48  C   UNL     1      -7.937  -1.988   3.137  1.00  0.00     0.196 C 
BRANCH  48  49
ATOM     49  C   UNL     1      -7.869  -0.454   3.226  1.00  0.00     0.072 C 
BRANCH  49  50
ATOM     50  C   UNL     1      -6.459   0.074   3.093  1.00  0.00    -0.045 A 
ATOM     51  C   UNL     1      -5.752   0.474   4.237  1.00  0.00     0.007 A 
ATOM     52  C   UNL     1      -5.848   0.192   1.838  1.00  0.00     0.007 A 
ATOM     53  C   UNL     1      -4.455   0.976   4.126  1.00  0.00     0.046 A 
ATOM     54  C   UNL     1      -4.550   0.695   1.727  1.00  0.00     0.046 A 
ATOM     55  C   UNL     1      -3.864   1.082   2.873  1.00  0.00     0.115 A 
BRANCH  55  56
ATOM     56  O   UNL     1      -2.596   1.579   2.808  1.00  0.00    -0.508 OA
ATOM     57  H   UNL     1      -2.093   1.052   2.166  1.00  0.00     0.293 HD
ENDBRANCH  55  56
ENDBRANCH  49  50
ENDBRANCH  48  49
BRANCH  48  58
ATOM     58  C   UNL     1      -7.999  -2.583   4.550  1.00  0.00     0.326 C 
ATOM     59  O   UNL     1      -7.082  -2.689   5.349  1.00  0.00    -0.250 OA
BRANCH  58  60
ATOM     60  O   UNL     1      -9.238  -3.011   4.904  1.00  0.00    -0.480 OA
ATOM     61  H   UNL     1      -9.521  -2.354   5.576  1.00  0.00     0.296 HD
ENDBRANCH  58  60
ENDBRANCH  48  58
ENDBRANCH  46  48
ENDBRANCH  34  44
ENDBRANCH  32  34
ENDBRANCH  25  30
ENDBRANCH  23  25
ENDBRANCH   2  23
TORSDOF 28
ENDMDL
MODEL 14
REMARK VINA RESULT:    -5.844      1.551      2.469
REMARK INTER + INTRA:         -19.135
REMARK INTER:                 -14.008
REMARK INTRA:                  -5.127
REMARK UNBOUND:                -4.579
REMARK SMILES CCCCCCC[C@H](N)[C@H](O)C(=O)N[C@H](C)C(=O)N(C)[C@H](CC(C)C)C(=O)N[C@@H](Cc1ccc(O)cc1)C(=O)N[C@@H](Cc1ccc(O)cc1)C(=O)O
REMARK SMILES IDX 18 1 17 2 15 3 16 4 14 5 12 6 13 7 10 9 11 10 8 12 9 13 7 16
REMARK SMILES IDX 6 17 5 18 4 19 3 20 2 21 1 22 19 23 20 24 21 25 22 26 23 27
REMARK SMILES IDX 24 28 25 29 26 30 27 31 28 32 29 34 30 35 31 36 32 37 37 38
REMARK SMILES IDX 33 39 36 40 34 41 35 42 38 44 39 45 40 46 41 48 42 49 43 50
REMARK SMILES IDX 44 51 49 52 45 53 48 54 46 55 47 56 50 58 51 59 52 60
REMARK H PARENT 14 8 11 11 9 14 9 15 28 33 35 43 40 47 47 57 52 61
ROOT
ATOM      1  O   UNL     1     -13.067  -5.183   4.289  1.00  0.00    -0.272 OA
ATOM      2  C   UNL     1     -12.984  -6.411   4.441  1.00  0.00     0.245 C 
ENDROOT
BRANCH   2   3
ATOM      3  C   UNL     1     -12.785  -7.301   3.189  1.00  0.00     0.168 C 
ATOM      4  C   UNL     1     -13.518  -8.629   3.347  1.00  0.00     0.041 C 
BRANCH   3   5
ATOM      5  N   UNL     1     -13.098  -6.656   1.924  1.00  0.00    -0.342 N 
ATOM      6  C   UNL     1     -12.121  -6.349   1.001  1.00  0.00     0.251 C 
ATOM      7  O   UNL     1     -10.926  -6.555   1.188  1.00  0.00    -0.272 OA
ATOM      8  H   UNL     1     -14.051  -6.405   1.672  1.00  0.00     0.164 HD
BRANCH   6   9
ATOM      9  C   UNL     1     -12.696  -5.805  -0.316  1.00  0.00     0.219 C 
BRANCH   9  10
ATOM     10  O   UNL     1     -14.043  -6.235  -0.550  1.00  0.00    -0.382 OA
ATOM     11  H   UNL     1     -13.937  -7.015  -1.139  1.00  0.00     0.211 HD
ENDBRANCH   9  10
BRANCH   9  12
ATOM     12  C   UNL     1     -12.582  -4.263  -0.439  1.00  0.00     0.089 C 
BRANCH  12  13
ATOM     13  N   UNL     1     -12.494  -3.690   0.923  1.00  0.00    -0.325 NA
ATOM     14  H   UNL     1     -11.599  -3.951   1.340  1.00  0.00     0.119 HD
ATOM     15  H   UNL     1     -13.202  -4.132   1.514  1.00  0.00     0.119 HD
ENDBRANCH  12  13
BRANCH  12  16
ATOM     16  C   UNL     1     -11.417  -3.738  -1.313  1.00  0.00     0.022 C 
BRANCH  16  17
ATOM     17  C   UNL     1     -11.723  -2.757  -2.454  1.00  0.00     0.002 C 
BRANCH  17  18
ATOM     18  C   UNL     1     -11.793  -1.289  -2.040  1.00  0.00     0.000 C 
BRANCH  18  19
ATOM     19  C   UNL     1     -10.912  -0.936  -0.835  1.00  0.00    -0.000 C 
BRANCH  19  20
ATOM     20  C   UNL     1     -11.497   0.114   0.113  1.00  0.00    -0.000 C 
BRANCH  20  21
ATOM     21  C   UNL     1     -10.432   1.028   0.727  1.00  0.00    -0.003 C 
ATOM     22  C   UNL     1      -9.093   0.867   0.025  1.00  0.00     0.004 C 
ENDBRANCH  20  21
ENDBRANCH  19  20
ENDBRANCH  18  19
ENDBRANCH  17  18
ENDBRANCH  16  17
ENDBRANCH  12  16
ENDBRANCH   9  12
ENDBRANCH   6   9
ENDBRANCH   3   5
ENDBRANCH   2   3
BRANCH   2  23
ATOM     23  N   UNL     1     -12.948  -6.952   5.722  1.00  0.00    -0.332 N 
ATOM     24  C   UNL     1     -14.101  -7.499   6.421  1.00  0.00     0.147 C 
BRANCH  23  25
ATOM     25  C   UNL     1     -11.648  -7.123   6.429  1.00  0.00     0.174 C 
BRANCH  25  26
ATOM     26  C   UNL     1     -11.597  -8.405   7.293  1.00  0.00     0.038 C 
BRANCH  26  27
ATOM     27  C   UNL     1     -10.966  -9.659   6.647  1.00  0.00    -0.015 C 
ATOM     28  C   UNL     1     -10.147  -9.325   5.401  1.00  0.00     0.007 C 
ATOM     29  C   UNL     1     -10.142 -10.495   7.623  1.00  0.00     0.007 C 
ENDBRANCH  26  27
ENDBRANCH  25  26
BRANCH  25  30
ATOM     30  C   UNL     1     -11.292  -5.835   7.206  1.00  0.00     0.243 C 
ATOM     31  O   UNL     1     -12.045  -5.358   8.054  1.00  0.00    -0.273 OA
ATOM     32  N   UNL     1     -10.090  -5.260   6.883  1.00  0.00    -0.342 N 
ATOM     33  H   UNL     1      -9.460  -5.789   6.274  1.00  0.00     0.164 HD
BRANCH  32  34
ATOM     34  C   UNL     1      -9.602  -4.022   7.497  1.00  0.00     0.175 C 
BRANCH  34  35
ATOM     35  C   UNL     1      -8.694  -4.316   8.701  1.00  0.00     0.070 C 
BRANCH  35  36
ATOM     36  C   UNL     1      -8.994  -3.431   9.890  1.00  0.00    -0.045 A 
ATOM     37  C   UNL     1     -10.321  -3.089  10.192  1.00  0.00     0.007 A 
ATOM     38  C   UNL     1      -7.960  -2.924  10.688  1.00  0.00     0.007 A 
ATOM     39  C   UNL     1     -10.607  -2.261  11.279  1.00  0.00     0.046 A 
ATOM     40  C   UNL     1      -8.246  -2.095  11.775  1.00  0.00     0.046 A 
ATOM     41  C   UNL     1      -9.568  -1.772  12.061  1.00  0.00     0.115 A 
BRANCH  41  42
ATOM     42  O   UNL     1      -9.890  -0.964  13.112  1.00  0.00    -0.508 OA
ATOM     43  H   UNL     1      -9.076  -0.765  13.603  1.00  0.00     0.293 HD
ENDBRANCH  41  42
ENDBRANCH  35  36
ENDBRANCH  34  35
BRANCH  34  44
ATOM     44  C   UNL     1      -8.871  -3.204   6.409  1.00  0.00     0.243 C 
ATOM     45  O   UNL     1      -7.652  -3.172   6.267  1.00  0.00    -0.273 OA
ATOM     46  N   UNL     1      -9.711  -2.392   5.676  1.00  0.00    -0.341 N 
ATOM     47  H   UNL     1     -10.700  -2.366   5.909  1.00  0.00     0.164 HD
BRANCH  46  48
ATOM     48  C   UNL     1      -9.239  -1.475   4.636  1.00  0.00     0.196 C 
BRANCH  48  49
ATOM     49  C   UNL     1      -9.647  -1.961   3.234  1.00  0.00     0.072 C 
BRANCH  49  50
ATOM     50  C   UNL     1      -8.461  -2.153   2.317  1.00  0.00    -0.045 A 
ATOM     51  C   UNL     1      -8.653  -2.656   1.022  1.00  0.00     0.007 A 
ATOM     52  C   UNL     1      -7.161  -1.857   2.747  1.00  0.00     0.007 A 
ATOM     53  C   UNL     1      -7.565  -2.850   0.171  1.00  0.00     0.046 A 
ATOM     54  C   UNL     1      -6.072  -2.052   1.896  1.00  0.00     0.046 A 
ATOM     55  C   UNL     1      -6.283  -2.547   0.614  1.00  0.00     0.115 A 
BRANCH  55  56
ATOM     56  O   UNL     1      -5.247  -2.753  -0.248  1.00  0.00    -0.508 OA
ATOM     57  H   UNL     1      -4.419  -2.724   0.257  1.00  0.00     0.293 HD
ENDBRANCH  55  56
ENDBRANCH  49  50
ENDBRANCH  48  49
BRANCH  48  58
ATOM     58  C   UNL     1      -9.832  -0.083   4.891  1.00  0.00     0.326 C 
ATOM     59  O   UNL     1     -10.641   0.515   4.199  1.00  0.00    -0.250 OA
BRANCH  58  60
ATOM     60  O   UNL     1      -9.384   0.495   6.034  1.00  0.00    -0.480 OA
ATOM     61  H   UNL     1      -9.035   1.360   5.727  1.00  0.00     0.296 HD
ENDBRANCH  58  60
ENDBRANCH  48  58
ENDBRANCH  46  48
ENDBRANCH  34  44
ENDBRANCH  32  34
ENDBRANCH  25  30
ENDBRANCH  23  25
ENDBRANCH   2  23
TORSDOF 28
ENDMDL
MODEL 15
REMARK VINA RESULT:    -5.831     14.755     18.038
REMARK INTER + INTRA:         -19.101
REMARK INTER:                 -12.757
REMARK INTRA:                  -6.344
REMARK UNBOUND:                -4.579
REMARK SMILES CCCCCCC[C@H](N)[C@H](O)C(=O)N[C@H](C)C(=O)N(C)[C@H](CC(C)C)C(=O)N[C@@H](Cc1ccc(O)cc1)C(=O)N[C@@H](Cc1ccc(O)cc1)C(=O)O
REMARK SMILES IDX 18 1 17 2 15 3 16 4 14 5 12 6 13 7 10 9 11 10 8 12 9 13 7 16
REMARK SMILES IDX 6 17 5 18 4 19 3 20 2 21 1 22 19 23 20 24 21 25 22 26 23 27
REMARK SMILES IDX 24 28 25 29 26 30 27 31 28 32 29 34 30 35 31 36 32 37 37 38
REMARK SMILES IDX 33 39 36 40 34 41 35 42 38 44 39 45 40 46 41 48 42 49 43 50
REMARK SMILES IDX 44 51 49 52 45 53 48 54 46 55 47 56 50 58 51 59 52 60
REMARK H PARENT 14 8 11 11 9 14 9 15 28 33 35 43 40 47 47 57 52 61
ROOT
ATOM      1  O   UNL     1      -2.184 -10.797  -6.944  1.00  0.00    -0.272 OA
ATOM      2  C   UNL     1      -2.932 -11.747  -6.674  1.00  0.00     0.245 C 
ENDROOT
BRANCH   2   3
ATOM      3  C   UNL     1      -3.714 -12.426  -7.827  1.00  0.00     0.168 C 
ATOM      4  C   UNL     1      -5.192 -12.558  -7.476  1.00  0.00     0.041 C 
BRANCH   3   5
ATOM      5  N   UNL     1      -3.519 -11.822  -9.136  1.00  0.00    -0.342 N 
ATOM      6  C   UNL     1      -2.451 -12.155  -9.940  1.00  0.00     0.251 C 
ATOM      7  O   UNL     1      -1.572 -12.943  -9.606  1.00  0.00    -0.272 OA
ATOM      8  H   UNL     1      -4.165 -11.128  -9.507  1.00  0.00     0.164 HD
BRANCH   6   9
ATOM      9  C   UNL     1      -2.526 -11.503 -11.330  1.00  0.00     0.219 C 
BRANCH   9  10
ATOM     10  O   UNL     1      -3.676 -11.921 -12.075  1.00  0.00    -0.382 OA
ATOM     11  H   UNL     1      -3.349 -11.964 -13.000  1.00  0.00     0.211 HD
ENDBRANCH   9  10
BRANCH   9  12
ATOM     12  C   UNL     1      -2.434  -9.955 -11.282  1.00  0.00     0.089 C 
BRANCH  12  13
ATOM     13  N   UNL     1      -3.772  -9.417 -10.945  1.00  0.00    -0.325 NA
ATOM     14  H   UNL     1      -4.107  -9.862 -10.089  1.00  0.00     0.119 HD
ATOM     15  H   UNL     1      -4.435  -9.701 -11.671  1.00  0.00     0.119 HD
ENDBRANCH  12  13
BRANCH  12  16
ATOM     16  C   UNL     1      -1.369  -9.369 -10.324  1.00  0.00     0.022 C 
BRANCH  16  17
ATOM     17  C   UNL     1      -1.673  -8.061  -9.580  1.00  0.00     0.002 C 
BRANCH  17  18
ATOM     18  C   UNL     1      -1.183  -6.794 -10.277  1.00  0.00     0.000 C 
BRANCH  18  19
ATOM     19  C   UNL     1       0.108  -6.985 -11.085  1.00  0.00    -0.000 C 
BRANCH  19  20
ATOM     20  C   UNL     1       0.838  -5.692 -11.460  1.00  0.00    -0.000 C 
BRANCH  20  21
ATOM     21  C   UNL     1       0.327  -5.071 -12.762  1.00  0.00    -0.003 C 
ATOM     22  C   UNL     1       0.677  -3.594 -12.846  1.00  0.00     0.004 C 
ENDBRANCH  20  21
ENDBRANCH  19  20
ENDBRANCH  18  19
ENDBRANCH  17  18
ENDBRANCH  16  17
ENDBRANCH  12  16
ENDBRANCH   9  12
ENDBRANCH   6   9
ENDBRANCH   3   5
ENDBRANCH   2   3
BRANCH   2  23
ATOM     23  N   UNL     1      -2.966 -12.261  -5.382  1.00  0.00    -0.332 N 
ATOM     24  C   UNL     1      -3.492 -11.553  -4.225  1.00  0.00     0.147 C 
BRANCH  23  25
ATOM     25  C   UNL     1      -2.564 -13.671  -5.124  1.00  0.00     0.174 C 
BRANCH  25  26
ATOM     26  C   UNL     1      -3.653 -14.482  -4.384  1.00  0.00     0.038 C 
BRANCH  26  27
ATOM     27  C   UNL     1      -4.293 -15.660  -5.153  1.00  0.00    -0.015 C 
ATOM     28  C   UNL     1      -5.811 -15.526  -5.269  1.00  0.00     0.007 C 
ATOM     29  C   UNL     1      -3.668 -15.901  -6.525  1.00  0.00     0.007 C 
ENDBRANCH  26  27
ENDBRANCH  25  26
BRANCH  25  30
ATOM     30  C   UNL     1      -1.181 -13.713  -4.434  1.00  0.00     0.243 C 
ATOM     31  O   UNL     1      -1.044 -14.108  -3.277  1.00  0.00    -0.273 OA
ATOM     32  N   UNL     1      -0.126 -13.275  -5.192  1.00  0.00    -0.342 N 
ATOM     33  H   UNL     1      -0.298 -13.097  -6.185  1.00  0.00     0.164 HD
BRANCH  32  34
ATOM     34  C   UNL     1       1.251 -13.218  -4.693  1.00  0.00     0.175 C 
BRANCH  34  35
ATOM     35  C   UNL     1       2.180 -14.126  -5.512  1.00  0.00     0.070 C 
BRANCH  35  36
ATOM     36  C   UNL     1       2.460 -13.582  -6.895  1.00  0.00    -0.045 A 
ATOM     37  C   UNL     1       1.500 -13.715  -7.910  1.00  0.00     0.007 A 
ATOM     38  C   UNL     1       3.681 -12.961  -7.189  1.00  0.00     0.007 A 
ATOM     39  C   UNL     1       1.755 -13.228  -9.192  1.00  0.00     0.046 A 
ATOM     40  C   UNL     1       3.938 -12.474  -8.473  1.00  0.00     0.046 A 
ATOM     41  C   UNL     1       2.971 -12.611  -9.463  1.00  0.00     0.115 A 
BRANCH  41  42
ATOM     42  O   UNL     1       3.181 -12.152 -10.730  1.00  0.00    -0.508 OA
ATOM     43  H   UNL     1       3.143 -11.181 -10.712  1.00  0.00     0.293 HD
ENDBRANCH  41  42
ENDBRANCH  35  36
ENDBRANCH  34  35
BRANCH  34  44
ATOM     44  C   UNL     1       1.710 -11.743  -4.724  1.00  0.00     0.243 C 
ATOM     45  O   UNL     1       2.649 -11.295  -4.071  1.00  0.00    -0.273 OA
ATOM     46  N   UNL     1       0.881 -10.925  -5.462  1.00  0.00    -0.341 N 
ATOM     47  H   UNL     1       0.049 -11.323  -5.890  1.00  0.00     0.164 HD
BRANCH  46  48
ATOM     48  C   UNL     1       1.075  -9.478  -5.582  1.00  0.00     0.196 C 
BRANCH  48  49
ATOM     49  C   UNL     1       0.543  -8.952  -6.925  1.00  0.00     0.072 C 
BRANCH  49  50
ATOM     50  C   UNL     1       1.633  -8.368  -7.795  1.00  0.00    -0.045 A 
ATOM     51  C   UNL     1       2.143  -9.110  -8.870  1.00  0.00     0.007 A 
ATOM     52  C   UNL     1       2.162  -7.098  -7.532  1.00  0.00     0.007 A 
ATOM     53  C   UNL     1       3.158  -8.587  -9.671  1.00  0.00     0.046 A 
ATOM     54  C   UNL     1       3.179  -6.574  -8.333  1.00  0.00     0.046 A 
ATOM     55  C   UNL     1       3.668  -7.324  -9.398  1.00  0.00     0.115 A 
BRANCH  55  56
ATOM     56  O   UNL     1       4.661  -6.850 -10.203  1.00  0.00    -0.508 OA
ATOM     57  H   UNL     1       4.286  -6.678 -11.082  1.00  0.00     0.293 HD
ENDBRANCH  55  56
ENDBRANCH  49  50
ENDBRANCH  48  49
BRANCH  48  58
ATOM     58  C   UNL     1       0.344  -8.779  -4.428  1.00  0.00     0.326 C 
ATOM     59  O   UNL     1       0.844  -8.165  -3.500  1.00  0.00    -0.250 OA
BRANCH  58  60
ATOM     60  O   UNL     1      -1.008  -8.875  -4.507  1.00  0.00    -0.480 OA
ATOM     61  H   UNL     1      -1.318  -8.048  -4.079  1.00  0.00     0.296 HD
ENDBRANCH  58  60
ENDBRANCH  48  58
ENDBRANCH  46  48
ENDBRANCH  34  44
ENDBRANCH  32  34
ENDBRANCH  25  30
ENDBRANCH  23  25
ENDBRANCH   2  23
TORSDOF 28
ENDMDL
MODEL 16
REMARK VINA RESULT:    -5.790     13.387     18.279
REMARK INTER + INTRA:         -19.000
REMARK INTER:                 -12.670
REMARK INTRA:                  -6.331
REMARK UNBOUND:                -4.579
REMARK SMILES CCCCCCC[C@H](N)[C@H](O)C(=O)N[C@H](C)C(=O)N(C)[C@H](CC(C)C)C(=O)N[C@@H](Cc1ccc(O)cc1)C(=O)N[C@@H](Cc1ccc(O)cc1)C(=O)O
REMARK SMILES IDX 18 1 17 2 15 3 16 4 14 5 12 6 13 7 10 9 11 10 8 12 9 13 7 16
REMARK SMILES IDX 6 17 5 18 4 19 3 20 2 21 1 22 19 23 20 24 21 25 22 26 23 27
REMARK SMILES IDX 24 28 25 29 26 30 27 31 28 32 29 34 30 35 31 36 32 37 37 38
REMARK SMILES IDX 33 39 36 40 34 41 35 42 38 44 39 45 40 46 41 48 42 49 43 50
REMARK SMILES IDX 44 51 49 52 45 53 48 54 46 55 47 56 50 58 51 59 52 60
REMARK H PARENT 14 8 11 11 9 14 9 15 28 33 35 43 40 47 47 57 52 61
ROOT
ATOM      1  O   UNL     1      -0.524   6.958  -9.192  1.00  0.00    -0.272 OA
ATOM      2  C   UNL     1       0.073   5.875  -9.107  1.00  0.00     0.245 C 
ENDROOT
BRANCH   2   3
ATOM      3  C   UNL     1      -0.758   4.568  -9.123  1.00  0.00     0.168 C 
ATOM      4  C   UNL     1      -0.820   3.982 -10.529  1.00  0.00     0.041 C 
BRANCH   3   5
ATOM      5  N   UNL     1      -0.354   3.575  -8.139  1.00  0.00    -0.342 N 
ATOM      6  C   UNL     1      -1.220   3.117  -7.169  1.00  0.00     0.251 C 
ATOM      7  O   UNL     1      -2.366   3.533  -7.034  1.00  0.00    -0.272 OA
ATOM      8  H   UNL     1       0.583   3.180  -8.129  1.00  0.00     0.164 HD
BRANCH   6   9
ATOM      9  C   UNL     1      -0.626   1.971  -6.334  1.00  0.00     0.219 C 
BRANCH   9  10
ATOM     10  O   UNL     1       0.807   1.970  -6.340  1.00  0.00    -0.382 OA
ATOM     11  H   UNL     1       1.041   1.821  -5.397  1.00  0.00     0.211 HD
ENDBRANCH   9  10
BRANCH   9  12
ATOM     12  C   UNL     1      -1.171   1.929  -4.883  1.00  0.00     0.089 C 
BRANCH  12  13
ATOM     13  N   UNL     1      -0.522   0.804  -4.172  1.00  0.00    -0.325 NA
ATOM     14  H   UNL     1       0.485   0.972  -4.125  1.00  0.00     0.119 HD
ATOM     15  H   UNL     1      -0.624  -0.045  -4.733  1.00  0.00     0.119 HD
ENDBRANCH  12  13
BRANCH  12  16
ATOM     16  C   UNL     1      -1.020   3.233  -4.063  1.00  0.00     0.022 C 
BRANCH  16  17
ATOM     17  C   UNL     1      -1.468   3.250  -2.595  1.00  0.00     0.002 C 
BRANCH  17  18
ATOM     18  C   UNL     1      -2.779   3.986  -2.330  1.00  0.00     0.000 C 
BRANCH  18  19
ATOM     19  C   UNL     1      -3.873   3.108  -1.708  1.00  0.00    -0.000 C 
BRANCH  19  20
ATOM     20  C   UNL     1      -4.168   1.807  -2.459  1.00  0.00    -0.000 C 
BRANCH  20  21
ATOM     21  C   UNL     1      -5.257   1.963  -3.523  1.00  0.00    -0.003 C 
ATOM     22  C   UNL     1      -6.416   2.806  -3.013  1.00  0.00     0.004 C 
ENDBRANCH  20  21
ENDBRANCH  19  20
ENDBRANCH  18  19
ENDBRANCH  17  18
ENDBRANCH  16  17
ENDBRANCH  12  16
ENDBRANCH   9  12
ENDBRANCH   6   9
ENDBRANCH   3   5
ENDBRANCH   2   3
BRANCH   2  23
ATOM     23  N   UNL     1       1.464   5.843  -9.122  1.00  0.00    -0.332 N 
ATOM     24  C   UNL     1       2.272   5.636 -10.315  1.00  0.00     0.147 C 
BRANCH  23  25
ATOM     25  C   UNL     1       2.236   6.158  -7.889  1.00  0.00     0.174 C 
BRANCH  25  26
ATOM     26  C   UNL     1       3.640   5.510  -7.876  1.00  0.00     0.038 C 
BRANCH  26  27
ATOM     27  C   UNL     1       4.853   6.467  -7.880  1.00  0.00    -0.015 C 
ATOM     28  C   UNL     1       4.920   7.331  -6.621  1.00  0.00     0.007 C 
ATOM     29  C   UNL     1       6.185   5.759  -8.117  1.00  0.00     0.007 C 
ENDBRANCH  26  27
ENDBRANCH  25  26
BRANCH  25  30
ATOM     30  C   UNL     1       1.391   5.835  -6.636  1.00  0.00     0.243 C 
ATOM     31  O   UNL     1       1.550   4.798  -5.994  1.00  0.00    -0.273 OA
ATOM     32  N   UNL     1       0.453   6.776  -6.294  1.00  0.00    -0.342 N 
ATOM     33  H   UNL     1       0.478   7.671  -6.789  1.00  0.00     0.164 HD
BRANCH  32  34
ATOM     34  C   UNL     1      -0.454   6.626  -5.153  1.00  0.00     0.175 C 
BRANCH  34  35
ATOM     35  C   UNL     1      -0.008   7.493  -3.966  1.00  0.00     0.070 C 
BRANCH  35  36
ATOM     36  C   UNL     1       0.308   6.678  -2.732  1.00  0.00    -0.045 A 
ATOM     37  C   UNL     1      -0.509   6.781  -1.595  1.00  0.00     0.007 A 
ATOM     38  C   UNL     1       1.424   5.832  -2.695  1.00  0.00     0.007 A 
ATOM     39  C   UNL     1      -0.218   6.044  -0.447  1.00  0.00     0.046 A 
ATOM     40  C   UNL     1       1.716   5.094  -1.545  1.00  0.00     0.046 A 
ATOM     41  C   UNL     1       0.891   5.206  -0.432  1.00  0.00     0.115 A 
BRANCH  41  42
ATOM     42  O   UNL     1       1.142   4.506   0.711  1.00  0.00    -0.508 OA
ATOM     43  H   UNL     1       1.740   5.033   1.266  1.00  0.00     0.293 HD
ENDBRANCH  41  42
ENDBRANCH  35  36
ENDBRANCH  34  35
BRANCH  34  44
ATOM     44  C   UNL     1      -1.881   6.984  -5.626  1.00  0.00     0.243 C 
ATOM     45  O   UNL     1      -2.197   8.060  -6.125  1.00  0.00    -0.273 OA
ATOM     46  N   UNL     1      -2.819   6.021  -5.317  1.00  0.00    -0.341 N 
ATOM     47  H   UNL     1      -2.528   5.197  -4.798  1.00  0.00     0.164 HD
BRANCH  46  48
ATOM     48  C   UNL     1      -4.248   6.168  -5.605  1.00  0.00     0.196 C 
BRANCH  48  49
ATOM     49  C   UNL     1      -4.942   4.799  -5.704  1.00  0.00     0.072 C 
BRANCH  49  50
ATOM     50  C   UNL     1      -5.946   4.736  -6.832  1.00  0.00    -0.045 A 
ATOM     51  C   UNL     1      -5.761   5.524  -7.978  1.00  0.00     0.007 A 
ATOM     52  C   UNL     1      -7.078   3.916  -6.745  1.00  0.00     0.007 A 
ATOM     53  C   UNL     1      -6.688   5.484  -9.019  1.00  0.00     0.046 A 
ATOM     54  C   UNL     1      -8.007   3.877  -7.787  1.00  0.00     0.046 A 
ATOM     55  C   UNL     1      -7.803   4.662  -8.917  1.00  0.00     0.115 A 
BRANCH  55  56
ATOM     56  O   UNL     1      -8.686   4.653  -9.956  1.00  0.00    -0.508 OA
ATOM     57  H   UNL     1      -8.723   5.547 -10.333  1.00  0.00     0.293 HD
ENDBRANCH  55  56
ENDBRANCH  49  50
ENDBRANCH  48  49
BRANCH  48  58
ATOM     58  C   UNL     1      -4.899   6.996  -4.489  1.00  0.00     0.326 C 
ATOM     59  O   UNL     1      -5.321   6.590  -3.418  1.00  0.00    -0.250 OA
BRANCH  58  60
ATOM     60  O   UNL     1      -4.977   8.320  -4.772  1.00  0.00    -0.480 OA
ATOM     61  H   UNL     1      -5.504   8.344  -5.600  1.00  0.00     0.296 HD
ENDBRANCH  58  60
ENDBRANCH  48  58
ENDBRANCH  46  48
ENDBRANCH  34  44
ENDBRANCH  32  34
ENDBRANCH  25  30
ENDBRANCH  23  25
ENDBRANCH   2  23
TORSDOF 28
ENDMDL
MODEL 17
REMARK VINA RESULT:    -5.764      2.791      8.439
REMARK INTER + INTRA:         -18.935
REMARK INTER:                 -13.305
REMARK INTRA:                  -5.631
REMARK UNBOUND:                -4.579
REMARK SMILES CCCCCCC[C@H](N)[C@H](O)C(=O)N[C@H](C)C(=O)N(C)[C@H](CC(C)C)C(=O)N[C@@H](Cc1ccc(O)cc1)C(=O)N[C@@H](Cc1ccc(O)cc1)C(=O)O
REMARK SMILES IDX 18 1 17 2 15 3 16 4 14 5 12 6 13 7 10 9 11 10 8 12 9 13 7 16
REMARK SMILES IDX 6 17 5 18 4 19 3 20 2 21 1 22 19 23 20 24 21 25 22 26 23 27
REMARK SMILES IDX 24 28 25 29 26 30 27 31 28 32 29 34 30 35 31 36 32 37 37 38
REMARK SMILES IDX 33 39 36 40 34 41 35 42 38 44 39 45 40 46 41 48 42 49 43 50
REMARK SMILES IDX 44 51 49 52 45 53 48 54 46 55 47 56 50 58 51 59 52 60
REMARK H PARENT 14 8 11 11 9 14 9 15 28 33 35 43 40 47 47 57 52 61
ROOT
ATOM      1  O   UNL     1     -10.552  -5.014   0.898  1.00  0.00    -0.272 OA
ATOM      2  C   UNL     1     -11.644  -4.715   1.403  1.00  0.00     0.245 C 
ENDROOT
BRANCH   2   3
ATOM      3  C   UNL     1     -11.955  -5.206   2.839  1.00  0.00     0.168 C 
ATOM      4  C   UNL     1     -11.764  -6.715   2.949  1.00  0.00     0.041 C 
BRANCH   3   5
ATOM      5  N   UNL     1     -11.252  -4.493   3.894  1.00  0.00    -0.342 N 
ATOM      6  C   UNL     1     -11.816  -4.290   5.136  1.00  0.00     0.251 C 
ATOM      7  O   UNL     1     -12.950  -4.652   5.432  1.00  0.00    -0.272 OA
ATOM      8  H   UNL     1     -10.318  -4.115   3.756  1.00  0.00     0.164 HD
BRANCH   6   9
ATOM      9  C   UNL     1     -10.841  -3.642   6.133  1.00  0.00     0.219 C 
BRANCH   9  10
ATOM     10  O   UNL     1     -11.409  -2.512   6.805  1.00  0.00    -0.382 OA
ATOM     11  H   UNL     1     -11.643  -1.901   6.072  1.00  0.00     0.211 HD
ENDBRANCH   9  10
BRANCH   9  12
ATOM     12  C   UNL     1     -10.253  -4.651   7.153  1.00  0.00     0.089 C 
BRANCH  12  13
ATOM     13  N   UNL     1     -10.336  -6.009   6.568  1.00  0.00    -0.325 NA
ATOM     14  H   UNL     1      -9.487  -6.528   6.802  1.00  0.00     0.119 HD
ATOM     15  H   UNL     1     -10.328  -5.931   5.548  1.00  0.00     0.119 HD
ENDBRANCH  12  13
BRANCH  12  16
ATOM     16  C   UNL     1      -8.809  -4.367   7.633  1.00  0.00     0.022 C 
BRANCH  16  17
ATOM     17  C   UNL     1      -8.566  -3.230   8.636  1.00  0.00     0.002 C 
BRANCH  17  18
ATOM     18  C   UNL     1      -8.729  -3.620  10.104  1.00  0.00     0.000 C 
BRANCH  18  19
ATOM     19  C   UNL     1      -7.775  -2.887  11.055  1.00  0.00    -0.000 C 
BRANCH  19  20
ATOM     20  C   UNL     1      -8.369  -1.662  11.756  1.00  0.00    -0.000 C 
BRANCH  20  21
ATOM     21  C   UNL     1      -8.217  -0.373  10.943  1.00  0.00    -0.003 C 
ATOM     22  C   UNL     1      -9.524   0.015  10.269  1.00  0.00     0.004 C 
ENDBRANCH  20  21
ENDBRANCH  19  20
ENDBRANCH  18  19
ENDBRANCH  17  18
ENDBRANCH  16  17
ENDBRANCH  12  16
ENDBRANCH   9  12
ENDBRANCH   6   9
ENDBRANCH   3   5
ENDBRANCH   2   3
BRANCH   2  23
ATOM     23  N   UNL     1     -12.509  -3.856   0.734  1.00  0.00    -0.332 N 
ATOM     24  C   UNL     1     -13.956  -4.002   0.701  1.00  0.00     0.147 C 
BRANCH  23  25
ATOM     25  C   UNL     1     -11.989  -2.618   0.092  1.00  0.00     0.174 C 
BRANCH  25  26
ATOM     26  C   UNL     1     -11.137  -2.904  -1.167  1.00  0.00     0.038 C 
BRANCH  26  27
ATOM     27  C   UNL     1     -11.677  -2.374  -2.514  1.00  0.00    -0.015 C 
ATOM     28  C   UNL     1     -12.797  -3.247  -3.079  1.00  0.00     0.007 C 
ATOM     29  C   UNL     1     -12.113  -0.911  -2.460  1.00  0.00     0.007 C 
ENDBRANCH  26  27
ENDBRANCH  25  26
BRANCH  25  30
ATOM     30  C   UNL     1     -11.272  -1.736   1.140  1.00  0.00     0.243 C 
ATOM     31  O   UNL     1     -11.895  -1.084   1.977  1.00  0.00    -0.273 OA
ATOM     32  N   UNL     1      -9.903  -1.724   1.069  1.00  0.00    -0.342 N 
ATOM     33  H   UNL     1      -9.455  -2.398   0.441  1.00  0.00     0.164 HD
BRANCH  32  34
ATOM     34  C   UNL     1      -9.060  -0.925   1.962  1.00  0.00     0.175 C 
BRANCH  34  35
ATOM     35  C   UNL     1      -8.871  -1.619   3.320  1.00  0.00     0.070 C 
BRANCH  35  36
ATOM     36  C   UNL     1      -8.775  -0.640   4.469  1.00  0.00    -0.045 A 
ATOM     37  C   UNL     1      -9.107   0.709   4.271  1.00  0.00     0.007 A 
ATOM     38  C   UNL     1      -8.335  -1.055   5.732  1.00  0.00     0.007 A 
ATOM     39  C   UNL     1      -9.008   1.623   5.321  1.00  0.00     0.046 A 
ATOM     40  C   UNL     1      -8.235  -0.141   6.784  1.00  0.00     0.046 A 
ATOM     41  C   UNL     1      -8.574   1.191   6.568  1.00  0.00     0.115 A 
BRANCH  41  42
ATOM     42  O   UNL     1      -8.489   2.116   7.566  1.00  0.00    -0.508 OA
ATOM     43  H   UNL     1      -8.740   1.687   8.401  1.00  0.00     0.293 HD
ENDBRANCH  41  42
ENDBRANCH  35  36
ENDBRANCH  34  35
BRANCH  34  44
ATOM     44  C   UNL     1      -7.712  -0.672   1.251  1.00  0.00     0.243 C 
ATOM     45  O   UNL     1      -7.562   0.089   0.299  1.00  0.00    -0.273 OA
ATOM     46  N   UNL     1      -6.694  -1.487   1.698  1.00  0.00    -0.341 N 
ATOM     47  H   UNL     1      -6.896  -2.185   2.410  1.00  0.00     0.164 HD
BRANCH  46  48
ATOM     48  C   UNL     1      -5.345  -1.478   1.129  1.00  0.00     0.196 C 
BRANCH  48  49
ATOM     49  C   UNL     1      -4.278  -1.272   2.218  1.00  0.00     0.072 C 
BRANCH  49  50
ATOM     50  C   UNL     1      -4.644  -0.174   3.190  1.00  0.00    -0.045 A 
ATOM     51  C   UNL     1      -4.924   1.116   2.715  1.00  0.00     0.007 A 
ATOM     52  C   UNL     1      -4.688  -0.417   4.569  1.00  0.00     0.007 A 
ATOM     53  C   UNL     1      -5.250   2.140   3.603  1.00  0.00     0.046 A 
ATOM     54  C   UNL     1      -5.013   0.610   5.459  1.00  0.00     0.046 A 
ATOM     55  C   UNL     1      -5.292   1.880   4.968  1.00  0.00     0.115 A 
BRANCH  55  56
ATOM     56  O   UNL     1      -5.613   2.909   5.803  1.00  0.00    -0.508 OA
ATOM     57  H   UNL     1      -5.664   2.564   6.708  1.00  0.00     0.293 HD
ENDBRANCH  55  56
ENDBRANCH  49  50
ENDBRANCH  48  49
BRANCH  48  58
ATOM     58  C   UNL     1      -5.097  -2.812   0.411  1.00  0.00     0.326 C 
ATOM     59  O   UNL     1      -4.099  -3.143  -0.209  1.00  0.00    -0.250 OA
BRANCH  58  60
ATOM     60  O   UNL     1      -6.129  -3.686   0.521  1.00  0.00    -0.480 OA
ATOM     61  H   UNL     1      -6.918  -3.125   0.359  1.00  0.00     0.296 HD
ENDBRANCH  58  60
ENDBRANCH  48  58
ENDBRANCH  46  48
ENDBRANCH  34  44
ENDBRANCH  32  34
ENDBRANCH  25  30
ENDBRANCH  23  25
ENDBRANCH   2  23
TORSDOF 28
ENDMDL
MODEL 18
REMARK VINA RESULT:    -5.760      2.204      8.508
REMARK INTER + INTRA:         -18.927
REMARK INTER:                 -15.139
REMARK INTRA:                  -3.788
REMARK UNBOUND:                -4.579
REMARK SMILES CCCCCCC[C@H](N)[C@H](O)C(=O)N[C@H](C)C(=O)N(C)[C@H](CC(C)C)C(=O)N[C@@H](Cc1ccc(O)cc1)C(=O)N[C@@H](Cc1ccc(O)cc1)C(=O)O
REMARK SMILES IDX 18 1 17 2 15 3 16 4 14 5 12 6 13 7 10 9 11 10 8 12 9 13 7 16
REMARK SMILES IDX 6 17 5 18 4 19 3 20 2 21 1 22 19 23 20 24 21 25 22 26 23 27
REMARK SMILES IDX 24 28 25 29 26 30 27 31 28 32 29 34 30 35 31 36 32 37 37 38
REMARK SMILES IDX 33 39 36 40 34 41 35 42 38 44 39 45 40 46 41 48 42 49 43 50
REMARK SMILES IDX 44 51 49 52 45 53 48 54 46 55 47 56 50 58 51 59 52 60
REMARK H PARENT 14 8 11 11 9 14 9 15 28 33 35 43 40 47 47 57 52 61
ROOT
ATOM      1  O   UNL     1     -13.252  -8.845   6.380  1.00  0.00    -0.272 OA
ATOM      2  C   UNL     1     -12.598  -7.885   5.946  1.00  0.00     0.245 C 
ENDROOT
BRANCH   2   3
ATOM      3  C   UNL     1     -11.067  -7.864   6.182  1.00  0.00     0.168 C 
ATOM      4  C   UNL     1     -10.335  -8.570   5.046  1.00  0.00     0.041 C 
BRANCH   3   5
ATOM      5  N   UNL     1     -10.509  -6.548   6.452  1.00  0.00    -0.342 N 
ATOM      6  C   UNL     1     -10.189  -6.141   7.730  1.00  0.00     0.251 C 
ATOM      7  O   UNL     1     -10.385  -6.828   8.727  1.00  0.00    -0.272 OA
ATOM      8  H   UNL     1     -10.334  -5.877   5.708  1.00  0.00     0.164 HD
BRANCH   6   9
ATOM      9  C   UNL     1      -9.484  -4.776   7.760  1.00  0.00     0.219 C 
BRANCH   9  10
ATOM     10  O   UNL     1      -8.847  -4.455   6.517  1.00  0.00    -0.382 OA
ATOM     11  H   UNL     1      -9.552  -4.609   5.850  1.00  0.00     0.211 HD
ENDBRANCH   9  10
BRANCH   9  12
ATOM     12  C   UNL     1     -10.412  -3.621   8.218  1.00  0.00     0.089 C 
BRANCH  12  13
ATOM     13  N   UNL     1     -11.529  -3.509   7.252  1.00  0.00    -0.325 NA
ATOM     14  H   UNL     1     -12.376  -3.228   7.750  1.00  0.00     0.119 HD
ATOM     15  H   UNL     1     -11.736  -4.437   6.876  1.00  0.00     0.119 HD
ENDBRANCH  12  13
BRANCH  12  16
ATOM     16  C   UNL     1     -10.964  -3.725   9.660  1.00  0.00     0.022 C 
BRANCH  16  17
ATOM     17  C   UNL     1     -10.610  -2.630  10.676  1.00  0.00     0.002 C 
BRANCH  17  18
ATOM     18  C   UNL     1      -9.796  -1.467  10.113  1.00  0.00     0.000 C 
BRANCH  18  19
ATOM     19  C   UNL     1      -8.359  -1.395  10.645  1.00  0.00    -0.000 C 
BRANCH  19  20
ATOM     20  C   UNL     1      -8.175  -1.877  12.087  1.00  0.00    -0.000 C 
BRANCH  20  21
ATOM     21  C   UNL     1      -7.167  -3.022  12.212  1.00  0.00    -0.003 C 
ATOM     22  C   UNL     1      -7.040  -3.495  13.652  1.00  0.00     0.004 C 
ENDBRANCH  20  21
ENDBRANCH  19  20
ENDBRANCH  18  19
ENDBRANCH  17  18
ENDBRANCH  16  17
ENDBRANCH  12  16
ENDBRANCH   9  12
ENDBRANCH   6   9
ENDBRANCH   3   5
ENDBRANCH   2   3
BRANCH   2  23
ATOM     23  N   UNL     1     -13.219  -6.919   5.160  1.00  0.00    -0.332 N 
ATOM     24  C   UNL     1     -13.615  -5.601   5.632  1.00  0.00     0.147 C 
BRANCH  23  25
ATOM     25  C   UNL     1     -13.405  -7.144   3.701  1.00  0.00     0.174 C 
BRANCH  25  26
ATOM     26  C   UNL     1     -13.465  -8.644   3.326  1.00  0.00     0.038 C 
BRANCH  26  27
ATOM     27  C   UNL     1     -14.855  -9.225   2.983  1.00  0.00    -0.015 C 
ATOM     28  C   UNL     1     -15.106  -9.290   1.477  1.00  0.00     0.007 C 
ATOM     29  C   UNL     1     -15.122 -10.581   3.631  1.00  0.00     0.007 C 
ENDBRANCH  26  27
ENDBRANCH  25  26
BRANCH  25  30
ATOM     30  C   UNL     1     -12.352  -6.345   2.900  1.00  0.00     0.243 C 
ATOM     31  O   UNL     1     -11.390  -6.892   2.364  1.00  0.00    -0.273 OA
ATOM     32  N   UNL     1     -12.559  -4.991   2.835  1.00  0.00    -0.342 N 
ATOM     33  H   UNL     1     -13.451  -4.631   3.183  1.00  0.00     0.164 HD
BRANCH  32  34
ATOM     34  C   UNL     1     -11.649  -4.073   2.143  1.00  0.00     0.175 C 
BRANCH  34  35
ATOM     35  C   UNL     1     -12.420  -2.934   1.458  1.00  0.00     0.070 C 
BRANCH  35  36
ATOM     36  C   UNL     1     -12.448  -3.070  -0.048  1.00  0.00    -0.045 A 
ATOM     37  C   UNL     1     -11.313  -2.737  -0.804  1.00  0.00     0.007 A 
ATOM     38  C   UNL     1     -13.604  -3.503  -0.709  1.00  0.00     0.007 A 
ATOM     39  C   UNL     1     -11.334  -2.846  -2.195  1.00  0.00     0.046 A 
ATOM     40  C   UNL     1     -13.627  -3.611  -2.102  1.00  0.00     0.046 A 
ATOM     41  C   UNL     1     -12.489  -3.282  -2.832  1.00  0.00     0.115 A 
BRANCH  41  42
ATOM     42  O   UNL     1     -12.469  -3.372  -4.193  1.00  0.00    -0.508 OA
ATOM     43  H   UNL     1     -12.798  -4.250  -4.445  1.00  0.00     0.293 HD
ENDBRANCH  41  42
ENDBRANCH  35  36
ENDBRANCH  34  35
BRANCH  34  44
ATOM     44  C   UNL     1     -10.629  -3.542   3.174  1.00  0.00     0.243 C 
ATOM     45  O   UNL     1     -10.577  -3.901   4.347  1.00  0.00    -0.273 OA
ATOM     46  N   UNL     1      -9.847  -2.514   2.693  1.00  0.00    -0.341 N 
ATOM     47  H   UNL     1     -10.007  -2.171   1.749  1.00  0.00     0.164 HD
BRANCH  46  48
ATOM     48  C   UNL     1      -8.856  -1.806   3.507  1.00  0.00     0.196 C 
BRANCH  48  49
ATOM     49  C   UNL     1      -8.082  -0.771   2.673  1.00  0.00     0.072 C 
BRANCH  49  50
ATOM     50  C   UNL     1      -7.032  -1.404   1.788  1.00  0.00    -0.045 A 
ATOM     51  C   UNL     1      -6.531  -0.699   0.684  1.00  0.00     0.007 A 
ATOM     52  C   UNL     1      -6.563  -2.699   2.040  1.00  0.00     0.007 A 
ATOM     53  C   UNL     1      -5.572  -1.278  -0.147  1.00  0.00     0.046 A 
ATOM     54  C   UNL     1      -5.604  -3.280   1.207  1.00  0.00     0.046 A 
ATOM     55  C   UNL     1      -5.115  -2.563   0.120  1.00  0.00     0.115 A 
BRANCH  55  56
ATOM     56  O   UNL     1      -4.179  -3.093  -0.717  1.00  0.00    -0.508 OA
ATOM     57  H   UNL     1      -4.564  -3.154  -1.606  1.00  0.00     0.293 HD
ENDBRANCH  55  56
ENDBRANCH  49  50
ENDBRANCH  48  49
BRANCH  48  58
ATOM     58  C   UNL     1      -9.574  -1.100   4.666  1.00  0.00     0.326 C 
ATOM     59  O   UNL     1     -10.367  -0.176   4.590  1.00  0.00    -0.250 OA
BRANCH  58  60
ATOM     60  O   UNL     1      -9.265  -1.610   5.884  1.00  0.00    -0.480 OA
ATOM     61  H   UNL     1      -9.059  -0.812   6.418  1.00  0.00     0.296 HD
ENDBRANCH  58  60
ENDBRANCH  48  58
ENDBRANCH  46  48
ENDBRANCH  34  44
ENDBRANCH  32  34
ENDBRANCH  25  30
ENDBRANCH  23  25
ENDBRANCH   2  23
TORSDOF 28
ENDMDL
MODEL 19
REMARK VINA RESULT:    -5.749      2.476      8.973
REMARK INTER + INTRA:         -18.899
REMARK INTER:                 -12.869
REMARK INTRA:                  -6.030
REMARK UNBOUND:                -4.579
REMARK SMILES CCCCCCC[C@H](N)[C@H](O)C(=O)N[C@H](C)C(=O)N(C)[C@H](CC(C)C)C(=O)N[C@@H](Cc1ccc(O)cc1)C(=O)N[C@@H](Cc1ccc(O)cc1)C(=O)O
REMARK SMILES IDX 18 1 17 2 15 3 16 4 14 5 12 6 13 7 10 9 11 10 8 12 9 13 7 16
REMARK SMILES IDX 6 17 5 18 4 19 3 20 2 21 1 22 19 23 20 24 21 25 22 26 23 27
REMARK SMILES IDX 24 28 25 29 26 30 27 31 28 32 29 34 30 35 31 36 32 37 37 38
REMARK SMILES IDX 33 39 36 40 34 41 35 42 38 44 39 45 40 46 41 48 42 49 43 50
REMARK SMILES IDX 44 51 49 52 45 53 48 54 46 55 47 56 50 58 51 59 52 60
REMARK H PARENT 14 8 11 11 9 14 9 15 28 33 35 43 40 47 47 57 52 61
ROOT
ATOM      1  O   UNL     1      -9.823  -5.739   5.784  1.00  0.00    -0.272 OA
ATOM      2  C   UNL     1     -10.695  -6.575   6.066  1.00  0.00     0.245 C 
ENDROOT
BRANCH   2   3
ATOM      3  C   UNL     1     -11.439  -6.443   7.417  1.00  0.00     0.168 C 
ATOM      4  C   UNL     1     -10.611  -7.034   8.553  1.00  0.00     0.041 C 
BRANCH   3   5
ATOM      5  N   UNL     1     -11.905  -5.100   7.729  1.00  0.00    -0.342 N 
ATOM      6  C   UNL     1     -13.171  -4.672   7.390  1.00  0.00     0.251 C 
ATOM      7  O   UNL     1     -13.976  -5.362   6.772  1.00  0.00    -0.272 OA
ATOM      8  H   UNL     1     -11.314  -4.426   8.209  1.00  0.00     0.164 HD
BRANCH   6   9
ATOM      9  C   UNL     1     -13.494  -3.275   7.943  1.00  0.00     0.219 C 
BRANCH   9  10
ATOM     10  O   UNL     1     -14.581  -2.645   7.253  1.00  0.00    -0.382 OA
ATOM     11  H   UNL     1     -15.357  -3.198   7.491  1.00  0.00     0.211 HD
ENDBRANCH   9  10
BRANCH   9  12
ATOM     12  C   UNL     1     -13.736  -3.267   9.475  1.00  0.00     0.089 C 
BRANCH  12  13
ATOM     13  N   UNL     1     -13.988  -4.658   9.915  1.00  0.00    -0.325 NA
ATOM     14  H   UNL     1     -13.222  -5.254   9.599  1.00  0.00     0.119 HD
ATOM     15  H   UNL     1     -14.818  -5.012   9.434  1.00  0.00     0.119 HD
ENDBRANCH  12  13
BRANCH  12  16
ATOM     16  C   UNL     1     -12.617  -2.631  10.334  1.00  0.00     0.022 C 
BRANCH  16  17
ATOM     17  C   UNL     1     -11.263  -3.346  10.445  1.00  0.00     0.002 C 
BRANCH  17  18
ATOM     18  C   UNL     1     -10.085  -2.443  10.804  1.00  0.00     0.000 C 
BRANCH  18  19
ATOM     19  C   UNL     1      -8.712  -3.076  10.542  1.00  0.00    -0.000 C 
BRANCH  19  20
ATOM     20  C   UNL     1      -7.555  -2.471  11.342  1.00  0.00    -0.000 C 
BRANCH  20  21
ATOM     21  C   UNL     1      -7.275  -3.217  12.650  1.00  0.00    -0.003 C 
ATOM     22  C   UNL     1      -7.795  -2.444  13.852  1.00  0.00     0.004 C 
ENDBRANCH  20  21
ENDBRANCH  19  20
ENDBRANCH  18  19
ENDBRANCH  17  18
ENDBRANCH  16  17
ENDBRANCH  12  16
ENDBRANCH   9  12
ENDBRANCH   6   9
ENDBRANCH   3   5
ENDBRANCH   2   3
BRANCH   2  23
ATOM     23  N   UNL     1     -11.071  -7.531   5.128  1.00  0.00    -0.332 N 
ATOM     24  C   UNL     1     -10.522  -8.877   5.055  1.00  0.00     0.147 C 
BRANCH  23  25
ATOM     25  C   UNL     1     -12.192  -7.260   4.187  1.00  0.00     0.174 C 
BRANCH  25  26
ATOM     26  C   UNL     1     -12.804  -8.549   3.591  1.00  0.00     0.038 C 
BRANCH  26  27
ATOM     27  C   UNL     1     -14.315  -8.524   3.271  1.00  0.00    -0.015 C 
ATOM     28  C   UNL     1     -14.962  -9.903   3.397  1.00  0.00     0.007 C 
ATOM     29  C   UNL     1     -15.091  -7.490   4.082  1.00  0.00     0.007 C 
ENDBRANCH  26  27
ENDBRANCH  25  26
BRANCH  25  30
ATOM     30  C   UNL     1     -11.755  -6.229   3.121  1.00  0.00     0.243 C 
ATOM     31  O   UNL     1     -11.301  -6.574   2.032  1.00  0.00    -0.273 OA
ATOM     32  N   UNL     1     -11.902  -4.912   3.474  1.00  0.00    -0.342 N 
ATOM     33  H   UNL     1     -12.416  -4.707   4.335  1.00  0.00     0.164 HD
BRANCH  32  34
ATOM     34  C   UNL     1     -11.516  -3.800   2.601  1.00  0.00     0.175 C 
BRANCH  34  35
ATOM     35  C   UNL     1     -12.732  -3.219   1.864  1.00  0.00     0.070 C 
BRANCH  35  36
ATOM     36  C   UNL     1     -12.571  -3.242   0.361  1.00  0.00    -0.045 A 
ATOM     37  C   UNL     1     -13.292  -4.167  -0.408  1.00  0.00     0.007 A 
ATOM     38  C   UNL     1     -11.688  -2.363  -0.281  1.00  0.00     0.007 A 
ATOM     39  C   UNL     1     -13.140  -4.205  -1.795  1.00  0.00     0.046 A 
ATOM     40  C   UNL     1     -11.534  -2.401  -1.668  1.00  0.00     0.046 A 
ATOM     41  C   UNL     1     -12.263  -3.322  -2.413  1.00  0.00     0.115 A 
BRANCH  41  42
ATOM     42  O   UNL     1     -12.141  -3.393  -3.770  1.00  0.00    -0.508 OA
ATOM     43  H   UNL     1     -12.026  -2.492  -4.113  1.00  0.00     0.293 HD
ENDBRANCH  41  42
ENDBRANCH  35  36
ENDBRANCH  34  35
BRANCH  34  44
ATOM     44  C   UNL     1     -10.803  -2.737   3.468  1.00  0.00     0.243 C 
ATOM     45  O   UNL     1     -10.881  -1.526   3.283  1.00  0.00    -0.273 OA
ATOM     46  N   UNL     1      -9.951  -3.276   4.408  1.00  0.00    -0.341 N 
ATOM     47  H   UNL     1      -9.831  -4.286   4.445  1.00  0.00     0.164 HD
BRANCH  46  48
ATOM     48  C   UNL     1      -9.116  -2.466   5.298  1.00  0.00     0.196 C 
BRANCH  48  49
ATOM     49  C   UNL     1      -9.582  -2.580   6.759  1.00  0.00     0.072 C 
BRANCH  49  50
ATOM     50  C   UNL     1      -9.913  -1.237   7.371  1.00  0.00    -0.045 A 
ATOM     51  C   UNL     1      -8.900  -0.474   7.970  1.00  0.00     0.007 A 
ATOM     52  C   UNL     1     -11.225  -0.748   7.369  1.00  0.00     0.007 A 
ATOM     53  C   UNL     1      -9.195   0.760   8.549  1.00  0.00     0.046 A 
ATOM     54  C   UNL     1     -11.521   0.488   7.950  1.00  0.00     0.046 A 
ATOM     55  C   UNL     1     -10.502   1.232   8.535  1.00  0.00     0.115 A 
BRANCH  55  56
ATOM     56  O   UNL     1     -10.749   2.442   9.113  1.00  0.00    -0.508 OA
ATOM     57  H   UNL     1     -11.710   2.568   9.160  1.00  0.00     0.293 HD
ENDBRANCH  55  56
ENDBRANCH  49  50
ENDBRANCH  48  49
BRANCH  48  58
ATOM     58  C   UNL     1      -7.660  -2.937   5.184  1.00  0.00     0.326 C 
ATOM     59  O   UNL     1      -6.759  -2.406   4.555  1.00  0.00    -0.250 OA
BRANCH  58  60
ATOM     60  O   UNL     1      -7.400  -4.066   5.890  1.00  0.00    -0.480 OA
ATOM     61  H   UNL     1      -6.888  -4.616   5.257  1.00  0.00     0.296 HD
ENDBRANCH  58  60
ENDBRANCH  48  58
ENDBRANCH  46  48
ENDBRANCH  34  44
ENDBRANCH  32  34
ENDBRANCH  25  30
ENDBRANCH  23  25
ENDBRANCH   2  23
TORSDOF 28
ENDMDL
MODEL 20
REMARK VINA RESULT:    -5.743     15.325     20.075
REMARK INTER + INTRA:         -18.882
REMARK INTER:                 -14.123
REMARK INTRA:                  -4.759
REMARK UNBOUND:                -4.579
REMARK SMILES CCCCCCC[C@H](N)[C@H](O)C(=O)N[C@H](C)C(=O)N(C)[C@H](CC(C)C)C(=O)N[C@@H](Cc1ccc(O)cc1)C(=O)N[C@@H](Cc1ccc(O)cc1)C(=O)O
REMARK SMILES IDX 18 1 17 2 15 3 16 4 14 5 12 6 13 7 10 9 11 10 8 12 9 13 7 16
REMARK SMILES IDX 6 17 5 18 4 19 3 20 2 21 1 22 19 23 20 24 21 25 22 26 23 27
REMARK SMILES IDX 24 28 25 29 26 30 27 31 28 32 29 34 30 35 31 36 32 37 37 38
REMARK SMILES IDX 33 39 36 40 34 41 35 42 38 44 39 45 40 46 41 48 42 49 43 50
REMARK SMILES IDX 44 51 49 52 45 53 48 54 46 55 47 56 50 58 51 59 52 60
REMARK H PARENT 14 8 11 11 9 14 9 15 28 33 35 43 40 47 47 57 52 61
ROOT
ATOM      1  O   UNL     1       0.332 -10.291 -10.779  1.00  0.00    -0.272 OA
ATOM      2  C   UNL     1      -0.843 -10.626 -10.991  1.00  0.00     0.245 C 
ENDROOT
BRANCH   2   3
ATOM      3  C   UNL     1      -1.770  -9.639 -11.744  1.00  0.00     0.168 C 
ATOM      4  C   UNL     1      -3.152  -9.596 -11.101  1.00  0.00     0.041 C 
BRANCH   3   5
ATOM      5  N   UNL     1      -1.219  -8.307 -11.934  1.00  0.00    -0.342 N 
ATOM      6  C   UNL     1      -1.137  -7.399 -10.900  1.00  0.00     0.251 C 
ATOM      7  O   UNL     1      -1.553  -7.623  -9.768  1.00  0.00    -0.272 OA
ATOM      8  H   UNL     1      -0.873  -7.993 -12.838  1.00  0.00     0.164 HD
BRANCH   6   9
ATOM      9  C   UNL     1      -0.392  -6.113 -11.295  1.00  0.00     0.219 C 
BRANCH   9  10
ATOM     10  O   UNL     1      -0.782  -4.984 -10.504  1.00  0.00    -0.382 OA
ATOM     11  H   UNL     1      -1.422  -5.362  -9.861  1.00  0.00     0.211 HD
ENDBRANCH   9  10
BRANCH   9  12
ATOM     12  C   UNL     1       1.150  -6.278 -11.297  1.00  0.00     0.089 C 
BRANCH  12  13
ATOM     13  N   UNL     1       1.764  -4.935 -11.196  1.00  0.00    -0.325 NA
ATOM     14  H   UNL     1       2.688  -5.019 -10.768  1.00  0.00     0.119 HD
ATOM     15  H   UNL     1       1.218  -4.369 -10.541  1.00  0.00     0.119 HD
ENDBRANCH  12  13
BRANCH  12  16
ATOM     16  C   UNL     1       1.733  -7.212 -10.209  1.00  0.00     0.022 C 
BRANCH  16  17
ATOM     17  C   UNL     1       2.629  -6.616  -9.115  1.00  0.00     0.002 C 
BRANCH  17  18
ATOM     18  C   UNL     1       2.493  -7.272  -7.742  1.00  0.00     0.000 C 
BRANCH  18  19
ATOM     19  C   UNL     1       1.485  -8.429  -7.700  1.00  0.00    -0.000 C 
BRANCH  19  20
ATOM     20  C   UNL     1       0.605  -8.478  -6.447  1.00  0.00    -0.000 C 
BRANCH  20  21
ATOM     21  C   UNL     1       1.392  -8.261  -5.152  1.00  0.00    -0.003 C 
ATOM     22  C   UNL     1       1.066  -9.329  -4.120  1.00  0.00     0.004 C 
ENDBRANCH  20  21
ENDBRANCH  19  20
ENDBRANCH  18  19
ENDBRANCH  17  18
ENDBRANCH  16  17
ENDBRANCH  12  16
ENDBRANCH   9  12
ENDBRANCH   6   9
ENDBRANCH   3   5
ENDBRANCH   2   3
BRANCH   2  23
ATOM     23  N   UNL     1      -1.270 -11.909 -10.665  1.00  0.00    -0.332 N 
ATOM     24  C   UNL     1      -1.640 -12.928 -11.636  1.00  0.00     0.147 C 
BRANCH  23  25
ATOM     25  C   UNL     1      -1.253 -12.369  -9.250  1.00  0.00     0.174 C 
BRANCH  25  26
ATOM     26  C   UNL     1      -1.689 -11.270  -8.253  1.00  0.00     0.038 C 
BRANCH  26  27
ATOM     27  C   UNL     1      -2.133 -11.734  -6.848  1.00  0.00    -0.015 C 
ATOM     28  C   UNL     1      -2.225 -10.578  -5.852  1.00  0.00     0.007 C 
ATOM     29  C   UNL     1      -3.430 -12.540  -6.857  1.00  0.00     0.007 C 
ENDBRANCH  26  27
ENDBRANCH  25  26
BRANCH  25  30
ATOM     30  C   UNL     1       0.116 -13.005  -8.914  1.00  0.00     0.243 C 
ATOM     31  O   UNL     1       0.396 -14.156  -9.243  1.00  0.00    -0.273 OA
ATOM     32  N   UNL     1       0.988 -12.204  -8.223  1.00  0.00    -0.342 N 
ATOM     33  H   UNL     1       0.739 -11.218  -8.110  1.00  0.00     0.164 HD
BRANCH  32  34
ATOM     34  C   UNL     1       2.318 -12.648  -7.796  1.00  0.00     0.175 C 
BRANCH  34  35
ATOM     35  C   UNL     1       3.392 -11.604  -8.140  1.00  0.00     0.070 C 
BRANCH  35  36
ATOM     36  C   UNL     1       4.551 -12.191  -8.913  1.00  0.00    -0.045 A 
ATOM     37  C   UNL     1       5.618 -11.370  -9.309  1.00  0.00     0.007 A 
ATOM     38  C   UNL     1       4.568 -13.547  -9.265  1.00  0.00     0.007 A 
ATOM     39  C   UNL     1       6.686 -11.899 -10.035  1.00  0.00     0.046 A 
ATOM     40  C   UNL     1       5.636 -14.078  -9.993  1.00  0.00     0.046 A 
ATOM     41  C   UNL     1       6.687 -13.248 -10.370  1.00  0.00     0.115 A 
BRANCH  41  42
ATOM     42  O   UNL     1       7.747 -13.725 -11.083  1.00  0.00    -0.508 OA
ATOM     43  H   UNL     1       7.444 -14.484 -11.608  1.00  0.00     0.293 HD
ENDBRANCH  41  42
ENDBRANCH  35  36
ENDBRANCH  34  35
BRANCH  34  44
ATOM     44  C   UNL     1       2.262 -12.941  -6.280  1.00  0.00     0.243 C 
ATOM     45  O   UNL     1       2.623 -12.156  -5.408  1.00  0.00    -0.273 OA
ATOM     46  N   UNL     1       1.884 -14.233  -5.985  1.00  0.00    -0.341 N 
ATOM     47  H   UNL     1       1.706 -14.883  -6.747  1.00  0.00     0.164 HD
BRANCH  46  48
ATOM     48  C   UNL     1       1.823 -14.763  -4.621  1.00  0.00     0.196 C 
BRANCH  48  49
ATOM     49  C   UNL     1       0.468 -15.434  -4.340  1.00  0.00     0.072 C 
BRANCH  49  50
ATOM     50  C   UNL     1      -0.578 -14.453  -3.860  1.00  0.00    -0.045 A 
ATOM     51  C   UNL     1      -0.186 -13.204  -3.357  1.00  0.00     0.007 A 
ATOM     52  C   UNL     1      -1.939 -14.780  -3.888  1.00  0.00     0.007 A 
ATOM     53  C   UNL     1      -1.141 -12.296  -2.899  1.00  0.00     0.046 A 
ATOM     54  C   UNL     1      -2.896 -13.872  -3.429  1.00  0.00     0.046 A 
ATOM     55  C   UNL     1      -2.488 -12.636  -2.939  1.00  0.00     0.115 A 
BRANCH  55  56
ATOM     56  O   UNL     1      -3.389 -11.722  -2.480  1.00  0.00    -0.508 OA
ATOM     57  H   UNL     1      -4.247 -11.901  -2.898  1.00  0.00     0.293 HD
ENDBRANCH  55  56
ENDBRANCH  49  50
ENDBRANCH  48  49
BRANCH  48  58
ATOM     58  C   UNL     1       2.953 -15.786  -4.432  1.00  0.00     0.326 C 
ATOM     59  O   UNL     1       3.228 -16.726  -5.160  1.00  0.00    -0.250 OA
BRANCH  58  60
ATOM     60  O   UNL     1       3.704 -15.564  -3.324  1.00  0.00    -0.480 OA
ATOM     61  H   UNL     1       3.326 -14.736  -2.957  1.00  0.00     0.296 HD
ENDBRANCH  58  60
ENDBRANCH  48  58
ENDBRANCH  46  48
ENDBRANCH  34  44
ENDBRANCH  32  34
ENDBRANCH  25  30
ENDBRANCH  23  25
ENDBRANCH   2  23
TORSDOF 28
ENDMDL
MODEL 21
REMARK VINA RESULT:    -5.688     15.016     18.154
REMARK INTER + INTRA:         -18.746
REMARK INTER:                 -11.368
REMARK INTRA:                  -7.378
REMARK UNBOUND:                -4.579
REMARK SMILES CCCCCCC[C@H](N)[C@H](O)C(=O)N[C@H](C)C(=O)N(C)[C@H](CC(C)C)C(=O)N[C@@H](Cc1ccc(O)cc1)C(=O)N[C@@H](Cc1ccc(O)cc1)C(=O)O
REMARK SMILES IDX 18 1 17 2 15 3 16 4 14 5 12 6 13 7 10 9 11 10 8 12 9 13 7 16
REMARK SMILES IDX 6 17 5 18 4 19 3 20 2 21 1 22 19 23 20 24 21 25 22 26 23 27
REMARK SMILES IDX 24 28 25 29 26 30 27 31 28 32 29 34 30 35 31 36 32 37 37 38
REMARK SMILES IDX 33 39 36 40 34 41 35 42 38 44 39 45 40 46 41 48 42 49 43 50
REMARK SMILES IDX 44 51 49 52 45 53 48 54 46 55 47 56 50 58 51 59 52 60
REMARK H PARENT 14 8 11 11 9 14 9 15 28 33 35 43 40 47 47 57 52 61
ROOT
ATOM      1  O   UNL     1      -3.732 -11.989  -6.390  1.00  0.00    -0.272 OA
ATOM      2  C   UNL     1      -3.139 -13.030  -6.071  1.00  0.00     0.245 C 
ENDROOT
BRANCH   2   3
ATOM      3  C   UNL     1      -2.924 -14.121  -7.150  1.00  0.00     0.168 C 
ATOM      4  C   UNL     1      -4.176 -14.976  -7.312  1.00  0.00     0.041 C 
BRANCH   3   5
ATOM      5  N   UNL     1      -2.436 -13.628  -8.429  1.00  0.00    -0.342 N 
ATOM      6  C   UNL     1      -1.262 -12.913  -8.533  1.00  0.00     0.251 C 
ATOM      7  O   UNL     1      -0.570 -12.605  -7.568  1.00  0.00    -0.272 OA
ATOM      8  H   UNL     1      -2.943 -13.791  -9.295  1.00  0.00     0.164 HD
BRANCH   6   9
ATOM      9  C   UNL     1      -0.871 -12.620  -9.990  1.00  0.00     0.219 C 
BRANCH   9  10
ATOM     10  O   UNL     1      -0.565 -13.808 -10.730  1.00  0.00    -0.382 OA
ATOM     11  H   UNL     1       0.276 -13.585 -11.186  1.00  0.00     0.211 HD
ENDBRANCH   9  10
BRANCH   9  12
ATOM     12  C   UNL     1      -1.921 -11.759 -10.741  1.00  0.00     0.089 C 
BRANCH  12  13
ATOM     13  N   UNL     1      -3.051 -12.634 -11.129  1.00  0.00    -0.325 NA
ATOM     14  H   UNL     1      -3.890 -12.064 -11.251  1.00  0.00     0.119 HD
ATOM     15  H   UNL     1      -3.266 -13.262 -10.351  1.00  0.00     0.119 HD
ENDBRANCH  12  13
BRANCH  12  16
ATOM     16  C   UNL     1      -2.447 -10.517  -9.982  1.00  0.00     0.022 C 
BRANCH  16  17
ATOM     17  C   UNL     1      -3.059  -9.358 -10.781  1.00  0.00     0.002 C 
BRANCH  17  18
ATOM     18  C   UNL     1      -2.176  -8.117 -10.895  1.00  0.00     0.000 C 
BRANCH  18  19
ATOM     19  C   UNL     1      -1.102  -8.213 -11.986  1.00  0.00    -0.000 C 
BRANCH  19  20
ATOM     20  C   UNL     1      -0.355  -6.909 -12.280  1.00  0.00    -0.000 C 
BRANCH  20  21
ATOM     21  C   UNL     1      -0.331  -5.950 -11.087  1.00  0.00    -0.003 C 
ATOM     22  C   UNL     1      -0.083  -4.517 -11.532  1.00  0.00     0.004 C 
ENDBRANCH  20  21
ENDBRANCH  19  20
ENDBRANCH  18  19
ENDBRANCH  17  18
ENDBRANCH  16  17
ENDBRANCH  12  16
ENDBRANCH   9  12
ENDBRANCH   6   9
ENDBRANCH   3   5
ENDBRANCH   2   3
BRANCH   2  23
ATOM     23  N   UNL     1      -2.577 -13.150  -4.805  1.00  0.00    -0.332 N 
ATOM     24  C   UNL     1      -3.023 -12.417  -3.630  1.00  0.00     0.147 C 
BRANCH  23  25
ATOM     25  C   UNL     1      -1.525 -14.171  -4.544  1.00  0.00     0.174 C 
BRANCH  25  26
ATOM     26  C   UNL     1      -2.037 -15.359  -3.696  1.00  0.00     0.038 C 
BRANCH  26  27
ATOM     27  C   UNL     1      -1.519 -16.764  -4.076  1.00  0.00    -0.015 C 
ATOM     28  C   UNL     1      -0.919 -16.806  -5.481  1.00  0.00     0.007 C 
ATOM     29  C   UNL     1      -0.543 -17.348  -3.057  1.00  0.00     0.007 C 
ENDBRANCH  26  27
ENDBRANCH  25  26
BRANCH  25  30
ATOM     30  C   UNL     1      -0.259 -13.496  -3.968  1.00  0.00     0.243 C 
ATOM     31  O   UNL     1       0.155 -13.748  -2.838  1.00  0.00    -0.273 OA
ATOM     32  N   UNL     1       0.363 -12.598  -4.797  1.00  0.00    -0.342 N 
ATOM     33  H   UNL     1       0.043 -12.548  -5.767  1.00  0.00     0.164 HD
BRANCH  32  34
ATOM     34  C   UNL     1       1.558 -11.844  -4.409  1.00  0.00     0.175 C 
BRANCH  34  35
ATOM     35  C   UNL     1       2.839 -12.529  -4.911  1.00  0.00     0.070 C 
BRANCH  35  36
ATOM     36  C   UNL     1       2.679 -13.129  -6.290  1.00  0.00    -0.045 A 
ATOM     37  C   UNL     1       2.913 -12.342  -7.428  1.00  0.00     0.007 A 
ATOM     38  C   UNL     1       2.276 -14.461  -6.453  1.00  0.00     0.007 A 
ATOM     39  C   UNL     1       2.755 -12.883  -8.705  1.00  0.00     0.046 A 
ATOM     40  C   UNL     1       2.116 -15.002  -7.730  1.00  0.00     0.046 A 
ATOM     41  C   UNL     1       2.359 -14.207  -8.846  1.00  0.00     0.115 A 
BRANCH  41  42
ATOM     42  O   UNL     1       2.213 -14.695 -10.110  1.00  0.00    -0.508 OA
ATOM     43  H   UNL     1       2.421 -15.644 -10.096  1.00  0.00     0.293 HD
ENDBRANCH  41  42
ENDBRANCH  35  36
ENDBRANCH  34  35
BRANCH  34  44
ATOM     44  C   UNL     1       1.418 -10.407  -4.961  1.00  0.00     0.243 C 
ATOM     45  O   UNL     1       1.900  -9.410  -4.430  1.00  0.00    -0.273 OA
ATOM     46  N   UNL     1       0.581 -10.318  -6.053  1.00  0.00    -0.341 N 
ATOM     47  H   UNL     1       0.113 -11.157  -6.386  1.00  0.00     0.164 HD
BRANCH  46  48
ATOM     48  C   UNL     1       0.242  -9.052  -6.706  1.00  0.00     0.196 C 
BRANCH  48  49
ATOM     49  C   UNL     1       0.251  -9.192  -8.238  1.00  0.00     0.072 C 
BRANCH  49  50
ATOM     50  C   UNL     1       1.410  -8.465  -8.881  1.00  0.00    -0.045 A 
ATOM     51  C   UNL     1       1.930  -8.920 -10.101  1.00  0.00     0.007 A 
ATOM     52  C   UNL     1       1.990  -7.348  -8.267  1.00  0.00     0.007 A 
ATOM     53  C   UNL     1       3.007  -8.265 -10.698  1.00  0.00     0.046 A 
ATOM     54  C   UNL     1       3.070  -6.692  -8.864  1.00  0.00     0.046 A 
ATOM     55  C   UNL     1       3.569  -7.157 -10.076  1.00  0.00     0.115 A 
BRANCH  55  56
ATOM     56  O   UNL     1       4.621  -6.546 -10.691  1.00  0.00    -0.508 OA
ATOM     57  H   UNL     1       5.101  -6.023 -10.029  1.00  0.00     0.293 HD
ENDBRANCH  55  56
ENDBRANCH  49  50
ENDBRANCH  48  49
BRANCH  48  58
ATOM     58  C   UNL     1      -1.151  -8.607  -6.238  1.00  0.00     0.326 C 
ATOM     59  O   UNL     1      -1.591  -7.469  -6.207  1.00  0.00    -0.250 OA
BRANCH  58  60
ATOM     60  O   UNL     1      -1.942  -9.635  -5.840  1.00  0.00    -0.480 OA
ATOM     61  H   UNL     1      -1.498 -10.423  -6.222  1.00  0.00     0.296 HD
ENDBRANCH  58  60
ENDBRANCH  48  58
ENDBRANCH  46  48
ENDBRANCH  34  44
ENDBRANCH  32  34
ENDBRANCH  25  30
ENDBRANCH  23  25
ENDBRANCH   2  23
TORSDOF 28
ENDMDL
MODEL 22
REMARK VINA RESULT:    -5.677      3.084      7.893
REMARK INTER + INTRA:         -18.719
REMARK INTER:                 -13.667
REMARK INTRA:                  -5.052
REMARK UNBOUND:                -4.579
REMARK SMILES CCCCCCC[C@H](N)[C@H](O)C(=O)N[C@H](C)C(=O)N(C)[C@H](CC(C)C)C(=O)N[C@@H](Cc1ccc(O)cc1)C(=O)N[C@@H](Cc1ccc(O)cc1)C(=O)O
REMARK SMILES IDX 18 1 17 2 15 3 16 4 14 5 12 6 13 7 10 9 11 10 8 12 9 13 7 16
REMARK SMILES IDX 6 17 5 18 4 19 3 20 2 21 1 22 19 23 20 24 21 25 22 26 23 27
REMARK SMILES IDX 24 28 25 29 26 30 27 31 28 32 29 34 30 35 31 36 32 37 37 38
REMARK SMILES IDX 33 39 36 40 34 41 35 42 38 44 39 45 40 46 41 48 42 49 43 50
REMARK SMILES IDX 44 51 49 52 45 53 48 54 46 55 47 56 50 58 51 59 52 60
REMARK H PARENT 14 8 11 11 9 14 9 15 28 33 35 43 40 47 47 57 52 61
ROOT
ATOM      1  O   UNL     1     -12.417  -3.173   5.732  1.00  0.00    -0.272 OA
ATOM      2  C   UNL     1     -11.991  -3.710   4.699  1.00  0.00     0.245 C 
ENDROOT
BRANCH   2   3
ATOM      3  C   UNL     1     -11.098  -2.879   3.745  1.00  0.00     0.168 C 
ATOM      4  C   UNL     1     -11.948  -2.105   2.744  1.00  0.00     0.041 C 
BRANCH   3   5
ATOM      5  N   UNL     1     -10.128  -2.021   4.409  1.00  0.00    -0.342 N 
ATOM      6  C   UNL     1      -8.927  -1.689   3.819  1.00  0.00     0.251 C 
ATOM      7  O   UNL     1      -8.569  -2.115   2.726  1.00  0.00    -0.272 OA
ATOM      8  H   UNL     1     -10.299  -1.635   5.334  1.00  0.00     0.164 HD
BRANCH   6   9
ATOM      9  C   UNL     1      -8.127  -0.662   4.637  1.00  0.00     0.219 C 
BRANCH   9  10
ATOM     10  O   UNL     1      -8.934   0.023   5.603  1.00  0.00    -0.382 OA
ATOM     11  H   UNL     1      -8.946   0.951   5.278  1.00  0.00     0.211 HD
ENDBRANCH   9  10
BRANCH   9  12
ATOM     12  C   UNL     1      -6.863  -1.265   5.303  1.00  0.00     0.089 C 
BRANCH  12  13
ATOM     13  N   UNL     1      -6.932  -2.739   5.187  1.00  0.00    -0.325 NA
ATOM     14  H   UNL     1      -6.262  -3.053   4.483  1.00  0.00     0.119 HD
ATOM     15  H   UNL     1      -7.849  -3.000   4.817  1.00  0.00     0.119 HD
ENDBRANCH  12  13
BRANCH  12  16
ATOM     16  C   UNL     1      -5.505  -0.752   4.767  1.00  0.00     0.022 C 
BRANCH  16  17
ATOM     17  C   UNL     1      -5.178  -0.921   3.277  1.00  0.00     0.002 C 
BRANCH  17  18
ATOM     18  C   UNL     1      -3.740  -0.583   2.890  1.00  0.00     0.000 C 
BRANCH  18  19
ATOM     19  C   UNL     1      -3.430   0.920   2.891  1.00  0.00    -0.000 C 
BRANCH  19  20
ATOM     20  C   UNL     1      -4.152   1.733   1.814  1.00  0.00    -0.000 C 
BRANCH  20  21
ATOM     21  C   UNL     1      -3.267   2.812   1.183  1.00  0.00    -0.003 C 
ATOM     22  C   UNL     1      -1.852   2.763   1.738  1.00  0.00     0.004 C 
ENDBRANCH  20  21
ENDBRANCH  19  20
ENDBRANCH  18  19
ENDBRANCH  17  18
ENDBRANCH  16  17
ENDBRANCH  12  16
ENDBRANCH   9  12
ENDBRANCH   6   9
ENDBRANCH   3   5
ENDBRANCH   2   3
BRANCH   2  23
ATOM     23  N   UNL     1     -12.215  -5.065   4.477  1.00  0.00    -0.332 N 
ATOM     24  C   UNL     1     -13.386  -5.609   3.804  1.00  0.00     0.147 C 
BRANCH  23  25
ATOM     25  C   UNL     1     -11.167  -6.066   4.817  1.00  0.00     0.174 C 
BRANCH  25  26
ATOM     26  C   UNL     1     -11.535  -7.500   4.369  1.00  0.00     0.038 C 
BRANCH  26  27
ATOM     27  C   UNL     1     -11.405  -8.618   5.426  1.00  0.00    -0.015 C 
ATOM     28  C   UNL     1     -12.645  -9.509   5.492  1.00  0.00     0.007 C 
ATOM     29  C   UNL     1     -10.145  -9.465   5.263  1.00  0.00     0.007 C 
ENDBRANCH  26  27
ENDBRANCH  25  26
BRANCH  25  30
ATOM     30  C   UNL     1     -10.794  -5.958   6.313  1.00  0.00     0.243 C 
ATOM     31  O   UNL     1      -9.636  -5.770   6.683  1.00  0.00    -0.273 OA
ATOM     32  N   UNL     1     -11.836  -6.092   7.195  1.00  0.00    -0.342 N 
ATOM     33  H   UNL     1     -12.784  -6.103   6.810  1.00  0.00     0.164 HD
BRANCH  32  34
ATOM     34  C   UNL     1     -11.665  -6.045   8.650  1.00  0.00     0.175 C 
BRANCH  34  35
ATOM     35  C   UNL     1     -10.589  -7.036   9.119  1.00  0.00     0.070 C 
BRANCH  35  36
ATOM     36  C   UNL     1     -11.065  -8.471   9.096  1.00  0.00    -0.045 A 
ATOM     37  C   UNL     1     -10.151  -9.510   8.864  1.00  0.00     0.007 A 
ATOM     38  C   UNL     1     -12.418  -8.782   9.281  1.00  0.00     0.007 A 
ATOM     39  C   UNL     1     -10.583 -10.836   8.828  1.00  0.00     0.046 A 
ATOM     40  C   UNL     1     -12.852 -10.110   9.243  1.00  0.00     0.046 A 
ATOM     41  C   UNL     1     -11.929 -11.125   9.018  1.00  0.00     0.115 A 
BRANCH  41  42
ATOM     42  O   UNL     1     -12.311 -12.434   8.972  1.00  0.00    -0.508 OA
ATOM     43  H   UNL     1     -11.788 -12.879   8.284  1.00  0.00     0.293 HD
ENDBRANCH  41  42
ENDBRANCH  35  36
ENDBRANCH  34  35
BRANCH  34  44
ATOM     44  C   UNL     1     -11.323  -4.591   9.045  1.00  0.00     0.243 C 
ATOM     45  O   UNL     1     -12.135  -3.671   9.076  1.00  0.00    -0.273 OA
ATOM     46  N   UNL     1      -9.975  -4.378   9.240  1.00  0.00    -0.341 N 
ATOM     47  H   UNL     1      -9.326  -5.147   9.088  1.00  0.00     0.164 HD
BRANCH  46  48
ATOM     48  C   UNL     1      -9.403  -3.067   9.555  1.00  0.00     0.196 C 
BRANCH  48  49
ATOM     49  C   UNL     1      -8.029  -3.203  10.232  1.00  0.00     0.072 C 
BRANCH  49  50
ATOM     50  C   UNL     1      -7.977  -2.530  11.585  1.00  0.00    -0.045 A 
ATOM     51  C   UNL     1      -7.541  -3.250  12.707  1.00  0.00     0.007 A 
ATOM     52  C   UNL     1      -8.380  -1.198  11.743  1.00  0.00     0.007 A 
ATOM     53  C   UNL     1      -7.502  -2.644  13.962  1.00  0.00     0.046 A 
ATOM     54  C   UNL     1      -8.341  -0.592  13.001  1.00  0.00     0.046 A 
ATOM     55  C   UNL     1      -7.901  -1.320  14.100  1.00  0.00     0.115 A 
BRANCH  55  56
ATOM     56  O   UNL     1      -7.850  -0.765  15.345  1.00  0.00    -0.508 OA
ATOM     57  H   UNL     1      -7.222  -1.275  15.881  1.00  0.00     0.293 HD
ENDBRANCH  55  56
ENDBRANCH  49  50
ENDBRANCH  48  49
BRANCH  48  58
ATOM     58  C   UNL     1      -9.260  -2.260   8.257  1.00  0.00     0.326 C 
ATOM     59  O   UNL     1      -9.341  -2.678   7.114  1.00  0.00    -0.250 OA
BRANCH  58  60
ATOM     60  O   UNL     1      -9.034  -0.938   8.464  1.00  0.00    -0.480 OA
ATOM     61  H   UNL     1      -8.385  -0.932   9.201  1.00  0.00     0.296 HD
ENDBRANCH  58  60
ENDBRANCH  48  58
ENDBRANCH  46  48
ENDBRANCH  34  44
ENDBRANCH  32  34
ENDBRANCH  25  30
ENDBRANCH  23  25
ENDBRANCH   2  23
TORSDOF 28
ENDMDL
MODEL 23
REMARK VINA RESULT:    -5.659     14.247     20.618
REMARK INTER + INTRA:         -18.674
REMARK INTER:                 -13.825
REMARK INTRA:                  -4.849
REMARK UNBOUND:                -4.579
REMARK SMILES CCCCCCC[C@H](N)[C@H](O)C(=O)N[C@H](C)C(=O)N(C)[C@H](CC(C)C)C(=O)N[C@@H](Cc1ccc(O)cc1)C(=O)N[C@@H](Cc1ccc(O)cc1)C(=O)O
REMARK SMILES IDX 18 1 17 2 15 3 16 4 14 5 12 6 13 7 10 9 11 10 8 12 9 13 7 16
REMARK SMILES IDX 6 17 5 18 4 19 3 20 2 21 1 22 19 23 20 24 21 25 22 26 23 27
REMARK SMILES IDX 24 28 25 29 26 30 27 31 28 32 29 34 30 35 31 36 32 37 37 38
REMARK SMILES IDX 33 39 36 40 34 41 35 42 38 44 39 45 40 46 41 48 42 49 43 50
REMARK SMILES IDX 44 51 49 52 45 53 48 54 46 55 47 56 50 58 51 59 52 60
REMARK H PARENT 14 8 11 11 9 14 9 15 28 33 35 43 40 47 47 57 52 61
ROOT
ATOM      1  O   UNL     1       2.199   8.929  -6.769  1.00  0.00    -0.272 OA
ATOM      2  C   UNL     1       2.684   7.859  -7.166  1.00  0.00     0.245 C 
ENDROOT
BRANCH   2   3
ATOM      3  C   UNL     1       3.671   7.105  -6.241  1.00  0.00     0.168 C 
ATOM      4  C   UNL     1       5.113   7.471  -6.576  1.00  0.00     0.041 C 
BRANCH   3   5
ATOM      5  N   UNL     1       3.396   7.233  -4.818  1.00  0.00    -0.342 N 
ATOM      6  C   UNL     1       2.387   6.522  -4.205  1.00  0.00     0.251 C 
ATOM      7  O   UNL     1       1.627   5.770  -4.807  1.00  0.00    -0.272 OA
ATOM      8  H   UNL     1       3.938   7.854  -4.221  1.00  0.00     0.164 HD
BRANCH   6   9
ATOM      9  C   UNL     1       2.372   6.707  -2.679  1.00  0.00     0.219 C 
BRANCH   9  10
ATOM     10  O   UNL     1       1.930   5.534  -1.985  1.00  0.00    -0.382 OA
ATOM     11  H   UNL     1       2.247   5.676  -1.066  1.00  0.00     0.211 HD
ENDBRANCH   9  10
BRANCH   9  12
ATOM     12  C   UNL     1       3.727   7.205  -2.113  1.00  0.00     0.089 C 
BRANCH  12  13
ATOM     13  N   UNL     1       3.459   8.005  -0.896  1.00  0.00    -0.325 NA
ATOM     14  H   UNL     1       4.251   8.626  -0.721  1.00  0.00     0.119 HD
ATOM     15  H   UNL     1       3.428   7.379  -0.088  1.00  0.00     0.119 HD
ENDBRANCH  12  13
BRANCH  12  16
ATOM     16  C   UNL     1       4.778   6.111  -1.809  1.00  0.00     0.022 C 
BRANCH  16  17
ATOM     17  C   UNL     1       6.193   6.530  -1.387  1.00  0.00     0.002 C 
BRANCH  17  18
ATOM     18  C   UNL     1       7.264   6.357  -2.461  1.00  0.00     0.000 C 
BRANCH  18  19
ATOM     19  C   UNL     1       8.232   5.197  -2.196  1.00  0.00    -0.000 C 
BRANCH  19  20
ATOM     20  C   UNL     1       9.154   4.839  -3.366  1.00  0.00    -0.000 C 
BRANCH  20  21
ATOM     21  C   UNL     1       9.041   5.817  -4.539  1.00  0.00    -0.003 C 
ATOM     22  C   UNL     1      10.308   6.642  -4.697  1.00  0.00     0.004 C 
ENDBRANCH  20  21
ENDBRANCH  19  20
ENDBRANCH  18  19
ENDBRANCH  17  18
ENDBRANCH  16  17
ENDBRANCH  12  16
ENDBRANCH   9  12
ENDBRANCH   6   9
ENDBRANCH   3   5
ENDBRANCH   2   3
BRANCH   2  23
ATOM     23  N   UNL     1       2.246   7.298  -8.361  1.00  0.00    -0.332 N 
ATOM     24  C   UNL     1       1.541   8.026  -9.406  1.00  0.00     0.147 C 
BRANCH  23  25
ATOM     25  C   UNL     1       2.601   5.894  -8.706  1.00  0.00     0.174 C 
BRANCH  25  26
ATOM     26  C   UNL     1       3.362   5.777 -10.047  1.00  0.00     0.038 C 
BRANCH  26  27
ATOM     27  C   UNL     1       4.834   6.247 -10.061  1.00  0.00    -0.015 C 
ATOM     28  C   UNL     1       5.817   5.096  -9.857  1.00  0.00     0.007 C 
ATOM     29  C   UNL     1       5.202   7.054 -11.303  1.00  0.00     0.007 C 
ENDBRANCH  26  27
ENDBRANCH  25  26
BRANCH  25  30
ATOM     30  C   UNL     1       1.348   4.992  -8.622  1.00  0.00     0.243 C 
ATOM     31  O   UNL     1       0.678   4.716  -9.615  1.00  0.00    -0.273 OA
ATOM     32  N   UNL     1       1.034   4.529  -7.370  1.00  0.00    -0.342 N 
ATOM     33  H   UNL     1       1.715   4.684  -6.622  1.00  0.00     0.164 HD
BRANCH  32  34
ATOM     34  C   UNL     1      -0.133   3.686  -7.097  1.00  0.00     0.175 C 
BRANCH  34  35
ATOM     35  C   UNL     1       0.021   2.931  -5.767  1.00  0.00     0.070 C 
BRANCH  35  36
ATOM     36  C   UNL     1      -1.297   2.432  -5.221  1.00  0.00    -0.045 A 
ATOM     37  C   UNL     1      -1.647   2.690  -3.887  1.00  0.00     0.007 A 
ATOM     38  C   UNL     1      -2.174   1.691  -6.025  1.00  0.00     0.007 A 
ATOM     39  C   UNL     1      -2.855   2.221  -3.370  1.00  0.00     0.046 A 
ATOM     40  C   UNL     1      -3.384   1.221  -5.508  1.00  0.00     0.046 A 
ATOM     41  C   UNL     1      -3.714   1.492  -4.184  1.00  0.00     0.115 A 
BRANCH  41  42
ATOM     42  O   UNL     1      -4.883   1.050  -3.640  1.00  0.00    -0.508 OA
ATOM     43  H   UNL     1      -4.979   1.449  -2.759  1.00  0.00     0.293 HD
ENDBRANCH  41  42
ENDBRANCH  35  36
ENDBRANCH  34  35
BRANCH  34  44
ATOM     44  C   UNL     1      -1.388   4.587  -7.106  1.00  0.00     0.243 C 
ATOM     45  O   UNL     1      -2.290   4.512  -7.936  1.00  0.00    -0.273 OA
ATOM     46  N   UNL     1      -1.350   5.591  -6.162  1.00  0.00    -0.341 N 
ATOM     47  H   UNL     1      -0.526   5.684  -5.573  1.00  0.00     0.164 HD
BRANCH  46  48
ATOM     48  C   UNL     1      -2.394   6.609  -6.025  1.00  0.00     0.196 C 
BRANCH  48  49
ATOM     49  C   UNL     1      -3.529   6.127  -5.105  1.00  0.00     0.072 C 
BRANCH  49  50
ATOM     50  C   UNL     1      -4.695   5.549  -5.874  1.00  0.00    -0.045 A 
ATOM     51  C   UNL     1      -5.257   6.270  -6.938  1.00  0.00     0.007 A 
ATOM     52  C   UNL     1      -5.243   4.308  -5.527  1.00  0.00     0.007 A 
ATOM     53  C   UNL     1      -6.342   5.753  -7.646  1.00  0.00     0.046 A 
ATOM     54  C   UNL     1      -6.330   3.791  -6.235  1.00  0.00     0.046 A 
ATOM     55  C   UNL     1      -6.870   4.518  -7.290  1.00  0.00     0.115 A 
BRANCH  55  56
ATOM     56  O   UNL     1      -7.931   4.049  -8.006  1.00  0.00    -0.508 OA
ATOM     57  H   UNL     1      -8.100   3.132  -7.738  1.00  0.00     0.293 HD
ENDBRANCH  55  56
ENDBRANCH  49  50
ENDBRANCH  48  49
BRANCH  48  58
ATOM     58  C   UNL     1      -1.772   7.888  -5.449  1.00  0.00     0.326 C 
ATOM     59  O   UNL     1      -2.360   8.869  -5.023  1.00  0.00    -0.250 OA
BRANCH  58  60
ATOM     60  O   UNL     1      -0.415   7.866  -5.422  1.00  0.00    -0.480 OA
ATOM     61  H   UNL     1      -0.168   8.753  -5.762  1.00  0.00     0.296 HD
ENDBRANCH  58  60
ENDBRANCH  48  58
ENDBRANCH  46  48
ENDBRANCH  34  44
ENDBRANCH  32  34
ENDBRANCH  25  30
ENDBRANCH  23  25
ENDBRANCH   2  23
TORSDOF 28
ENDMDL
MODEL 24
REMARK VINA RESULT:    -5.647      2.385      7.764
REMARK INTER + INTRA:         -18.644
REMARK INTER:                 -15.108
REMARK INTRA:                  -3.536
REMARK UNBOUND:                -4.579
REMARK SMILES CCCCCCC[C@H](N)[C@H](O)C(=O)N[C@H](C)C(=O)N(C)[C@H](CC(C)C)C(=O)N[C@@H](Cc1ccc(O)cc1)C(=O)N[C@@H](Cc1ccc(O)cc1)C(=O)O
REMARK SMILES IDX 18 1 17 2 15 3 16 4 14 5 12 6 13 7 10 9 11 10 8 12 9 13 7 16
REMARK SMILES IDX 6 17 5 18 4 19 3 20 2 21 1 22 19 23 20 24 21 25 22 26 23 27
REMARK SMILES IDX 24 28 25 29 26 30 27 31 28 32 29 34 30 35 31 36 32 37 37 38
REMARK SMILES IDX 33 39 36 40 34 41 35 42 38 44 39 45 40 46 41 48 42 49 43 50
REMARK SMILES IDX 44 51 49 52 45 53 48 54 46 55 47 56 50 58 51 59 52 60
REMARK H PARENT 14 8 11 11 9 14 9 15 28 33 35 43 40 47 47 57 52 61
ROOT
ATOM      1  O   UNL     1     -11.466  -4.664   4.176  1.00  0.00    -0.272 OA
ATOM      2  C   UNL     1     -12.306  -4.287   3.346  1.00  0.00     0.245 C 
ENDROOT
BRANCH   2   3
ATOM      3  C   UNL     1     -12.221  -2.836   2.810  1.00  0.00     0.168 C 
ATOM      4  C   UNL     1     -12.218  -1.834   3.959  1.00  0.00     0.041 C 
BRANCH   3   5
ATOM      5  N   UNL     1     -11.132  -2.593   1.876  1.00  0.00    -0.342 N 
ATOM      6  C   UNL     1     -11.094  -1.468   1.080  1.00  0.00     0.251 C 
ATOM      7  O   UNL     1     -11.980  -0.620   1.065  1.00  0.00    -0.272 OA
ATOM      8  H   UNL     1     -10.357  -3.244   1.775  1.00  0.00     0.164 HD
BRANCH   6   9
ATOM      9  C   UNL     1      -9.787  -1.350   0.280  1.00  0.00     0.219 C 
BRANCH   9  10
ATOM     10  O   UNL     1      -9.170  -0.064   0.417  1.00  0.00    -0.382 OA
ATOM     11  H   UNL     1      -9.918   0.528   0.653  1.00  0.00     0.211 HD
ENDBRANCH   9  10
BRANCH   9  12
ATOM     12  C   UNL     1      -8.775  -2.482   0.596  1.00  0.00     0.089 C 
BRANCH  12  13
ATOM     13  N   UNL     1      -9.185  -3.695  -0.149  1.00  0.00    -0.325 NA
ATOM     14  H   UNL     1     -10.160  -3.908   0.067  1.00  0.00     0.119 HD
ATOM     15  H   UNL     1      -8.653  -4.495   0.204  1.00  0.00     0.119 HD
ENDBRANCH  12  13
BRANCH  12  16
ATOM     16  C   UNL     1      -7.288  -2.161   0.313  1.00  0.00     0.022 C 
BRANCH  16  17
ATOM     17  C   UNL     1      -6.295  -2.130   1.483  1.00  0.00     0.002 C 
BRANCH  17  18
ATOM     18  C   UNL     1      -6.702  -1.232   2.649  1.00  0.00     0.000 C 
BRANCH  18  19
ATOM     19  C   UNL     1      -6.932  -1.984   3.966  1.00  0.00    -0.000 C 
BRANCH  19  20
ATOM     20  C   UNL     1      -5.979  -1.609   5.105  1.00  0.00    -0.000 C 
BRANCH  20  21
ATOM     21  C   UNL     1      -4.838  -0.694   4.654  1.00  0.00    -0.003 C 
ATOM     22  C   UNL     1      -4.882   0.644   5.376  1.00  0.00     0.004 C 
ENDBRANCH  20  21
ENDBRANCH  19  20
ENDBRANCH  18  19
ENDBRANCH  17  18
ENDBRANCH  16  17
ENDBRANCH  12  16
ENDBRANCH   9  12
ENDBRANCH   6   9
ENDBRANCH   3   5
ENDBRANCH   2   3
BRANCH   2  23
ATOM     23  N   UNL     1     -13.223  -5.193   2.824  1.00  0.00    -0.332 N 
ATOM     24  C   UNL     1     -14.487  -4.825   2.203  1.00  0.00     0.147 C 
BRANCH  23  25
ATOM     25  C   UNL     1     -12.891  -6.643   2.757  1.00  0.00     0.174 C 
BRANCH  25  26
ATOM     26  C   UNL     1     -13.741  -7.408   1.715  1.00  0.00     0.038 C 
BRANCH  26  27
ATOM     27  C   UNL     1     -13.103  -7.645   0.328  1.00  0.00    -0.015 C 
ATOM     28  C   UNL     1     -14.045  -7.284  -0.819  1.00  0.00     0.007 C 
ATOM     29  C   UNL     1     -11.754  -6.951   0.154  1.00  0.00     0.007 C 
ENDBRANCH  26  27
ENDBRANCH  25  26
BRANCH  25  30
ATOM     30  C   UNL     1     -12.935  -7.265   4.171  1.00  0.00     0.243 C 
ATOM     31  O   UNL     1     -13.997  -7.512   4.741  1.00  0.00    -0.273 OA
ATOM     32  N   UNL     1     -11.716  -7.515   4.747  1.00  0.00    -0.342 N 
ATOM     33  H   UNL     1     -10.884  -7.416   4.158  1.00  0.00     0.164 HD
BRANCH  32  34
ATOM     34  C   UNL     1     -11.564  -8.077   6.092  1.00  0.00     0.175 C 
BRANCH  34  35
ATOM     35  C   UNL     1     -10.415  -9.095   6.146  1.00  0.00     0.070 C 
BRANCH  35  36
ATOM     36  C   UNL     1     -10.708 -10.258   7.068  1.00  0.00    -0.045 A 
ATOM     37  C   UNL     1     -10.090 -10.329   8.326  1.00  0.00     0.007 A 
ATOM     38  C   UNL     1     -11.575 -11.286   6.675  1.00  0.00     0.007 A 
ATOM     39  C   UNL     1     -10.343 -11.405   9.177  1.00  0.00     0.046 A 
ATOM     40  C   UNL     1     -11.827 -12.365   7.526  1.00  0.00     0.046 A 
ATOM     41  C   UNL     1     -11.209 -12.413   8.771  1.00  0.00     0.115 A 
BRANCH  41  42
ATOM     42  O   UNL     1     -11.427 -13.448   9.632  1.00  0.00    -0.508 OA
ATOM     43  H   UNL     1     -10.655 -13.526  10.217  1.00  0.00     0.293 HD
ENDBRANCH  41  42
ENDBRANCH  35  36
ENDBRANCH  34  35
BRANCH  34  44
ATOM     44  C   UNL     1     -11.345  -6.906   7.077  1.00  0.00     0.243 C 
ATOM     45  O   UNL     1     -12.056  -6.677   8.051  1.00  0.00    -0.273 OA
ATOM     46  N   UNL     1     -10.339  -6.046   6.692  1.00  0.00    -0.341 N 
ATOM     47  H   UNL     1      -9.855  -6.214   5.814  1.00  0.00     0.164 HD
BRANCH  46  48
ATOM     48  C   UNL     1      -9.994  -4.828   7.430  1.00  0.00     0.196 C 
BRANCH  48  49
ATOM     49  C   UNL     1      -9.395  -5.160   8.807  1.00  0.00     0.072 C 
BRANCH  49  50
ATOM     50  C   UNL     1      -9.488  -4.003   9.776  1.00  0.00    -0.045 A 
ATOM     51  C   UNL     1      -8.322  -3.469  10.342  1.00  0.00     0.007 A 
ATOM     52  C   UNL     1     -10.730  -3.464  10.137  1.00  0.00     0.007 A 
ATOM     53  C   UNL     1      -8.397  -2.410  11.247  1.00  0.00     0.046 A 
ATOM     54  C   UNL     1     -10.805  -2.405  11.044  1.00  0.00     0.046 A 
ATOM     55  C   UNL     1      -9.636  -1.886  11.591  1.00  0.00     0.115 A 
BRANCH  55  56
ATOM     56  O   UNL     1      -9.667  -0.853  12.480  1.00  0.00    -0.508 OA
ATOM     57  H   UNL     1      -9.798  -1.218  13.370  1.00  0.00     0.293 HD
ENDBRANCH  55  56
ENDBRANCH  49  50
ENDBRANCH  48  49
BRANCH  48  58
ATOM     58  C   UNL     1      -8.981  -4.018   6.609  1.00  0.00     0.326 C 
ATOM     59  O   UNL     1      -9.199  -3.017   5.946  1.00  0.00    -0.250 OA
BRANCH  58  60
ATOM     60  O   UNL     1      -7.716  -4.505   6.676  1.00  0.00    -0.480 OA
ATOM     61  H   UNL     1      -7.851  -5.476   6.738  1.00  0.00     0.296 HD
ENDBRANCH  58  60
ENDBRANCH  48  58
ENDBRANCH  46  48
ENDBRANCH  34  44
ENDBRANCH  32  34
ENDBRANCH  25  30
ENDBRANCH  23  25
ENDBRANCH   2  23
TORSDOF 28
ENDMDL
MODEL 25
REMARK VINA RESULT:    -5.646     13.772     18.902
REMARK INTER + INTRA:         -18.642
REMARK INTER:                 -14.066
REMARK INTRA:                  -4.576
REMARK UNBOUND:                -4.579
REMARK SMILES CCCCCCC[C@H](N)[C@H](O)C(=O)N[C@H](C)C(=O)N(C)[C@H](CC(C)C)C(=O)N[C@@H](Cc1ccc(O)cc1)C(=O)N[C@@H](Cc1ccc(O)cc1)C(=O)O
REMARK SMILES IDX 18 1 17 2 15 3 16 4 14 5 12 6 13 7 10 9 11 10 8 12 9 13 7 16
REMARK SMILES IDX 6 17 5 18 4 19 3 20 2 21 1 22 19 23 20 24 21 25 22 26 23 27
REMARK SMILES IDX 24 28 25 29 26 30 27 31 28 32 29 34 30 35 31 36 32 37 37 38
REMARK SMILES IDX 33 39 36 40 34 41 35 42 38 44 39 45 40 46 41 48 42 49 43 50
REMARK SMILES IDX 44 51 49 52 45 53 48 54 46 55 47 56 50 58 51 59 52 60
REMARK H PARENT 14 8 11 11 9 14 9 15 28 33 35 43 40 47 47 57 52 61
ROOT
ATOM      1  O   UNL     1      -0.438   2.754  -3.674  1.00  0.00    -0.272 OA
ATOM      2  C   UNL     1      -1.379   2.596  -4.465  1.00  0.00     0.245 C 
ENDROOT
BRANCH   2   3
ATOM      3  C   UNL     1      -2.826   2.636  -3.912  1.00  0.00     0.168 C 
ATOM      4  C   UNL     1      -2.822   2.795  -2.396  1.00  0.00     0.041 C 
BRANCH   3   5
ATOM      5  N   UNL     1      -3.700   3.604  -4.556  1.00  0.00    -0.342 N 
ATOM      6  C   UNL     1      -4.649   3.224  -5.482  1.00  0.00     0.251 C 
ATOM      7  O   UNL     1      -4.801   2.068  -5.860  1.00  0.00    -0.272 OA
ATOM      8  H   UNL     1      -3.644   4.598  -4.349  1.00  0.00     0.164 HD
BRANCH   6   9
ATOM      9  C   UNL     1      -5.550   4.390  -5.921  1.00  0.00     0.219 C 
BRANCH   9  10
ATOM     10  O   UNL     1      -6.118   4.190  -7.221  1.00  0.00    -0.382 OA
ATOM     11  H   UNL     1      -5.389   4.437  -7.832  1.00  0.00     0.211 HD
ENDBRANCH   9  10
BRANCH   9  12
ATOM     12  C   UNL     1      -6.653   4.732  -4.886  1.00  0.00     0.089 C 
BRANCH  12  13
ATOM     13  N   UNL     1      -6.506   3.820  -3.728  1.00  0.00    -0.325 NA
ATOM     14  H   UNL     1      -6.712   2.864  -4.025  1.00  0.00     0.119 HD
ATOM     15  H   UNL     1      -7.224   4.045  -3.036  1.00  0.00     0.119 HD
ENDBRANCH  12  13
BRANCH  12  16
ATOM     16  C   UNL     1      -6.697   6.201  -4.402  1.00  0.00     0.022 C 
BRANCH  16  17
ATOM     17  C   UNL     1      -6.837   7.324  -5.438  1.00  0.00     0.002 C 
BRANCH  17  18
ATOM     18  C   UNL     1      -5.650   8.282  -5.515  1.00  0.00     0.000 C 
BRANCH  18  19
ATOM     19  C   UNL     1      -5.397   8.853  -6.917  1.00  0.00    -0.000 C 
BRANCH  19  20
ATOM     20  C   UNL     1      -5.716   7.901  -8.074  1.00  0.00    -0.000 C 
BRANCH  20  21
ATOM     21  C   UNL     1      -4.529   7.018  -8.467  1.00  0.00    -0.003 C 
ATOM     22  C   UNL     1      -4.557   6.680  -9.950  1.00  0.00     0.004 C 
ENDBRANCH  20  21
ENDBRANCH  19  20
ENDBRANCH  18  19
ENDBRANCH  17  18
ENDBRANCH  16  17
ENDBRANCH  12  16
ENDBRANCH   9  12
ENDBRANCH   6   9
ENDBRANCH   3   5
ENDBRANCH   2   3
BRANCH   2  23
ATOM     23  N   UNL     1      -1.134   2.510  -5.831  1.00  0.00    -0.332 N 
ATOM     24  C   UNL     1      -1.248   1.290  -6.616  1.00  0.00     0.147 C 
BRANCH  23  25
ATOM     25  C   UNL     1      -0.850   3.739  -6.622  1.00  0.00     0.174 C 
BRANCH  25  26
ATOM     26  C   UNL     1      -1.277   3.615  -8.103  1.00  0.00     0.038 C 
BRANCH  26  27
ATOM     27  C   UNL     1      -0.557   4.529  -9.119  1.00  0.00    -0.015 C 
ATOM     28  C   UNL     1      -0.677   4.017 -10.554  1.00  0.00     0.007 C 
ATOM     29  C   UNL     1      -0.989   5.991  -9.033  1.00  0.00     0.007 C 
ENDBRANCH  26  27
ENDBRANCH  25  26
BRANCH  25  30
ATOM     30  C   UNL     1       0.625   4.165  -6.434  1.00  0.00     0.243 C 
ATOM     31  O   UNL     1       1.558   3.405  -6.690  1.00  0.00    -0.273 OA
ATOM     32  N   UNL     1       0.820   5.436  -5.960  1.00  0.00    -0.342 N 
ATOM     33  H   UNL     1       0.004   6.052  -5.906  1.00  0.00     0.164 HD
BRANCH  32  34
ATOM     34  C   UNL     1       2.147   5.998  -5.695  1.00  0.00     0.175 C 
BRANCH  34  35
ATOM     35  C   UNL     1       2.567   6.981  -6.799  1.00  0.00     0.070 C 
BRANCH  35  36
ATOM     36  C   UNL     1       3.569   6.384  -7.762  1.00  0.00    -0.045 A 
ATOM     37  C   UNL     1       3.125   5.624  -8.855  1.00  0.00     0.007 A 
ATOM     38  C   UNL     1       4.945   6.559  -7.568  1.00  0.00     0.007 A 
ATOM     39  C   UNL     1       4.042   5.058  -9.741  1.00  0.00     0.046 A 
ATOM     40  C   UNL     1       5.864   5.992  -8.454  1.00  0.00     0.046 A 
ATOM     41  C   UNL     1       5.403   5.247  -9.534  1.00  0.00     0.115 A 
BRANCH  41  42
ATOM     42  O   UNL     1       6.266   4.674 -10.421  1.00  0.00    -0.508 OA
ATOM     43  H   UNL     1       6.989   4.261  -9.920  1.00  0.00     0.293 HD
ENDBRANCH  41  42
ENDBRANCH  35  36
ENDBRANCH  34  35
BRANCH  34  44
ATOM     44  C   UNL     1       2.113   6.672  -4.305  1.00  0.00     0.243 C 
ATOM     45  O   UNL     1       1.098   7.114  -3.773  1.00  0.00    -0.273 OA
ATOM     46  N   UNL     1       3.363   6.857  -3.754  1.00  0.00    -0.341 N 
ATOM     47  H   UNL     1       4.184   6.578  -4.286  1.00  0.00     0.164 HD
BRANCH  46  48
ATOM     48  C   UNL     1       3.588   7.534  -2.475  1.00  0.00     0.196 C 
BRANCH  48  49
ATOM     49  C   UNL     1       4.065   6.548  -1.395  1.00  0.00     0.072 C 
BRANCH  49  50
ATOM     50  C   UNL     1       2.945   6.096  -0.485  1.00  0.00    -0.045 A 
ATOM     51  C   UNL     1       2.875   6.579   0.830  1.00  0.00     0.007 A 
ATOM     52  C   UNL     1       1.981   5.181  -0.927  1.00  0.00     0.007 A 
ATOM     53  C   UNL     1       1.854   6.159   1.683  1.00  0.00     0.046 A 
ATOM     54  C   UNL     1       0.960   4.759  -0.073  1.00  0.00     0.046 A 
ATOM     55  C   UNL     1       0.905   5.254   1.226  1.00  0.00     0.115 A 
BRANCH  55  56
ATOM     56  O   UNL     1      -0.075   4.867   2.091  1.00  0.00    -0.508 OA
ATOM     57  H   UNL     1      -0.202   5.573   2.745  1.00  0.00     0.293 HD
ENDBRANCH  55  56
ENDBRANCH  49  50
ENDBRANCH  48  49
BRANCH  48  58
ATOM     58  C   UNL     1       4.642   8.632  -2.670  1.00  0.00     0.326 C 
ATOM     59  O   UNL     1       4.459   9.769  -3.074  1.00  0.00    -0.250 OA
BRANCH  58  60
ATOM     60  O   UNL     1       5.897   8.245  -2.328  1.00  0.00    -0.480 OA
ATOM     61  H   UNL     1       5.859   7.267  -2.398  1.00  0.00     0.296 HD
ENDBRANCH  58  60
ENDBRANCH  48  58
ENDBRANCH  46  48
ENDBRANCH  34  44
ENDBRANCH  32  34
ENDBRANCH  25  30
ENDBRANCH  23  25
ENDBRANCH   2  23
TORSDOF 28
ENDMDL
MODEL 26
REMARK VINA RESULT:    -5.628     15.547     20.710
REMARK INTER + INTRA:         -18.598
REMARK INTER:                 -14.637
REMARK INTRA:                  -3.961
REMARK UNBOUND:                -4.579
REMARK SMILES CCCCCCC[C@H](N)[C@H](O)C(=O)N[C@H](C)C(=O)N(C)[C@H](CC(C)C)C(=O)N[C@@H](Cc1ccc(O)cc1)C(=O)N[C@@H](Cc1ccc(O)cc1)C(=O)O
REMARK SMILES IDX 18 1 17 2 15 3 16 4 14 5 12 6 13 7 10 9 11 10 8 12 9 13 7 16
REMARK SMILES IDX 6 17 5 18 4 19 3 20 2 21 1 22 19 23 20 24 21 25 22 26 23 27
REMARK SMILES IDX 24 28 25 29 26 30 27 31 28 32 29 34 30 35 31 36 32 37 37 38
REMARK SMILES IDX 33 39 36 40 34 41 35 42 38 44 39 45 40 46 41 48 42 49 43 50
REMARK SMILES IDX 44 51 49 52 45 53 48 54 46 55 47 56 50 58 51 59 52 60
REMARK H PARENT 14 8 11 11 9 14 9 15 28 33 35 43 40 47 47 57 52 61
ROOT
ATOM      1  O   UNL     1       1.079   4.194  -7.047  1.00  0.00    -0.272 OA
ATOM      2  C   UNL     1       1.123   5.115  -7.876  1.00  0.00     0.245 C 
ENDROOT
BRANCH   2   3
ATOM      3  C   UNL     1       1.788   4.844  -9.249  1.00  0.00     0.168 C 
ATOM      4  C   UNL     1       0.877   5.287 -10.388  1.00  0.00     0.041 C 
BRANCH   3   5
ATOM      5  N   UNL     1       3.134   5.378  -9.392  1.00  0.00    -0.342 N 
ATOM      6  C   UNL     1       4.192   4.892  -8.654  1.00  0.00     0.251 C 
ATOM      7  O   UNL     1       4.077   4.016  -7.803  1.00  0.00    -0.272 OA
ATOM      8  H   UNL     1       3.345   6.131 -10.042  1.00  0.00     0.164 HD
BRANCH   6   9
ATOM      9  C   UNL     1       5.539   5.504  -9.072  1.00  0.00     0.219 C 
BRANCH   9  10
ATOM     10  O   UNL     1       5.774   5.411 -10.482  1.00  0.00    -0.382 OA
ATOM     11  H   UNL     1       4.915   5.678 -10.877  1.00  0.00     0.211 HD
ENDBRANCH   9  10
BRANCH   9  12
ATOM     12  C   UNL     1       5.725   6.962  -8.577  1.00  0.00     0.089 C 
BRANCH  12  13
ATOM     13  N   UNL     1       4.708   7.236  -7.536  1.00  0.00    -0.325 NA
ATOM     14  H   UNL     1       5.060   6.919  -6.631  1.00  0.00     0.119 HD
ATOM     15  H   UNL     1       3.884   6.659  -7.719  1.00  0.00     0.119 HD
ENDBRANCH  12  13
BRANCH  12  16
ATOM     16  C   UNL     1       7.135   7.324  -8.051  1.00  0.00     0.022 C 
BRANCH  16  17
ATOM     17  C   UNL     1       7.740   6.500  -6.907  1.00  0.00     0.002 C 
BRANCH  17  18
ATOM     18  C   UNL     1       8.046   7.288  -5.636  1.00  0.00     0.000 C 
BRANCH  18  19
ATOM     19  C   UNL     1       8.466   6.416  -4.445  1.00  0.00    -0.000 C 
BRANCH  19  20
ATOM     20  C   UNL     1       9.968   6.141  -4.338  1.00  0.00    -0.000 C 
BRANCH  20  21
ATOM     21  C   UNL     1      10.304   5.023  -3.348  1.00  0.00    -0.003 C 
ATOM     22  C   UNL     1       9.224   3.952  -3.332  1.00  0.00     0.004 C 
ENDBRANCH  20  21
ENDBRANCH  19  20
ENDBRANCH  18  19
ENDBRANCH  17  18
ENDBRANCH  16  17
ENDBRANCH  12  16
ENDBRANCH   9  12
ENDBRANCH   6   9
ENDBRANCH   3   5
ENDBRANCH   2   3
BRANCH   2  23
ATOM     23  N   UNL     1       0.478   6.318  -7.614  1.00  0.00    -0.332 N 
ATOM     24  C   UNL     1       1.110   7.627  -7.685  1.00  0.00     0.147 C 
BRANCH  23  25
ATOM     25  C   UNL     1      -0.988   6.344  -7.357  1.00  0.00     0.174 C 
BRANCH  25  26
ATOM     26  C   UNL     1      -1.729   7.408  -8.202  1.00  0.00     0.038 C 
BRANCH  26  27
ATOM     27  C   UNL     1      -3.024   6.959  -8.914  1.00  0.00    -0.015 C 
ATOM     28  C   UNL     1      -2.993   5.482  -9.306  1.00  0.00     0.007 C 
ATOM     29  C   UNL     1      -4.292   7.280  -8.128  1.00  0.00     0.007 C 
ENDBRANCH  26  27
ENDBRANCH  25  26
BRANCH  25  30
ATOM     30  C   UNL     1      -1.261   6.455  -5.840  1.00  0.00     0.243 C 
ATOM     31  O   UNL     1      -1.902   7.390  -5.361  1.00  0.00    -0.273 OA
ATOM     32  N   UNL     1      -0.739   5.450  -5.068  1.00  0.00    -0.342 N 
ATOM     33  H   UNL     1      -0.344   4.638  -5.550  1.00  0.00     0.164 HD
BRANCH  32  34
ATOM     34  C   UNL     1      -0.875   5.405  -3.609  1.00  0.00     0.175 C 
BRANCH  34  35
ATOM     35  C   UNL     1      -1.473   4.068  -3.144  1.00  0.00     0.070 C 
BRANCH  35  36
ATOM     36  C   UNL     1      -1.314   2.969  -4.170  1.00  0.00    -0.045 A 
ATOM     37  C   UNL     1      -0.204   2.112  -4.115  1.00  0.00     0.007 A 
ATOM     38  C   UNL     1      -2.253   2.802  -5.197  1.00  0.00     0.007 A 
ATOM     39  C   UNL     1      -0.042   1.104  -5.065  1.00  0.00     0.046 A 
ATOM     40  C   UNL     1      -2.091   1.793  -6.149  1.00  0.00     0.046 A 
ATOM     41  C   UNL     1      -0.986   0.951  -6.073  1.00  0.00     0.115 A 
BRANCH  41  42
ATOM     42  O   UNL     1      -0.789  -0.045  -6.983  1.00  0.00    -0.508 OA
ATOM     43  H   UNL     1      -1.404   0.092  -7.722  1.00  0.00     0.293 HD
ENDBRANCH  41  42
ENDBRANCH  35  36
ENDBRANCH  34  35
BRANCH  34  44
ATOM     44  C   UNL     1       0.518   5.661  -2.991  1.00  0.00     0.243 C 
ATOM     45  O   UNL     1       1.554   5.782  -3.639  1.00  0.00    -0.273 OA
ATOM     46  N   UNL     1       0.523   5.613  -1.613  1.00  0.00    -0.341 N 
ATOM     47  H   UNL     1      -0.340   5.393  -1.123  1.00  0.00     0.164 HD
BRANCH  46  48
ATOM     48  C   UNL     1       1.737   5.758  -0.806  1.00  0.00     0.196 C 
BRANCH  48  49
ATOM     49  C   UNL     1       2.131   7.236  -0.648  1.00  0.00     0.072 C 
BRANCH  49  50
ATOM     50  C   UNL     1       3.586   7.488  -0.971  1.00  0.00    -0.045 A 
ATOM     51  C   UNL     1       4.140   8.759  -0.754  1.00  0.00     0.007 A 
ATOM     52  C   UNL     1       4.392   6.475  -1.505  1.00  0.00     0.007 A 
ATOM     53  C   UNL     1       5.478   9.007  -1.061  1.00  0.00     0.046 A 
ATOM     54  C   UNL     1       5.732   6.724  -1.813  1.00  0.00     0.046 A 
ATOM     55  C   UNL     1       6.264   7.988  -1.587  1.00  0.00     0.115 A 
BRANCH  55  56
ATOM     56  O   UNL     1       7.566   8.272  -1.874  1.00  0.00    -0.508 OA
ATOM     57  H   UNL     1       8.066   8.292  -1.043  1.00  0.00     0.293 HD
ENDBRANCH  55  56
ENDBRANCH  49  50
ENDBRANCH  48  49
BRANCH  48  58
ATOM     58  C   UNL     1       1.494   5.139   0.578  1.00  0.00     0.326 C 
ATOM     59  O   UNL     1       0.748   4.213   0.853  1.00  0.00    -0.250 OA
BRANCH  58  60
ATOM     60  O   UNL     1       2.226   5.716   1.564  1.00  0.00    -0.480 OA
ATOM     61  H   UNL     1       2.721   6.422   1.095  1.00  0.00     0.296 HD
ENDBRANCH  58  60
ENDBRANCH  48  58
ENDBRANCH  46  48
ENDBRANCH  34  44
ENDBRANCH  32  34
ENDBRANCH  25  30
ENDBRANCH  23  25
ENDBRANCH   2  23
TORSDOF 28
ENDMDL
MODEL 27
REMARK VINA RESULT:    -5.622      2.609      6.688
REMARK INTER + INTRA:         -18.581
REMARK INTER:                 -13.926
REMARK INTRA:                  -4.655
REMARK UNBOUND:                -4.579
REMARK SMILES CCCCCCC[C@H](N)[C@H](O)C(=O)N[C@H](C)C(=O)N(C)[C@H](CC(C)C)C(=O)N[C@@H](Cc1ccc(O)cc1)C(=O)N[C@@H](Cc1ccc(O)cc1)C(=O)O
REMARK SMILES IDX 18 1 17 2 15 3 16 4 14 5 12 6 13 7 10 9 11 10 8 12 9 13 7 16
REMARK SMILES IDX 6 17 5 18 4 19 3 20 2 21 1 22 19 23 20 24 21 25 22 26 23 27
REMARK SMILES IDX 24 28 25 29 26 30 27 31 28 32 29 34 30 35 31 36 32 37 37 38
REMARK SMILES IDX 33 39 36 40 34 41 35 42 38 44 39 45 40 46 41 48 42 49 43 50
REMARK SMILES IDX 44 51 49 52 45 53 48 54 46 55 47 56 50 58 51 59 52 60
REMARK H PARENT 14 8 11 11 9 14 9 15 28 33 35 43 40 47 47 57 52 61
ROOT
ATOM      1  O   UNL     1     -12.530  -2.078   7.197  1.00  0.00    -0.272 OA
ATOM      2  C   UNL     1     -11.674  -2.268   8.074  1.00  0.00     0.245 C 
ENDROOT
BRANCH   2   3
ATOM      3  C   UNL     1     -11.387  -3.721   8.527  1.00  0.00     0.168 C 
ATOM      4  C   UNL     1     -11.852  -3.943   9.963  1.00  0.00     0.041 C 
BRANCH   3   5
ATOM      5  N   UNL     1     -11.887  -4.751   7.630  1.00  0.00    -0.342 N 
ATOM      6  C   UNL     1     -11.040  -5.625   6.982  1.00  0.00     0.251 C 
ATOM      7  O   UNL     1      -9.818  -5.577   7.075  1.00  0.00    -0.272 OA
ATOM      8  H   UNL     1     -12.881  -4.866   7.446  1.00  0.00     0.164 HD
BRANCH   6   9
ATOM      9  C   UNL     1     -11.794  -6.714   6.202  1.00  0.00     0.219 C 
BRANCH   9  10
ATOM     10  O   UNL     1     -13.215  -6.535   6.236  1.00  0.00    -0.382 OA
ATOM     11  H   UNL     1     -13.565  -7.421   5.997  1.00  0.00     0.211 HD
ENDBRANCH   9  10
BRANCH   9  12
ATOM     12  C   UNL     1     -11.293  -6.874   4.742  1.00  0.00     0.089 C 
BRANCH  12  13
ATOM     13  N   UNL     1     -10.285  -7.959   4.710  1.00  0.00    -0.325 NA
ATOM     14  H   UNL     1     -10.419  -8.517   3.865  1.00  0.00     0.119 HD
ATOM     15  H   UNL     1     -10.465  -8.601   5.485  1.00  0.00     0.119 HD
ENDBRANCH  12  13
BRANCH  12  16
ATOM     16  C   UNL     1     -12.385  -7.132   3.676  1.00  0.00     0.022 C 
BRANCH  16  17
ATOM     17  C   UNL     1     -11.986  -7.174   2.194  1.00  0.00     0.002 C 
BRANCH  17  18
ATOM     18  C   UNL     1     -11.676  -5.815   1.571  1.00  0.00     0.000 C 
BRANCH  18  19
ATOM     19  C   UNL     1     -12.848  -4.826   1.612  1.00  0.00    -0.000 C 
BRANCH  19  20
ATOM     20  C   UNL     1     -12.614  -3.575   2.463  1.00  0.00    -0.000 C 
BRANCH  20  21
ATOM     21  C   UNL     1     -13.380  -2.351   1.954  1.00  0.00    -0.003 C 
ATOM     22  C   UNL     1     -13.974  -2.603   0.577  1.00  0.00     0.004 C 
ENDBRANCH  20  21
ENDBRANCH  19  20
ENDBRANCH  18  19
ENDBRANCH  17  18
ENDBRANCH  16  17
ENDBRANCH  12  16
ENDBRANCH   9  12
ENDBRANCH   6   9
ENDBRANCH   3   5
ENDBRANCH   2   3
BRANCH   2  23
ATOM     23  N   UNL     1     -10.911  -1.204   8.542  1.00  0.00    -0.332 N 
ATOM     24  C   UNL     1     -11.457   0.063   9.007  1.00  0.00     0.147 C 
BRANCH  23  25
ATOM     25  C   UNL     1      -9.440  -1.355   8.719  1.00  0.00     0.174 C 
BRANCH  25  26
ATOM     26  C   UNL     1      -8.939  -0.819  10.081  1.00  0.00     0.038 C 
BRANCH  26  27
ATOM     27  C   UNL     1      -8.719  -1.858  11.204  1.00  0.00    -0.015 C 
ATOM     28  C   UNL     1      -8.228  -3.202  10.668  1.00  0.00     0.007 C 
ATOM     29  C   UNL     1      -7.806  -1.359  12.321  1.00  0.00     0.007 C 
ENDBRANCH  26  27
ENDBRANCH  25  26
BRANCH  25  30
ATOM     30  C   UNL     1      -8.694  -0.758   7.504  1.00  0.00     0.243 C 
ATOM     31  O   UNL     1      -8.345   0.421   7.471  1.00  0.00    -0.273 OA
ATOM     32  N   UNL     1      -8.456  -1.626   6.469  1.00  0.00    -0.342 N 
ATOM     33  H   UNL     1      -8.649  -2.618   6.629  1.00  0.00     0.164 HD
BRANCH  32  34
ATOM     34  C   UNL     1      -7.786  -1.229   5.228  1.00  0.00     0.175 C 
BRANCH  34  35
ATOM     35  C   UNL     1      -6.293  -1.592   5.258  1.00  0.00     0.070 C 
BRANCH  35  36
ATOM     36  C   UNL     1      -5.423  -0.541   4.606  1.00  0.00    -0.045 A 
ATOM     37  C   UNL     1      -5.595   0.813   4.931  1.00  0.00     0.007 A 
ATOM     38  C   UNL     1      -4.454  -0.896   3.659  1.00  0.00     0.007 A 
ATOM     39  C   UNL     1      -4.806   1.791   4.325  1.00  0.00     0.046 A 
ATOM     40  C   UNL     1      -3.665   0.082   3.050  1.00  0.00     0.046 A 
ATOM     41  C   UNL     1      -3.847   1.419   3.390  1.00  0.00     0.115 A 
BRANCH  41  42
ATOM     42  O   UNL     1      -3.100   2.405   2.819  1.00  0.00    -0.508 OA
ATOM     43  H   UNL     1      -2.165   2.142   2.860  1.00  0.00     0.293 HD
ENDBRANCH  41  42
ENDBRANCH  35  36
ENDBRANCH  34  35
BRANCH  34  44
ATOM     44  C   UNL     1      -8.521  -1.906   4.050  1.00  0.00     0.243 C 
ATOM     45  O   UNL     1      -9.305  -2.844   4.167  1.00  0.00    -0.273 OA
ATOM     46  N   UNL     1      -8.119  -1.445   2.814  1.00  0.00    -0.341 N 
ATOM     47  H   UNL     1      -7.380  -0.747   2.764  1.00  0.00     0.164 HD
BRANCH  46  48
ATOM     48  C   UNL     1      -8.625  -1.983   1.549  1.00  0.00     0.196 C 
BRANCH  48  49
ATOM     49  C   UNL     1      -9.732  -1.090   0.964  1.00  0.00     0.072 C 
BRANCH  49  50
ATOM     50  C   UNL     1     -10.386  -1.699  -0.256  1.00  0.00    -0.045 A 
ATOM     51  C   UNL     1     -11.063  -0.878  -1.169  1.00  0.00     0.007 A 
ATOM     52  C   UNL     1     -10.346  -3.081  -0.481  1.00  0.00     0.007 A 
ATOM     53  C   UNL     1     -11.682  -1.430  -2.291  1.00  0.00     0.046 A 
ATOM     54  C   UNL     1     -10.966  -3.634  -1.604  1.00  0.00     0.046 A 
ATOM     55  C   UNL     1     -11.628  -2.802  -2.500  1.00  0.00     0.115 A 
BRANCH  55  56
ATOM     56  O   UNL     1     -12.247  -3.302  -3.608  1.00  0.00    -0.508 OA
ATOM     57  H   UNL     1     -12.581  -2.558  -4.134  1.00  0.00     0.293 HD
ENDBRANCH  55  56
ENDBRANCH  49  50
ENDBRANCH  48  49
BRANCH  48  58
ATOM     58  C   UNL     1      -7.464  -2.085   0.550  1.00  0.00     0.326 C 
ATOM     59  O   UNL     1      -6.774  -1.173   0.122  1.00  0.00    -0.250 OA
BRANCH  58  60
ATOM     60  O   UNL     1      -7.211  -3.354   0.141  1.00  0.00    -0.480 OA
ATOM     61  H   UNL     1      -6.478  -3.639   0.729  1.00  0.00     0.296 HD
ENDBRANCH  58  60
ENDBRANCH  48  58
ENDBRANCH  46  48
ENDBRANCH  34  44
ENDBRANCH  32  34
ENDBRANCH  25  30
ENDBRANCH  23  25
ENDBRANCH   2  23
TORSDOF 28
ENDMDL
MODEL 28
REMARK VINA RESULT:    -5.609     11.365     17.732
REMARK INTER + INTRA:         -18.549
REMARK INTER:                 -14.004
REMARK INTRA:                  -4.545
REMARK UNBOUND:                -4.579
REMARK SMILES CCCCCCC[C@H](N)[C@H](O)C(=O)N[C@H](C)C(=O)N(C)[C@H](CC(C)C)C(=O)N[C@@H](Cc1ccc(O)cc1)C(=O)N[C@@H](Cc1ccc(O)cc1)C(=O)O
REMARK SMILES IDX 18 1 17 2 15 3 16 4 14 5 12 6 13 7 10 9 11 10 8 12 9 13 7 16
REMARK SMILES IDX 6 17 5 18 4 19 3 20 2 21 1 22 19 23 20 24 21 25 22 26 23 27
REMARK SMILES IDX 24 28 25 29 26 30 27 31 28 32 29 34 30 35 31 36 32 37 37 38
REMARK SMILES IDX 33 39 36 40 34 41 35 42 38 44 39 45 40 46 41 48 42 49 43 50
REMARK SMILES IDX 44 51 49 52 45 53 48 54 46 55 47 56 50 58 51 59 52 60
REMARK H PARENT 14 8 11 11 9 14 9 15 28 33 35 43 40 47 47 57 52 61
ROOT
ATOM      1  O   UNL     1      -3.246   3.319  -6.330  1.00  0.00    -0.272 OA
ATOM      2  C   UNL     1      -4.137   4.153  -6.109  1.00  0.00     0.245 C 
ENDROOT
BRANCH   2   3
ATOM      3  C   UNL     1      -5.382   3.710  -5.300  1.00  0.00     0.168 C 
ATOM      4  C   UNL     1      -6.456   3.145  -6.225  1.00  0.00     0.041 C 
BRANCH   3   5
ATOM      5  N   UNL     1      -5.102   2.817  -4.187  1.00  0.00    -0.342 N 
ATOM      6  C   UNL     1      -5.901   2.782  -3.063  1.00  0.00     0.251 C 
ATOM      7  O   UNL     1      -6.869   3.516  -2.898  1.00  0.00    -0.272 OA
ATOM      8  H   UNL     1      -4.305   2.185  -4.194  1.00  0.00     0.164 HD
BRANCH   6   9
ATOM      9  C   UNL     1      -5.499   1.668  -2.083  1.00  0.00     0.219 C 
BRANCH   9  10
ATOM     10  O   UNL     1      -4.860   0.563  -2.735  1.00  0.00    -0.382 OA
ATOM     11  H   UNL     1      -5.026   0.730  -3.688  1.00  0.00     0.211 HD
ENDBRANCH   9  10
BRANCH   9  12
ATOM     12  C   UNL     1      -4.640   2.180  -0.898  1.00  0.00     0.089 C 
BRANCH  12  13
ATOM     13  N   UNL     1      -4.113   3.519  -1.247  1.00  0.00    -0.325 NA
ATOM     14  H   UNL     1      -3.447   3.428  -2.016  1.00  0.00     0.119 HD
ATOM     15  H   UNL     1      -3.565   3.874  -0.460  1.00  0.00     0.119 HD
ENDBRANCH  12  13
BRANCH  12  16
ATOM     16  C   UNL     1      -5.344   2.228   0.479  1.00  0.00     0.022 C 
BRANCH  16  17
ATOM     17  C   UNL     1      -6.596   1.369   0.708  1.00  0.00     0.002 C 
BRANCH  17  18
ATOM     18  C   UNL     1      -6.551   0.483   1.951  1.00  0.00     0.000 C 
BRANCH  18  19
ATOM     19  C   UNL     1      -5.815  -0.847   1.742  1.00  0.00    -0.000 C 
BRANCH  19  20
ATOM     20  C   UNL     1      -6.167  -1.590   0.451  1.00  0.00    -0.000 C 
BRANCH  20  21
ATOM     21  C   UNL     1      -4.942  -2.171  -0.260  1.00  0.00    -0.003 C 
ATOM     22  C   UNL     1      -4.466  -3.450   0.411  1.00  0.00     0.004 C 
ENDBRANCH  20  21
ENDBRANCH  19  20
ENDBRANCH  18  19
ENDBRANCH  17  18
ENDBRANCH  16  17
ENDBRANCH  12  16
ENDBRANCH   9  12
ENDBRANCH   6   9
ENDBRANCH   3   5
ENDBRANCH   2   3
BRANCH   2  23
ATOM     23  N   UNL     1      -3.954   5.481  -6.477  1.00  0.00    -0.332 N 
ATOM     24  C   UNL     1      -3.928   6.600  -5.546  1.00  0.00     0.147 C 
BRANCH  23  25
ATOM     25  C   UNL     1      -3.635   5.833  -7.888  1.00  0.00     0.174 C 
BRANCH  25  26
ATOM     26  C   UNL     1      -4.749   5.418  -8.878  1.00  0.00     0.038 C 
BRANCH  26  27
ATOM     27  C   UNL     1      -6.189   5.863  -8.538  1.00  0.00    -0.015 C 
ATOM     28  C   UNL     1      -6.306   7.376  -8.359  1.00  0.00     0.007 C 
ATOM     29  C   UNL     1      -7.231   5.357  -9.532  1.00  0.00     0.007 C 
ENDBRANCH  26  27
ENDBRANCH  25  26
BRANCH  25  30
ATOM     30  C   UNL     1      -2.235   5.296  -8.266  1.00  0.00     0.243 C 
ATOM     31  O   UNL     1      -2.004   4.806  -9.371  1.00  0.00    -0.273 OA
ATOM     32  N   UNL     1      -1.278   5.396  -7.290  1.00  0.00    -0.342 N 
ATOM     33  H   UNL     1      -1.508   5.940  -6.455  1.00  0.00     0.164 HD
BRANCH  32  34
ATOM     34  C   UNL     1       0.096   4.915  -7.463  1.00  0.00     0.175 C 
BRANCH  34  35
ATOM     35  C   UNL     1       1.098   6.079  -7.474  1.00  0.00     0.070 C 
BRANCH  35  36
ATOM     36  C   UNL     1       2.384   5.736  -8.192  1.00  0.00    -0.045 A 
ATOM     37  C   UNL     1       2.500   5.965  -9.572  1.00  0.00     0.007 A 
ATOM     38  C   UNL     1       3.463   5.167  -7.503  1.00  0.00     0.007 A 
ATOM     39  C   UNL     1       3.678   5.639 -10.246  1.00  0.00     0.046 A 
ATOM     40  C   UNL     1       4.642   4.839  -8.177  1.00  0.00     0.046 A 
ATOM     41  C   UNL     1       4.739   5.080  -9.544  1.00  0.00     0.115 A 
BRANCH  41  42
ATOM     42  O   UNL     1       5.870   4.773 -10.240  1.00  0.00    -0.508 OA
ATOM     43  H   UNL     1       6.636   5.078  -9.726  1.00  0.00     0.293 HD
ENDBRANCH  41  42
ENDBRANCH  35  36
ENDBRANCH  34  35
BRANCH  34  44
ATOM     44  C   UNL     1       0.395   3.906  -6.330  1.00  0.00     0.243 C 
ATOM     45  O   UNL     1       1.153   2.947  -6.439  1.00  0.00    -0.273 OA
ATOM     46  N   UNL     1      -0.375   4.102  -5.204  1.00  0.00    -0.341 N 
ATOM     47  H   UNL     1      -1.074   4.841  -5.205  1.00  0.00     0.164 HD
BRANCH  46  48
ATOM     48  C   UNL     1      -0.318   3.231  -4.027  1.00  0.00     0.196 C 
BRANCH  48  49
ATOM     49  C   UNL     1      -0.785   3.969  -2.761  1.00  0.00     0.072 C 
BRANCH  49  50
ATOM     50  C   UNL     1       0.345   4.679  -2.051  1.00  0.00    -0.045 A 
ATOM     51  C   UNL     1       0.516   4.514  -0.669  1.00  0.00     0.007 A 
ATOM     52  C   UNL     1       1.218   5.523  -2.750  1.00  0.00     0.007 A 
ATOM     53  C   UNL     1       1.546   5.175  -0.001  1.00  0.00     0.046 A 
ATOM     54  C   UNL     1       2.249   6.186  -2.081  1.00  0.00     0.046 A 
ATOM     55  C   UNL     1       2.405   6.005  -0.711  1.00  0.00     0.115 A 
BRANCH  55  56
ATOM     56  O   UNL     1       3.398   6.634  -0.020  1.00  0.00    -0.508 OA
ATOM     57  H   UNL     1       3.858   5.974   0.523  1.00  0.00     0.293 HD
ENDBRANCH  55  56
ENDBRANCH  49  50
ENDBRANCH  48  49
BRANCH  48  58
ATOM     58  C   UNL     1      -1.211   2.006  -4.269  1.00  0.00     0.326 C 
ATOM     59  O   UNL     1      -0.939   1.011  -4.920  1.00  0.00    -0.250 OA
BRANCH  58  60
ATOM     60  O   UNL     1      -2.418   2.088  -3.656  1.00  0.00    -0.480 OA
ATOM     61  H   UNL     1      -2.627   3.046  -3.694  1.00  0.00     0.296 HD
ENDBRANCH  58  60
ENDBRANCH  48  58
ENDBRANCH  46  48
ENDBRANCH  34  44
ENDBRANCH  32  34
ENDBRANCH  25  30
ENDBRANCH  23  25
ENDBRANCH   2  23
TORSDOF 28
ENDMDL
MODEL 29
REMARK VINA RESULT:    -5.595     15.364     21.908
REMARK INTER + INTRA:         -18.514
REMARK INTER:                 -15.011
REMARK INTRA:                  -3.503
REMARK UNBOUND:                -4.579
REMARK SMILES CCCCCCC[C@H](N)[C@H](O)C(=O)N[C@H](C)C(=O)N(C)[C@H](CC(C)C)C(=O)N[C@@H](Cc1ccc(O)cc1)C(=O)N[C@@H](Cc1ccc(O)cc1)C(=O)O
REMARK SMILES IDX 18 1 17 2 15 3 16 4 14 5 12 6 13 7 10 9 11 10 8 12 9 13 7 16
REMARK SMILES IDX 6 17 5 18 4 19 3 20 2 21 1 22 19 23 20 24 21 25 22 26 23 27
REMARK SMILES IDX 24 28 25 29 26 30 27 31 28 32 29 34 30 35 31 36 32 37 37 38
REMARK SMILES IDX 33 39 36 40 34 41 35 42 38 44 39 45 40 46 41 48 42 49 43 50
REMARK SMILES IDX 44 51 49 52 45 53 48 54 46 55 47 56 50 58 51 59 52 60
REMARK H PARENT 14 8 11 11 9 14 9 15 28 33 35 43 40 47 47 57 52 61
ROOT
ATOM      1  O   UNL     1       2.140   5.463  -6.675  1.00  0.00    -0.272 OA
ATOM      2  C   UNL     1       2.612   6.150  -7.594  1.00  0.00     0.245 C 
ENDROOT
BRANCH   2   3
ATOM      3  C   UNL     1       3.079   7.592  -7.275  1.00  0.00     0.168 C 
ATOM      4  C   UNL     1       2.154   8.249  -6.256  1.00  0.00     0.041 C 
BRANCH   3   5
ATOM      5  N   UNL     1       4.478   7.712  -6.894  1.00  0.00    -0.342 N 
ATOM      6  C   UNL     1       5.309   8.654  -7.462  1.00  0.00     0.251 C 
ATOM      7  O   UNL     1       4.953   9.424  -8.347  1.00  0.00    -0.272 OA
ATOM      8  H   UNL     1       4.896   7.104  -6.194  1.00  0.00     0.164 HD
BRANCH   6   9
ATOM      9  C   UNL     1       6.699   8.692  -6.806  1.00  0.00     0.219 C 
BRANCH   9  10
ATOM     10  O   UNL     1       6.640   8.955  -5.399  1.00  0.00    -0.382 OA
ATOM     11  H   UNL     1       6.015   9.710  -5.331  1.00  0.00     0.211 HD
ENDBRANCH   9  10
BRANCH   9  12
ATOM     12  C   UNL     1       7.543   7.424  -7.095  1.00  0.00     0.089 C 
BRANCH  12  13
ATOM     13  N   UNL     1       8.576   7.767  -8.099  1.00  0.00    -0.325 NA
ATOM     14  H   UNL     1       8.118   8.098  -8.951  1.00  0.00     0.119 HD
ATOM     15  H   UNL     1       9.067   6.914  -8.375  1.00  0.00     0.119 HD
ENDBRANCH  12  13
BRANCH  12  16
ATOM     16  C   UNL     1       8.201   6.753  -5.865  1.00  0.00     0.022 C 
BRANCH  16  17
ATOM     17  C   UNL     1       9.657   7.092  -5.519  1.00  0.00     0.002 C 
BRANCH  17  18
ATOM     18  C   UNL     1      10.030   6.909  -4.049  1.00  0.00     0.000 C 
BRANCH  18  19
ATOM     19  C   UNL     1      10.319   5.454  -3.655  1.00  0.00    -0.000 C 
BRANCH  19  20
ATOM     20  C   UNL     1       9.110   4.668  -3.140  1.00  0.00    -0.000 C 
BRANCH  20  21
ATOM     21  C   UNL     1       8.588   5.182  -1.796  1.00  0.00    -0.003 C 
ATOM     22  C   UNL     1       9.723   5.397  -0.806  1.00  0.00     0.004 C 
ENDBRANCH  20  21
ENDBRANCH  19  20
ENDBRANCH  18  19
ENDBRANCH  17  18
ENDBRANCH  16  17
ENDBRANCH  12  16
ENDBRANCH   9  12
ENDBRANCH   6   9
ENDBRANCH   3   5
ENDBRANCH   2   3
BRANCH   2  23
ATOM     23  N   UNL     1       2.827   5.584  -8.846  1.00  0.00    -0.332 N 
ATOM     24  C   UNL     1       3.978   4.767  -9.197  1.00  0.00     0.147 C 
BRANCH  23  25
ATOM     25  C   UNL     1       1.784   5.684  -9.903  1.00  0.00     0.174 C 
BRANCH  25  26
ATOM     26  C   UNL     1       2.226   6.550 -11.106  1.00  0.00     0.038 C 
BRANCH  26  27
ATOM     27  C   UNL     1       3.127   7.767 -10.799  1.00  0.00    -0.015 C 
ATOM     28  C   UNL     1       4.495   7.667 -11.473  1.00  0.00     0.007 C 
ATOM     29  C   UNL     1       2.467   9.107 -11.117  1.00  0.00     0.007 C 
ENDBRANCH  26  27
ENDBRANCH  25  26
BRANCH  25  30
ATOM     30  C   UNL     1       0.437   6.123  -9.283  1.00  0.00     0.243 C 
ATOM     31  O   UNL     1       0.041   7.286  -9.347  1.00  0.00    -0.273 OA
ATOM     32  N   UNL     1      -0.277   5.136  -8.655  1.00  0.00    -0.342 N 
ATOM     33  H   UNL     1       0.048   4.172  -8.767  1.00  0.00     0.164 HD
BRANCH  32  34
ATOM     34  C   UNL     1      -1.560   5.374  -7.989  1.00  0.00     0.175 C 
BRANCH  34  35
ATOM     35  C   UNL     1      -2.741   5.083  -8.928  1.00  0.00     0.070 C 
BRANCH  35  36
ATOM     36  C   UNL     1      -3.932   5.976  -8.664  1.00  0.00    -0.045 A 
ATOM     37  C   UNL     1      -3.748   7.354  -8.473  1.00  0.00     0.007 A 
ATOM     38  C   UNL     1      -5.225   5.444  -8.582  1.00  0.00     0.007 A 
ATOM     39  C   UNL     1      -4.840   8.184  -8.215  1.00  0.00     0.046 A 
ATOM     40  C   UNL     1      -6.319   6.273  -8.323  1.00  0.00     0.046 A 
ATOM     41  C   UNL     1      -6.115   7.638  -8.142  1.00  0.00     0.115 A 
BRANCH  41  42
ATOM     42  O   UNL     1      -7.154   8.482  -7.885  1.00  0.00    -0.508 OA
ATOM     43  H   UNL     1      -7.049   9.273  -8.440  1.00  0.00     0.293 HD
ENDBRANCH  41  42
ENDBRANCH  35  36
ENDBRANCH  34  35
BRANCH  34  44
ATOM     44  C   UNL     1      -1.607   4.501  -6.715  1.00  0.00     0.243 C 
ATOM     45  O   UNL     1      -1.560   4.941  -5.570  1.00  0.00    -0.273 OA
ATOM     46  N   UNL     1      -1.576   3.147  -6.976  1.00  0.00    -0.341 N 
ATOM     47  H   UNL     1      -1.497   2.832  -7.939  1.00  0.00     0.164 HD
BRANCH  46  48
ATOM     48  C   UNL     1      -1.544   2.125  -5.927  1.00  0.00     0.196 C 
BRANCH  48  49
ATOM     49  C   UNL     1      -2.868   1.345  -5.865  1.00  0.00     0.072 C 
BRANCH  49  50
ATOM     50  C   UNL     1      -3.990   2.151  -5.250  1.00  0.00    -0.045 A 
ATOM     51  C   UNL     1      -4.046   2.324  -3.860  1.00  0.00     0.007 A 
ATOM     52  C   UNL     1      -4.993   2.716  -6.048  1.00  0.00     0.007 A 
ATOM     53  C   UNL     1      -5.083   3.054  -3.280  1.00  0.00     0.046 A 
ATOM     54  C   UNL     1      -6.032   3.446  -5.468  1.00  0.00     0.046 A 
ATOM     55  C   UNL     1      -6.068   3.610  -4.088  1.00  0.00     0.115 A 
BRANCH  55  56
ATOM     56  O   UNL     1      -7.065   4.315  -3.482  1.00  0.00    -0.508 OA
ATOM     57  H   UNL     1      -7.487   4.882  -4.147  1.00  0.00     0.293 HD
ENDBRANCH  55  56
ENDBRANCH  49  50
ENDBRANCH  48  49
BRANCH  48  58
ATOM     58  C   UNL     1      -0.388   1.156  -6.211  1.00  0.00     0.326 C 
ATOM     59  O   UNL     1       0.772   1.263  -5.848  1.00  0.00    -0.250 OA
BRANCH  58  60
ATOM     60  O   UNL     1      -0.757   0.071  -6.937  1.00  0.00    -0.480 OA
ATOM     61  H   UNL     1       0.071  -0.185  -7.398  1.00  0.00     0.296 HD
ENDBRANCH  58  60
ENDBRANCH  48  58
ENDBRANCH  46  48
ENDBRANCH  34  44
ENDBRANCH  32  34
ENDBRANCH  25  30
ENDBRANCH  23  25
ENDBRANCH   2  23
TORSDOF 28
ENDMDL
MODEL 30
REMARK VINA RESULT:    -5.590      9.165     15.169
REMARK INTER + INTRA:         -18.502
REMARK INTER:                 -14.838
REMARK INTRA:                  -3.664
REMARK UNBOUND:                -4.579
REMARK SMILES CCCCCCC[C@H](N)[C@H](O)C(=O)N[C@H](C)C(=O)N(C)[C@H](CC(C)C)C(=O)N[C@@H](Cc1ccc(O)cc1)C(=O)N[C@@H](Cc1ccc(O)cc1)C(=O)O
REMARK SMILES IDX 18 1 17 2 15 3 16 4 14 5 12 6 13 7 10 9 11 10 8 12 9 13 7 16
REMARK SMILES IDX 6 17 5 18 4 19 3 20 2 21 1 22 19 23 20 24 21 25 22 26 23 27
REMARK SMILES IDX 24 28 25 29 26 30 27 31 28 32 29 34 30 35 31 36 32 37 37 38
REMARK SMILES IDX 33 39 36 40 34 41 35 42 38 44 39 45 40 46 41 48 42 49 43 50
REMARK SMILES IDX 44 51 49 52 45 53 48 54 46 55 47 56 50 58 51 59 52 60
REMARK H PARENT 14 8 11 11 9 14 9 15 28 33 35 43 40 47 47 57 52 61
ROOT
ATOM      1  O   UNL     1      -6.428   3.174   1.202  1.00  0.00    -0.272 OA
ATOM      2  C   UNL     1      -5.855   2.571   0.283  1.00  0.00     0.245 C 
ENDROOT
BRANCH   2   3
ATOM      3  C   UNL     1      -5.384   1.116   0.531  1.00  0.00     0.168 C 
ATOM      4  C   UNL     1      -4.424   1.052   1.714  1.00  0.00     0.041 C 
BRANCH   3   5
ATOM      5  N   UNL     1      -6.455   0.139   0.648  1.00  0.00    -0.342 N 
ATOM      6  C   UNL     1      -6.311  -1.156   0.196  1.00  0.00     0.251 C 
ATOM      7  O   UNL     1      -5.303  -1.567  -0.369  1.00  0.00    -0.272 OA
ATOM      8  H   UNL     1      -7.351   0.374   1.067  1.00  0.00     0.164 HD
BRANCH   6   9
ATOM      9  C   UNL     1      -7.513  -2.046   0.551  1.00  0.00     0.219 C 
BRANCH   9  10
ATOM     10  O   UNL     1      -7.539  -3.266  -0.200  1.00  0.00    -0.382 OA
ATOM     11  H   UNL     1      -6.774  -3.771   0.153  1.00  0.00     0.211 HD
ENDBRANCH   9  10
BRANCH   9  12
ATOM     12  C   UNL     1      -7.629  -2.333   2.071  1.00  0.00     0.089 C 
BRANCH  12  13
ATOM     13  N   UNL     1      -6.308  -2.093   2.695  1.00  0.00    -0.325 NA
ATOM     14  H   UNL     1      -5.925  -2.981   3.025  1.00  0.00     0.119 HD
ATOM     15  H   UNL     1      -6.437  -1.528   3.538  1.00  0.00     0.119 HD
ENDBRANCH  12  13
BRANCH  12  16
ATOM     16  C   UNL     1      -8.725  -1.546   2.828  1.00  0.00     0.022 C 
BRANCH  16  17
ATOM     17  C   UNL     1      -8.323  -0.656   4.012  1.00  0.00     0.002 C 
BRANCH  17  18
ATOM     18  C   UNL     1      -8.156   0.825   3.677  1.00  0.00     0.000 C 
BRANCH  18  19
ATOM     19  C   UNL     1      -7.441   1.635   4.766  1.00  0.00    -0.000 C 
BRANCH  19  20
ATOM     20  C   UNL     1      -6.558   0.815   5.712  1.00  0.00    -0.000 C 
BRANCH  20  21
ATOM     21  C   UNL     1      -5.073   0.873   5.346  1.00  0.00    -0.003 C 
ATOM     22  C   UNL     1      -4.500  -0.519   5.130  1.00  0.00     0.004 C 
ENDBRANCH  20  21
ENDBRANCH  19  20
ENDBRANCH  18  19
ENDBRANCH  17  18
ENDBRANCH  16  17
ENDBRANCH  12  16
ENDBRANCH   9  12
ENDBRANCH   6   9
ENDBRANCH   3   5
ENDBRANCH   2   3
BRANCH   2  23
ATOM     23  N   UNL     1      -5.753   3.155  -0.976  1.00  0.00    -0.332 N 
ATOM     24  C   UNL     1      -6.827   3.880  -1.639  1.00  0.00     0.147 C 
BRANCH  23  25
ATOM     25  C   UNL     1      -4.447   3.180  -1.689  1.00  0.00     0.174 C 
BRANCH  25  26
ATOM     26  C   UNL     1      -3.696   4.523  -1.523  1.00  0.00     0.038 C 
BRANCH  26  27
ATOM     27  C   UNL     1      -2.243   4.452  -1.003  1.00  0.00    -0.015 C 
ATOM     28  C   UNL     1      -2.106   3.558   0.229  1.00  0.00     0.007 C 
ATOM     29  C   UNL     1      -1.233   4.049  -2.074  1.00  0.00     0.007 C 
ENDBRANCH  26  27
ENDBRANCH  25  26
BRANCH  25  30
ATOM     30  C   UNL     1      -4.636   2.753  -3.162  1.00  0.00     0.243 C 
ATOM     31  O   UNL     1      -5.092   1.651  -3.466  1.00  0.00    -0.273 OA
ATOM     32  N   UNL     1      -4.259   3.677  -4.102  1.00  0.00    -0.342 N 
ATOM     33  H   UNL     1      -4.024   4.617  -3.773  1.00  0.00     0.164 HD
BRANCH  32  34
ATOM     34  C   UNL     1      -4.342   3.434  -5.544  1.00  0.00     0.175 C 
BRANCH  34  35
ATOM     35  C   UNL     1      -4.501   4.748  -6.324  1.00  0.00     0.070 C 
BRANCH  35  36
ATOM     36  C   UNL     1      -5.694   4.735  -7.254  1.00  0.00    -0.045 A 
ATOM     37  C   UNL     1      -6.828   3.975  -6.930  1.00  0.00     0.007 A 
ATOM     38  C   UNL     1      -5.678   5.458  -8.454  1.00  0.00     0.007 A 
ATOM     39  C   UNL     1      -7.928   3.946  -7.788  1.00  0.00     0.046 A 
ATOM     40  C   UNL     1      -6.778   5.429  -9.314  1.00  0.00     0.046 A 
ATOM     41  C   UNL     1      -7.894   4.673  -8.972  1.00  0.00     0.115 A 
BRANCH  41  42
ATOM     42  O   UNL     1      -8.988   4.615  -9.784  1.00  0.00    -0.508 OA
ATOM     43  H   UNL     1      -8.685   4.649 -10.707  1.00  0.00     0.293 HD
ENDBRANCH  41  42
ENDBRANCH  35  36
ENDBRANCH  34  35
BRANCH  34  44
ATOM     44  C   UNL     1      -3.076   2.658  -5.973  1.00  0.00     0.243 C 
ATOM     45  O   UNL     1      -3.046   1.453  -6.206  1.00  0.00    -0.273 OA
ATOM     46  N   UNL     1      -1.929   3.423  -5.947  1.00  0.00    -0.341 N 
ATOM     47  H   UNL     1      -1.986   4.389  -5.633  1.00  0.00     0.164 HD
BRANCH  46  48
ATOM     48  C   UNL     1      -0.598   2.890  -6.247  1.00  0.00     0.196 C 
BRANCH  48  49
ATOM     49  C   UNL     1       0.504   3.904  -5.896  1.00  0.00     0.072 C 
BRANCH  49  50
ATOM     50  C   UNL     1       1.345   4.287  -7.092  1.00  0.00    -0.045 A 
ATOM     51  C   UNL     1       2.744   4.275  -6.995  1.00  0.00     0.007 A 
ATOM     52  C   UNL     1       0.749   4.676  -8.298  1.00  0.00     0.007 A 
ATOM     53  C   UNL     1       3.531   4.639  -8.088  1.00  0.00     0.046 A 
ATOM     54  C   UNL     1       1.536   5.042  -9.392  1.00  0.00     0.046 A 
ATOM     55  C   UNL     1       2.922   5.019  -9.278  1.00  0.00     0.115 A 
BRANCH  55  56
ATOM     56  O   UNL     1       3.726   5.370 -10.322  1.00  0.00    -0.508 OA
ATOM     57  H   UNL     1       3.533   6.290 -10.561  1.00  0.00     0.293 HD
ENDBRANCH  55  56
ENDBRANCH  49  50
ENDBRANCH  48  49
BRANCH  48  58
ATOM     58  C   UNL     1      -0.384   1.599  -5.445  1.00  0.00     0.326 C 
ATOM     59  O   UNL     1      -0.287   1.489  -4.234  1.00  0.00    -0.250 OA
BRANCH  58  60
ATOM     60  O   UNL     1      -0.317   0.486  -6.219  1.00  0.00    -0.480 OA
ATOM     61  H   UNL     1      -1.201   0.075  -6.100  1.00  0.00     0.296 HD
ENDBRANCH  58  60
ENDBRANCH  48  58
ENDBRANCH  46  48
ENDBRANCH  34  44
ENDBRANCH  32  34
ENDBRANCH  25  30
ENDBRANCH  23  25
ENDBRANCH   2  23
TORSDOF 28
ENDMDL
MODEL 31
REMARK VINA RESULT:    -5.550      2.450      8.737
REMARK INTER + INTRA:         -18.403
REMARK INTER:                 -14.301
REMARK INTRA:                  -4.102
REMARK UNBOUND:                -4.579
REMARK SMILES CCCCCCC[C@H](N)[C@H](O)C(=O)N[C@H](C)C(=O)N(C)[C@H](CC(C)C)C(=O)N[C@@H](Cc1ccc(O)cc1)C(=O)N[C@@H](Cc1ccc(O)cc1)C(=O)O
REMARK SMILES IDX 18 1 17 2 15 3 16 4 14 5 12 6 13 7 10 9 11 10 8 12 9 13 7 16
REMARK SMILES IDX 6 17 5 18 4 19 3 20 2 21 1 22 19 23 20 24 21 25 22 26 23 27
REMARK SMILES IDX 24 28 25 29 26 30 27 31 28 32 29 34 30 35 31 36 32 37 37 38
REMARK SMILES IDX 33 39 36 40 34 41 35 42 38 44 39 45 40 46 41 48 42 49 43 50
REMARK SMILES IDX 44 51 49 52 45 53 48 54 46 55 47 56 50 58 51 59 52 60
REMARK H PARENT 14 8 11 11 9 14 9 15 28 33 35 43 40 47 47 57 52 61
ROOT
ATOM      1  O   UNL     1     -10.985  -6.538   0.958  1.00  0.00    -0.272 OA
ATOM      2  C   UNL     1     -11.896  -5.729   1.189  1.00  0.00     0.245 C 
ENDROOT
BRANCH   2   3
ATOM      3  C   UNL     1     -12.749  -5.919   2.468  1.00  0.00     0.168 C 
ATOM      4  C   UNL     1     -13.892  -6.898   2.216  1.00  0.00     0.041 C 
BRANCH   3   5
ATOM      5  N   UNL     1     -11.993  -6.265   3.661  1.00  0.00    -0.342 N 
ATOM      6  C   UNL     1     -12.386  -5.853   4.917  1.00  0.00     0.251 C 
ATOM      7  O   UNL     1     -13.364  -5.141   5.120  1.00  0.00    -0.272 OA
ATOM      8  H   UNL     1     -11.144  -6.823   3.615  1.00  0.00     0.164 HD
BRANCH   6   9
ATOM      9  C   UNL     1     -11.521  -6.453   6.037  1.00  0.00     0.219 C 
BRANCH   9  10
ATOM     10  O   UNL     1     -10.281  -6.982   5.554  1.00  0.00    -0.382 OA
ATOM     11  H   UNL     1     -10.393  -7.954   5.646  1.00  0.00     0.211 HD
ENDBRANCH   9  10
BRANCH   9  12
ATOM     12  C   UNL     1     -11.280  -5.469   7.213  1.00  0.00     0.089 C 
BRANCH  12  13
ATOM     13  N   UNL     1     -12.592  -5.103   7.793  1.00  0.00    -0.325 NA
ATOM     14  H   UNL     1     -12.604  -4.101   7.991  1.00  0.00     0.119 HD
ATOM     15  H   UNL     1     -12.689  -5.557   8.704  1.00  0.00     0.119 HD
ENDBRANCH  12  13
BRANCH  12  16
ATOM     16  C   UNL     1     -10.326  -5.965   8.326  1.00  0.00     0.022 C 
BRANCH  16  17
ATOM     17  C   UNL     1      -9.211  -5.034   8.823  1.00  0.00     0.002 C 
BRANCH  17  18
ATOM     18  C   UNL     1      -9.458  -3.547   8.582  1.00  0.00     0.000 C 
BRANCH  18  19
ATOM     19  C   UNL     1      -8.628  -2.622   9.482  1.00  0.00    -0.000 C 
BRANCH  19  20
ATOM     20  C   UNL     1      -8.684  -2.948  10.977  1.00  0.00    -0.000 C 
BRANCH  20  21
ATOM     21  C   UNL     1      -7.308  -2.926  11.647  1.00  0.00    -0.003 C 
ATOM     22  C   UNL     1      -7.430  -2.866  13.162  1.00  0.00     0.004 C 
ENDBRANCH  20  21
ENDBRANCH  19  20
ENDBRANCH  18  19
ENDBRANCH  17  18
ENDBRANCH  16  17
ENDBRANCH  12  16
ENDBRANCH   9  12
ENDBRANCH   6   9
ENDBRANCH   3   5
ENDBRANCH   2   3
BRANCH   2  23
ATOM     23  N   UNL     1     -12.057  -4.612   0.376  1.00  0.00    -0.332 N 
ATOM     24  C   UNL     1     -12.528  -4.653  -1.000  1.00  0.00     0.147 C 
BRANCH  23  25
ATOM     25  C   UNL     1     -11.868  -3.244   0.934  1.00  0.00     0.174 C 
BRANCH  25  26
ATOM     26  C   UNL     1     -12.440  -2.137   0.018  1.00  0.00     0.038 C 
BRANCH  26  27
ATOM     27  C   UNL     1     -11.420  -1.264  -0.747  1.00  0.00    -0.015 C 
ATOM     28  C   UNL     1     -11.660  -1.272  -2.256  1.00  0.00     0.007 C 
ATOM     29  C   UNL     1     -11.334   0.168  -0.224  1.00  0.00     0.007 C 
ENDBRANCH  26  27
ENDBRANCH  25  26
BRANCH  25  30
ATOM     30  C   UNL     1     -10.386  -3.027   1.320  1.00  0.00     0.243 C 
ATOM     31  O   UNL     1      -9.470  -3.590   0.723  1.00  0.00    -0.273 OA
ATOM     32  N   UNL     1     -10.166  -2.175   2.371  1.00  0.00    -0.342 N 
ATOM     33  H   UNL     1     -10.964  -1.639   2.722  1.00  0.00     0.164 HD
BRANCH  32  34
ATOM     34  C   UNL     1      -8.830  -1.873   2.892  1.00  0.00     0.175 C 
BRANCH  34  35
ATOM     35  C   UNL     1      -8.091  -0.875   1.987  1.00  0.00     0.070 C 
BRANCH  35  36
ATOM     36  C   UNL     1      -6.923  -1.500   1.259  1.00  0.00    -0.045 A 
ATOM     37  C   UNL     1      -6.416  -2.740   1.678  1.00  0.00     0.007 A 
ATOM     38  C   UNL     1      -6.317  -0.847   0.177  1.00  0.00     0.007 A 
ATOM     39  C   UNL     1      -5.330  -3.318   1.021  1.00  0.00     0.046 A 
ATOM     40  C   UNL     1      -5.228  -1.425  -0.481  1.00  0.00     0.046 A 
ATOM     41  C   UNL     1      -4.746  -2.657  -0.053  1.00  0.00     0.115 A 
BRANCH  41  42
ATOM     42  O   UNL     1      -3.684  -3.255  -0.666  1.00  0.00    -0.508 OA
ATOM     43  H   UNL     1      -3.518  -2.794  -1.505  1.00  0.00     0.293 HD
ENDBRANCH  41  42
ENDBRANCH  35  36
ENDBRANCH  34  35
BRANCH  34  44
ATOM     44  C   UNL     1      -8.988  -1.338   4.333  1.00  0.00     0.243 C 
ATOM     45  O   UNL     1      -9.640  -1.895   5.212  1.00  0.00    -0.273 OA
ATOM     46  N   UNL     1      -8.430  -0.091   4.520  1.00  0.00    -0.341 N 
ATOM     47  H   UNL     1      -8.001   0.382   3.729  1.00  0.00     0.164 HD
BRANCH  46  48
ATOM     48  C   UNL     1      -8.511   0.647   5.783  1.00  0.00     0.196 C 
BRANCH  48  49
ATOM     49  C   UNL     1      -7.135   1.187   6.206  1.00  0.00     0.072 C 
BRANCH  49  50
ATOM     50  C   UNL     1      -6.018   0.695   5.314  1.00  0.00    -0.045 A 
ATOM     51  C   UNL     1      -5.473   1.546   4.341  1.00  0.00     0.007 A 
ATOM     52  C   UNL     1      -5.527  -0.612   5.428  1.00  0.00     0.007 A 
ATOM     53  C   UNL     1      -4.451   1.098   3.504  1.00  0.00     0.046 A 
ATOM     54  C   UNL     1      -4.504  -1.061   4.589  1.00  0.00     0.046 A 
ATOM     55  C   UNL     1      -3.974  -0.200   3.634  1.00  0.00     0.115 A 
BRANCH  55  56
ATOM     56  O   UNL     1      -2.976  -0.599   2.795  1.00  0.00    -0.508 OA
ATOM     57  H   UNL     1      -3.289  -1.366   2.290  1.00  0.00     0.293 HD
ENDBRANCH  55  56
ENDBRANCH  49  50
ENDBRANCH  48  49
BRANCH  48  58
ATOM     58  C   UNL     1      -9.493   1.814   5.615  1.00  0.00     0.326 C 
ATOM     59  O   UNL     1      -9.342   2.816   4.934  1.00  0.00    -0.250 OA
BRANCH  58  60
ATOM     60  O   UNL     1     -10.646   1.657   6.314  1.00  0.00    -0.480 OA
ATOM     61  H   UNL     1     -10.717   0.683   6.416  1.00  0.00     0.296 HD
ENDBRANCH  58  60
ENDBRANCH  48  58
ENDBRANCH  46  48
ENDBRANCH  34  44
ENDBRANCH  32  34
ENDBRANCH  25  30
ENDBRANCH  23  25
ENDBRANCH   2  23
TORSDOF 28
ENDMDL
MODEL 32
REMARK VINA RESULT:    -5.544      2.460      7.710
REMARK INTER + INTRA:         -18.387
REMARK INTER:                 -14.556
REMARK INTRA:                  -3.830
REMARK UNBOUND:                -4.579
REMARK SMILES CCCCCCC[C@H](N)[C@H](O)C(=O)N[C@H](C)C(=O)N(C)[C@H](CC(C)C)C(=O)N[C@@H](Cc1ccc(O)cc1)C(=O)N[C@@H](Cc1ccc(O)cc1)C(=O)O
REMARK SMILES IDX 18 1 17 2 15 3 16 4 14 5 12 6 13 7 10 9 11 10 8 12 9 13 7 16
REMARK SMILES IDX 6 17 5 18 4 19 3 20 2 21 1 22 19 23 20 24 21 25 22 26 23 27
REMARK SMILES IDX 24 28 25 29 26 30 27 31 28 32 29 34 30 35 31 36 32 37 37 38
REMARK SMILES IDX 33 39 36 40 34 41 35 42 38 44 39 45 40 46 41 48 42 49 43 50
REMARK SMILES IDX 44 51 49 52 45 53 48 54 46 55 47 56 50 58 51 59 52 60
REMARK H PARENT 14 8 11 11 9 14 9 15 28 33 35 43 40 47 47 57 52 61
ROOT
ATOM      1  O   UNL     1      -7.849  -2.360   5.430  1.00  0.00    -0.272 OA
ATOM      2  C   UNL     1      -8.590  -1.507   5.941  1.00  0.00     0.245 C 
ENDROOT
BRANCH   2   3
ATOM      3  C   UNL     1      -8.132  -0.027   5.932  1.00  0.00     0.168 C 
ATOM      4  C   UNL     1      -8.478   0.654   7.252  1.00  0.00     0.041 C 
BRANCH   3   5
ATOM      5  N   UNL     1      -6.740   0.180   5.564  1.00  0.00    -0.342 N 
ATOM      6  C   UNL     1      -6.363   1.156   4.666  1.00  0.00     0.251 C 
ATOM      7  O   UNL     1      -7.159   1.886   4.086  1.00  0.00    -0.272 OA
ATOM      8  H   UNL     1      -5.992  -0.388   5.954  1.00  0.00     0.164 HD
BRANCH   6   9
ATOM      9  C   UNL     1      -4.836   1.287   4.538  1.00  0.00     0.219 C 
BRANCH   9  10
ATOM     10  O   UNL     1      -4.130   0.384   5.398  1.00  0.00    -0.382 OA
ATOM     11  H   UNL     1      -4.846  -0.135   5.825  1.00  0.00     0.211 HD
ENDBRANCH   9  10
BRANCH   9  12
ATOM     12  C   UNL     1      -4.335   1.160   3.076  1.00  0.00     0.089 C 
BRANCH  12  13
ATOM     13  N   UNL     1      -3.305   2.198   2.844  1.00  0.00    -0.325 NA
ATOM     14  H   UNL     1      -3.759   3.060   2.536  1.00  0.00     0.119 HD
ATOM     15  H   UNL     1      -2.717   1.911   2.057  1.00  0.00     0.119 HD
ENDBRANCH  12  13
BRANCH  12  16
ATOM     16  C   UNL     1      -3.793  -0.229   2.663  1.00  0.00     0.022 C 
BRANCH  16  17
ATOM     17  C   UNL     1      -4.786  -1.340   2.297  1.00  0.00     0.002 C 
BRANCH  17  18
ATOM     18  C   UNL     1      -5.184  -1.390   0.823  1.00  0.00     0.000 C 
BRANCH  18  19
ATOM     19  C   UNL     1      -6.631  -1.838   0.582  1.00  0.00    -0.000 C 
BRANCH  19  20
ATOM     20  C   UNL     1      -7.474  -2.025   1.847  1.00  0.00    -0.000 C 
BRANCH  20  21
ATOM     21  C   UNL     1      -8.430  -0.859   2.108  1.00  0.00    -0.003 C 
ATOM     22  C   UNL     1      -9.848  -1.349   2.355  1.00  0.00     0.004 C 
ENDBRANCH  20  21
ENDBRANCH  19  20
ENDBRANCH  18  19
ENDBRANCH  17  18
ENDBRANCH  16  17
ENDBRANCH  12  16
ENDBRANCH   9  12
ENDBRANCH   6   9
ENDBRANCH   3   5
ENDBRANCH   2   3
BRANCH   2  23
ATOM     23  N   UNL     1      -9.854  -1.867   6.396  1.00  0.00    -0.332 N 
ATOM     24  C   UNL     1     -11.104  -1.353   5.855  1.00  0.00     0.147 C 
BRANCH  23  25
ATOM     25  C   UNL     1     -10.007  -2.936   7.421  1.00  0.00     0.174 C 
BRANCH  25  26
ATOM     26  C   UNL     1      -8.892  -2.906   8.493  1.00  0.00     0.038 C 
BRANCH  26  27
ATOM     27  C   UNL     1      -9.227  -3.526   9.868  1.00  0.00    -0.015 C 
ATOM     28  C   UNL     1      -8.258  -3.080  10.962  1.00  0.00     0.007 C 
ATOM     29  C   UNL     1     -10.672  -3.294  10.303  1.00  0.00     0.007 C 
ENDBRANCH  26  27
ENDBRANCH  25  26
BRANCH  25  30
ATOM     30  C   UNL     1     -10.172  -4.311   6.734  1.00  0.00     0.243 C 
ATOM     31  O   UNL     1      -9.227  -5.087   6.598  1.00  0.00    -0.273 OA
ATOM     32  N   UNL     1     -11.434  -4.602   6.284  1.00  0.00    -0.342 N 
ATOM     33  H   UNL     1     -12.192  -3.971   6.559  1.00  0.00     0.164 HD
BRANCH  32  34
ATOM     34  C   UNL     1     -11.770  -5.846   5.586  1.00  0.00     0.175 C 
BRANCH  34  35
ATOM     35  C   UNL     1     -12.600  -6.781   6.479  1.00  0.00     0.070 C 
BRANCH  35  36
ATOM     36  C   UNL     1     -11.763  -7.850   7.144  1.00  0.00    -0.045 A 
ATOM     37  C   UNL     1     -11.339  -7.684   8.471  1.00  0.00     0.007 A 
ATOM     38  C   UNL     1     -11.381  -9.002   6.445  1.00  0.00     0.007 A 
ATOM     39  C   UNL     1     -10.555  -8.659   9.089  1.00  0.00     0.046 A 
ATOM     40  C   UNL     1     -10.594  -9.978   7.063  1.00  0.00     0.046 A 
ATOM     41  C   UNL     1     -10.189  -9.797   8.381  1.00  0.00     0.115 A 
BRANCH  41  42
ATOM     42  O   UNL     1      -9.420 -10.724   9.021  1.00  0.00    -0.508 OA
ATOM     43  H   UNL     1      -9.378 -10.488   9.962  1.00  0.00     0.293 HD
ENDBRANCH  41  42
ENDBRANCH  35  36
ENDBRANCH  34  35
BRANCH  34  44
ATOM     44  C   UNL     1     -12.516  -5.478   4.284  1.00  0.00     0.243 C 
ATOM     45  O   UNL     1     -13.541  -4.804   4.239  1.00  0.00    -0.273 OA
ATOM     46  N   UNL     1     -11.997  -6.089   3.162  1.00  0.00    -0.341 N 
ATOM     47  H   UNL     1     -11.216  -6.733   3.267  1.00  0.00     0.164 HD
BRANCH  46  48
ATOM     48  C   UNL     1     -12.577  -5.946   1.825  1.00  0.00     0.196 C 
BRANCH  48  49
ATOM     49  C   UNL     1     -11.491  -5.987   0.736  1.00  0.00     0.072 C 
BRANCH  49  50
ATOM     50  C   UNL     1     -11.554  -4.796  -0.193  1.00  0.00    -0.045 A 
ATOM     51  C   UNL     1     -12.659  -4.627  -1.040  1.00  0.00     0.007 A 
ATOM     52  C   UNL     1     -10.511  -3.862  -0.239  1.00  0.00     0.007 A 
ATOM     53  C   UNL     1     -12.722  -3.540  -1.911  1.00  0.00     0.046 A 
ATOM     54  C   UNL     1     -10.573  -2.773  -1.112  1.00  0.00     0.046 A 
ATOM     55  C   UNL     1     -11.680  -2.621  -1.940  1.00  0.00     0.115 A 
BRANCH  55  56
ATOM     56  O   UNL     1     -11.779  -1.573  -2.807  1.00  0.00    -0.508 OA
ATOM     57  H   UNL     1     -11.791  -1.924  -3.711  1.00  0.00     0.293 HD
ENDBRANCH  55  56
ENDBRANCH  49  50
ENDBRANCH  48  49
BRANCH  48  58
ATOM     58  C   UNL     1     -13.582  -7.082   1.593  1.00  0.00     0.326 C 
ATOM     59  O   UNL     1     -13.586  -7.890   0.678  1.00  0.00    -0.250 OA
BRANCH  58  60
ATOM     60  O   UNL     1     -14.544  -7.158   2.547  1.00  0.00    -0.480 OA
ATOM     61  H   UNL     1     -14.583  -6.243   2.902  1.00  0.00     0.296 HD
ENDBRANCH  58  60
ENDBRANCH  48  58
ENDBRANCH  46  48
ENDBRANCH  34  44
ENDBRANCH  32  34
ENDBRANCH  25  30
ENDBRANCH  23  25
ENDBRANCH   2  23
TORSDOF 28
ENDMDL
MODEL 33
REMARK VINA RESULT:    -5.538      2.519      9.193
REMARK INTER + INTRA:         -18.372
REMARK INTER:                 -12.325
REMARK INTRA:                  -6.047
REMARK UNBOUND:                -4.579
REMARK SMILES CCCCCCC[C@H](N)[C@H](O)C(=O)N[C@H](C)C(=O)N(C)[C@H](CC(C)C)C(=O)N[C@@H](Cc1ccc(O)cc1)C(=O)N[C@@H](Cc1ccc(O)cc1)C(=O)O
REMARK SMILES IDX 18 1 17 2 15 3 16 4 14 5 12 6 13 7 10 9 11 10 8 12 9 13 7 16
REMARK SMILES IDX 6 17 5 18 4 19 3 20 2 21 1 22 19 23 20 24 21 25 22 26 23 27
REMARK SMILES IDX 24 28 25 29 26 30 27 31 28 32 29 34 30 35 31 36 32 37 37 38
REMARK SMILES IDX 33 39 36 40 34 41 35 42 38 44 39 45 40 46 41 48 42 49 43 50
REMARK SMILES IDX 44 51 49 52 45 53 48 54 46 55 47 56 50 58 51 59 52 60
REMARK H PARENT 14 8 11 11 9 14 9 15 28 33 35 43 40 47 47 57 52 61
ROOT
ATOM      1  O   UNL     1     -14.258  -2.818   2.958  1.00  0.00    -0.272 OA
ATOM      2  C   UNL     1     -13.793  -3.131   4.063  1.00  0.00     0.245 C 
ENDROOT
BRANCH   2   3
ATOM      3  C   UNL     1     -13.747  -4.630   4.451  1.00  0.00     0.168 C 
ATOM      4  C   UNL     1     -14.197  -5.505   3.285  1.00  0.00     0.041 C 
BRANCH   3   5
ATOM      5  N   UNL     1     -12.481  -5.080   5.008  1.00  0.00    -0.342 N 
ATOM      6  C   UNL     1     -12.344  -5.396   6.343  1.00  0.00     0.251 C 
ATOM      7  O   UNL     1     -13.252  -5.286   7.160  1.00  0.00    -0.272 OA
ATOM      8  H   UNL     1     -11.647  -5.177   4.434  1.00  0.00     0.164 HD
BRANCH   6   9
ATOM      9  C   UNL     1     -10.962  -5.981   6.677  1.00  0.00     0.219 C 
BRANCH   9  10
ATOM     10  O   UNL     1     -10.389  -6.704   5.581  1.00  0.00    -0.382 OA
ATOM     11  H   UNL     1      -9.977  -7.486   6.010  1.00  0.00     0.211 HD
ENDBRANCH   9  10
BRANCH   9  12
ATOM     12  C   UNL     1      -9.967  -4.922   7.219  1.00  0.00     0.089 C 
BRANCH  12  13
ATOM     13  N   UNL     1     -10.513  -3.576   6.928  1.00  0.00    -0.325 NA
ATOM     14  H   UNL     1     -11.533  -3.629   6.888  1.00  0.00     0.119 HD
ATOM     15  H   UNL     1     -10.223  -3.297   5.988  1.00  0.00     0.119 HD
ENDBRANCH  12  13
BRANCH  12  16
ATOM     16  C   UNL     1      -9.605  -5.036   8.719  1.00  0.00     0.022 C 
BRANCH  16  17
ATOM     17  C   UNL     1      -8.657  -4.001   9.339  1.00  0.00     0.002 C 
BRANCH  17  18
ATOM     18  C   UNL     1      -9.255  -3.185  10.484  1.00  0.00     0.000 C 
BRANCH  18  19
ATOM     19  C   UNL     1      -8.260  -2.227  11.153  1.00  0.00    -0.000 C 
BRANCH  19  20
ATOM     20  C   UNL     1      -6.974  -2.880  11.667  1.00  0.00    -0.000 C 
BRANCH  20  21
ATOM     21  C   UNL     1      -7.097  -3.399  13.102  1.00  0.00    -0.003 C 
ATOM     22  C   UNL     1      -7.924  -2.457  13.963  1.00  0.00     0.004 C 
ENDBRANCH  20  21
ENDBRANCH  19  20
ENDBRANCH  18  19
ENDBRANCH  17  18
ENDBRANCH  16  17
ENDBRANCH  12  16
ENDBRANCH   9  12
ENDBRANCH   6   9
ENDBRANCH   3   5
ENDBRANCH   2   3
BRANCH   2  23
ATOM     23  N   UNL     1     -13.215  -2.161   4.875  1.00  0.00    -0.332 N 
ATOM     24  C   UNL     1     -13.626  -1.875   6.242  1.00  0.00     0.147 C 
BRANCH  23  25
ATOM     25  C   UNL     1     -12.011  -1.416   4.414  1.00  0.00     0.174 C 
BRANCH  25  26
ATOM     26  C   UNL     1     -12.351  -0.022   3.835  1.00  0.00     0.038 C 
BRANCH  26  27
ATOM     27  C   UNL     1     -12.145   1.193   4.768  1.00  0.00    -0.015 C 
ATOM     28  C   UNL     1     -11.163   2.212   4.191  1.00  0.00     0.007 C 
ATOM     29  C   UNL     1     -13.449   1.874   5.175  1.00  0.00     0.007 C 
ENDBRANCH  26  27
ENDBRANCH  25  26
BRANCH  25  30
ATOM     30  C   UNL     1     -11.173  -2.297   3.460  1.00  0.00     0.243 C 
ATOM     31  O   UNL     1     -10.452  -3.202   3.877  1.00  0.00    -0.273 OA
ATOM     32  N   UNL     1     -11.282  -1.998   2.126  1.00  0.00    -0.342 N 
ATOM     33  H   UNL     1     -12.005  -1.330   1.848  1.00  0.00     0.164 HD
BRANCH  32  34
ATOM     34  C   UNL     1     -10.540  -2.710   1.082  1.00  0.00     0.175 C 
BRANCH  34  35
ATOM     35  C   UNL     1     -11.452  -3.078  -0.099  1.00  0.00     0.070 C 
BRANCH  35  36
ATOM     36  C   UNL     1     -11.968  -4.497  -0.020  1.00  0.00    -0.045 A 
ATOM     37  C   UNL     1     -13.120  -4.865  -0.731  1.00  0.00     0.007 A 
ATOM     38  C   UNL     1     -11.324  -5.453   0.777  1.00  0.00     0.007 A 
ATOM     39  C   UNL     1     -13.612  -6.168  -0.653  1.00  0.00     0.046 A 
ATOM     40  C   UNL     1     -11.817  -6.757   0.856  1.00  0.00     0.046 A 
ATOM     41  C   UNL     1     -12.957  -7.104   0.139  1.00  0.00     0.115 A 
BRANCH  41  42
ATOM     42  O   UNL     1     -13.472  -8.365   0.190  1.00  0.00    -0.508 OA
ATOM     43  H   UNL     1     -12.891  -8.952  -0.322  1.00  0.00     0.293 HD
ENDBRANCH  41  42
ENDBRANCH  35  36
ENDBRANCH  34  35
BRANCH  34  44
ATOM     44  C   UNL     1      -9.358  -1.818   0.642  1.00  0.00     0.243 C 
ATOM     45  O   UNL     1      -9.453  -0.873  -0.135  1.00  0.00    -0.273 OA
ATOM     46  N   UNL     1      -8.136  -2.260   1.104  1.00  0.00    -0.341 N 
ATOM     47  H   UNL     1      -8.095  -3.117   1.650  1.00  0.00     0.164 HD
BRANCH  46  48
ATOM     48  C   UNL     1      -6.865  -1.617   0.763  1.00  0.00     0.196 C 
BRANCH  48  49
ATOM     49  C   UNL     1      -6.497  -0.528   1.784  1.00  0.00     0.072 C 
BRANCH  49  50
ATOM     50  C   UNL     1      -7.023  -0.827   3.169  1.00  0.00    -0.045 A 
ATOM     51  C   UNL     1      -8.030  -0.023   3.723  1.00  0.00     0.007 A 
ATOM     52  C   UNL     1      -6.505  -1.887   3.924  1.00  0.00     0.007 A 
ATOM     53  C   UNL     1      -8.514  -0.281   5.006  1.00  0.00     0.046 A 
ATOM     54  C   UNL     1      -6.989  -2.145   5.208  1.00  0.00     0.046 A 
ATOM     55  C   UNL     1      -7.991  -1.339   5.738  1.00  0.00     0.115 A 
BRANCH  55  56
ATOM     56  O   UNL     1      -8.490  -1.557   6.988  1.00  0.00    -0.508 OA
ATOM     57  H   UNL     1      -9.109  -0.840   7.200  1.00  0.00     0.293 HD
ENDBRANCH  55  56
ENDBRANCH  49  50
ENDBRANCH  48  49
BRANCH  48  58
ATOM     58  C   UNL     1      -5.760  -2.683   0.726  1.00  0.00     0.326 C 
ATOM     59  O   UNL     1      -4.558  -2.505   0.836  1.00  0.00    -0.250 OA
BRANCH  58  60
ATOM     60  O   UNL     1      -6.231  -3.945   0.565  1.00  0.00    -0.480 OA
ATOM     61  H   UNL     1      -6.073  -4.126  -0.387  1.00  0.00     0.296 HD
ENDBRANCH  58  60
ENDBRANCH  48  58
ENDBRANCH  46  48
ENDBRANCH  34  44
ENDBRANCH  32  34
ENDBRANCH  25  30
ENDBRANCH  23  25
ENDBRANCH   2  23
TORSDOF 28
ENDMDL
MODEL 34
REMARK VINA RESULT:    -5.520      9.299     14.830
REMARK INTER + INTRA:         -18.327
REMARK INTER:                 -15.615
REMARK INTRA:                  -2.712
REMARK UNBOUND:                -4.579
REMARK SMILES CCCCCCC[C@H](N)[C@H](O)C(=O)N[C@H](C)C(=O)N(C)[C@H](CC(C)C)C(=O)N[C@@H](Cc1ccc(O)cc1)C(=O)N[C@@H](Cc1ccc(O)cc1)C(=O)O
REMARK SMILES IDX 18 1 17 2 15 3 16 4 14 5 12 6 13 7 10 9 11 10 8 12 9 13 7 16
REMARK SMILES IDX 6 17 5 18 4 19 3 20 2 21 1 22 19 23 20 24 21 25 22 26 23 27
REMARK SMILES IDX 24 28 25 29 26 30 27 31 28 32 29 34 30 35 31 36 32 37 37 38
REMARK SMILES IDX 33 39 36 40 34 41 35 42 38 44 39 45 40 46 41 48 42 49 43 50
REMARK SMILES IDX 44 51 49 52 45 53 48 54 46 55 47 56 50 58 51 59 52 60
REMARK H PARENT 14 8 11 11 9 14 9 15 28 33 35 43 40 47 47 57 52 61
ROOT
ATOM      1  O   UNL     1      -6.875   1.587  -0.695  1.00  0.00    -0.272 OA
ATOM      2  C   UNL     1      -5.691   1.220  -0.652  1.00  0.00     0.245 C 
ENDROOT
BRANCH   2   3
ATOM      3  C   UNL     1      -5.172   0.541   0.639  1.00  0.00     0.168 C 
ATOM      4  C   UNL     1      -4.659   1.581   1.630  1.00  0.00     0.041 C 
BRANCH   3   5
ATOM      5  N   UNL     1      -6.106  -0.385   1.261  1.00  0.00    -0.342 N 
ATOM      6  C   UNL     1      -5.937  -1.751   1.181  1.00  0.00     0.251 C 
ATOM      7  O   UNL     1      -5.027  -2.285   0.556  1.00  0.00    -0.272 OA
ATOM      8  H   UNL     1      -6.919  -0.060   1.778  1.00  0.00     0.164 HD
BRANCH   6   9
ATOM      9  C   UNL     1      -6.959  -2.526   2.029  1.00  0.00     0.219 C 
BRANCH   9  10
ATOM     10  O   UNL     1      -6.921  -2.159   3.413  1.00  0.00    -0.382 OA
ATOM     11  H   UNL     1      -6.871  -3.022   3.880  1.00  0.00     0.211 HD
ENDBRANCH   9  10
BRANCH   9  12
ATOM     12  C   UNL     1      -8.405  -2.434   1.474  1.00  0.00     0.089 C 
BRANCH  12  13
ATOM     13  N   UNL     1      -8.902  -1.056   1.691  1.00  0.00    -0.325 NA
ATOM     14  H   UNL     1      -8.105  -0.424   1.790  1.00  0.00     0.119 HD
ATOM     15  H   UNL     1      -9.387  -1.017   2.590  1.00  0.00     0.119 HD
ENDBRANCH  12  13
BRANCH  12  16
ATOM     16  C   UNL     1      -8.589  -2.839  -0.008  1.00  0.00     0.022 C 
BRANCH  16  17
ATOM     17  C   UNL     1      -9.989  -3.221  -0.509  1.00  0.00     0.002 C 
BRANCH  17  18
ATOM     18  C   UNL     1     -10.729  -2.116  -1.260  1.00  0.00     0.000 C 
BRANCH  18  19
ATOM     19  C   UNL     1     -12.187  -2.455  -1.593  1.00  0.00    -0.000 C 
BRANCH  19  20
ATOM     20  C   UNL     1     -12.487  -3.949  -1.754  1.00  0.00    -0.000 C 
BRANCH  20  21
ATOM     21  C   UNL     1     -13.935  -4.229  -2.164  1.00  0.00    -0.003 C 
ATOM     22  C   UNL     1     -14.266  -3.588  -3.503  1.00  0.00     0.004 C 
ENDBRANCH  20  21
ENDBRANCH  19  20
ENDBRANCH  18  19
ENDBRANCH  17  18
ENDBRANCH  16  17
ENDBRANCH  12  16
ENDBRANCH   9  12
ENDBRANCH   6   9
ENDBRANCH   3   5
ENDBRANCH   2   3
BRANCH   2  23
ATOM     23  N   UNL     1      -4.894   1.311  -1.788  1.00  0.00    -0.332 N 
ATOM     24  C   UNL     1      -4.633   0.210  -2.704  1.00  0.00     0.147 C 
BRANCH  23  25
ATOM     25  C   UNL     1      -4.343   2.626  -2.216  1.00  0.00     0.174 C 
BRANCH  25  26
ATOM     26  C   UNL     1      -4.657   3.764  -1.218  1.00  0.00     0.038 C 
BRANCH  26  27
ATOM     27  C   UNL     1      -3.483   4.682  -0.810  1.00  0.00    -0.015 C 
ATOM     28  C   UNL     1      -3.413   4.904   0.701  1.00  0.00     0.007 C 
ATOM     29  C   UNL     1      -2.133   4.215  -1.347  1.00  0.00     0.007 C 
ENDBRANCH  26  27
ENDBRANCH  25  26
BRANCH  25  30
ATOM     30  C   UNL     1      -4.773   2.936  -3.668  1.00  0.00     0.243 C 
ATOM     31  O   UNL     1      -5.934   2.788  -4.048  1.00  0.00    -0.273 OA
ATOM     32  N   UNL     1      -3.778   3.379  -4.501  1.00  0.00    -0.342 N 
ATOM     33  H   UNL     1      -2.875   3.610  -4.078  1.00  0.00     0.164 HD
BRANCH  32  34
ATOM     34  C   UNL     1      -3.996   3.695  -5.915  1.00  0.00     0.175 C 
BRANCH  34  35
ATOM     35  C   UNL     1      -4.775   5.009  -6.080  1.00  0.00     0.070 C 
BRANCH  35  36
ATOM     36  C   UNL     1      -5.873   4.912  -7.116  1.00  0.00    -0.045 A 
ATOM     37  C   UNL     1      -6.968   4.062  -6.900  1.00  0.00     0.007 A 
ATOM     38  C   UNL     1      -5.803   5.645  -8.308  1.00  0.00     0.007 A 
ATOM     39  C   UNL     1      -7.979   3.956  -7.856  1.00  0.00     0.046 A 
ATOM     40  C   UNL     1      -6.813   5.538  -9.266  1.00  0.00     0.046 A 
ATOM     41  C   UNL     1      -7.894   4.694  -9.031  1.00  0.00     0.115 A 
BRANCH  41  42
ATOM     42  O   UNL     1      -8.900   4.559  -9.940  1.00  0.00    -0.508 OA
ATOM     43  H   UNL     1      -9.182   5.447 -10.217  1.00  0.00     0.293 HD
ENDBRANCH  41  42
ENDBRANCH  35  36
ENDBRANCH  34  35
BRANCH  34  44
ATOM     44  C   UNL     1      -2.618   3.749  -6.612  1.00  0.00     0.243 C 
ATOM     45  O   UNL     1      -2.407   4.296  -7.691  1.00  0.00    -0.273 OA
ATOM     46  N   UNL     1      -1.649   3.006  -5.971  1.00  0.00    -0.341 N 
ATOM     47  H   UNL     1      -1.903   2.475  -5.142  1.00  0.00     0.164 HD
BRANCH  46  48
ATOM     48  C   UNL     1      -0.285   2.851  -6.480  1.00  0.00     0.196 C 
BRANCH  48  49
ATOM     49  C   UNL     1       0.588   4.066  -6.122  1.00  0.00     0.072 C 
BRANCH  49  50
ATOM     50  C   UNL     1       1.575   4.415  -7.212  1.00  0.00    -0.045 A 
ATOM     51  C   UNL     1       1.111   4.857  -8.460  1.00  0.00     0.007 A 
ATOM     52  C   UNL     1       2.954   4.285  -7.005  1.00  0.00     0.007 A 
ATOM     53  C   UNL     1       2.012   5.169  -9.478  1.00  0.00     0.046 A 
ATOM     54  C   UNL     1       3.856   4.596  -8.025  1.00  0.00     0.046 A 
ATOM     55  C   UNL     1       3.377   5.037  -9.253  1.00  0.00     0.115 A 
BRANCH  55  56
ATOM     56  O   UNL     1       4.224   5.351 -10.275  1.00  0.00    -0.508 OA
ATOM     57  H   UNL     1       4.769   4.572 -10.470  1.00  0.00     0.293 HD
ENDBRANCH  55  56
ENDBRANCH  49  50
ENDBRANCH  48  49
BRANCH  48  58
ATOM     58  C   UNL     1       0.331   1.580  -5.879  1.00  0.00     0.326 C 
ATOM     59  O   UNL     1       1.242   0.911  -6.339  1.00  0.00    -0.250 OA
BRANCH  58  60
ATOM     60  O   UNL     1      -0.229   1.214  -4.698  1.00  0.00    -0.480 OA
ATOM     61  H   UNL     1      -0.970   0.629  -4.972  1.00  0.00     0.296 HD
ENDBRANCH  58  60
ENDBRANCH  48  58
ENDBRANCH  46  48
ENDBRANCH  34  44
ENDBRANCH  32  34
ENDBRANCH  25  30
ENDBRANCH  23  25
ENDBRANCH   2  23
TORSDOF 28
ENDMDL
MODEL 35
REMARK VINA RESULT:    -5.506     10.816     17.315
REMARK INTER + INTRA:         -18.293
REMARK INTER:                 -13.638
REMARK INTRA:                  -4.655
REMARK UNBOUND:                -4.579
REMARK SMILES CCCCCCC[C@H](N)[C@H](O)C(=O)N[C@H](C)C(=O)N(C)[C@H](CC(C)C)C(=O)N[C@@H](Cc1ccc(O)cc1)C(=O)N[C@@H](Cc1ccc(O)cc1)C(=O)O
REMARK SMILES IDX 18 1 17 2 15 3 16 4 14 5 12 6 13 7 10 9 11 10 8 12 9 13 7 16
REMARK SMILES IDX 6 17 5 18 4 19 3 20 2 21 1 22 19 23 20 24 21 25 22 26 23 27
REMARK SMILES IDX 24 28 25 29 26 30 27 31 28 32 29 34 30 35 31 36 32 37 37 38
REMARK SMILES IDX 33 39 36 40 34 41 35 42 38 44 39 45 40 46 41 48 42 49 43 50
REMARK SMILES IDX 44 51 49 52 45 53 48 54 46 55 47 56 50 58 51 59 52 60
REMARK H PARENT 14 8 11 11 9 14 9 15 28 33 35 43 40 47 47 57 52 61
ROOT
ATOM      1  O   UNL     1      -4.206   4.277  -4.862  1.00  0.00    -0.272 OA
ATOM      2  C   UNL     1      -4.829   5.348  -4.906  1.00  0.00     0.245 C 
ENDROOT
BRANCH   2   3
ATOM      3  C   UNL     1      -5.926   5.612  -3.845  1.00  0.00     0.168 C 
ATOM      4  C   UNL     1      -7.046   6.468  -4.425  1.00  0.00     0.041 C 
BRANCH   3   5
ATOM      5  N   UNL     1      -6.440   4.420  -3.188  1.00  0.00    -0.342 N 
ATOM      6  C   UNL     1      -6.119   4.113  -1.882  1.00  0.00     0.251 C 
ATOM      7  O   UNL     1      -5.355   4.785  -1.198  1.00  0.00    -0.272 OA
ATOM      8  H   UNL     1      -7.055   3.767  -3.666  1.00  0.00     0.164 HD
BRANCH   6   9
ATOM      9  C   UNL     1      -6.886   2.890  -1.353  1.00  0.00     0.219 C 
BRANCH   9  10
ATOM     10  O   UNL     1      -8.144   2.700  -2.012  1.00  0.00    -0.382 OA
ATOM     11  H   UNL     1      -8.022   1.858  -2.504  1.00  0.00     0.211 HD
ENDBRANCH   9  10
BRANCH   9  12
ATOM     12  C   UNL     1      -6.047   1.586  -1.381  1.00  0.00     0.089 C 
BRANCH  12  13
ATOM     13  N   UNL     1      -4.719   1.897  -1.958  1.00  0.00    -0.325 NA
ATOM     14  H   UNL     1      -4.070   2.128  -1.202  1.00  0.00     0.119 HD
ATOM     15  H   UNL     1      -4.792   2.751  -2.516  1.00  0.00     0.119 HD
ENDBRANCH  12  13
BRANCH  12  16
ATOM     16  C   UNL     1      -5.881   0.857  -0.026  1.00  0.00     0.022 C 
BRANCH  16  17
ATOM     17  C   UNL     1      -5.618  -0.655  -0.019  1.00  0.00     0.002 C 
BRANCH  17  18
ATOM     18  C   UNL     1      -5.189  -1.228   1.330  1.00  0.00     0.000 C 
BRANCH  18  19
ATOM     19  C   UNL     1      -5.560  -0.346   2.530  1.00  0.00    -0.000 C 
BRANCH  19  20
ATOM     20  C   UNL     1      -4.409  -0.041   3.493  1.00  0.00    -0.000 C 
BRANCH  20  21
ATOM     21  C   UNL     1      -3.076   0.196   2.779  1.00  0.00    -0.003 C 
ATOM     22  C   UNL     1      -2.899   1.660   2.408  1.00  0.00     0.004 C 
ENDBRANCH  20  21
ENDBRANCH  19  20
ENDBRANCH  18  19
ENDBRANCH  17  18
ENDBRANCH  16  17
ENDBRANCH  12  16
ENDBRANCH   9  12
ENDBRANCH   6   9
ENDBRANCH   3   5
ENDBRANCH   2   3
BRANCH   2  23
ATOM     23  N   UNL     1      -4.458   6.332  -5.817  1.00  0.00    -0.332 N 
ATOM     24  C   UNL     1      -3.894   7.623  -5.454  1.00  0.00     0.147 C 
BRANCH  23  25
ATOM     25  C   UNL     1      -4.503   6.057  -7.280  1.00  0.00     0.174 C 
BRANCH  25  26
ATOM     26  C   UNL     1      -5.668   5.121  -7.681  1.00  0.00     0.038 C 
BRANCH  26  27
ATOM     27  C   UNL     1      -6.767   5.720  -8.587  1.00  0.00    -0.015 C 
ATOM     28  C   UNL     1      -7.903   4.734  -8.857  1.00  0.00     0.007 C 
ATOM     29  C   UNL     1      -7.319   7.048  -8.075  1.00  0.00     0.007 C 
ENDBRANCH  26  27
ENDBRANCH  25  26
BRANCH  25  30
ATOM     30  C   UNL     1      -3.120   5.574  -7.773  1.00  0.00     0.243 C 
ATOM     31  O   UNL     1      -2.870   5.431  -8.969  1.00  0.00    -0.273 OA
ATOM     32  N   UNL     1      -2.199   5.311  -6.792  1.00  0.00    -0.342 N 
ATOM     33  H   UNL     1      -2.433   5.588  -5.836  1.00  0.00     0.164 HD
BRANCH  32  34
ATOM     34  C   UNL     1      -0.847   4.820  -7.073  1.00  0.00     0.175 C 
BRANCH  34  35
ATOM     35  C   UNL     1       0.166   5.973  -7.129  1.00  0.00     0.070 C 
BRANCH  35  36
ATOM     36  C   UNL     1       1.422   5.612  -7.890  1.00  0.00    -0.045 A 
ATOM     37  C   UNL     1       2.565   5.186  -7.196  1.00  0.00     0.007 A 
ATOM     38  C   UNL     1       1.472   5.719  -9.286  1.00  0.00     0.007 A 
ATOM     39  C   UNL     1       3.732   4.863  -7.889  1.00  0.00     0.046 A 
ATOM     40  C   UNL     1       2.642   5.398  -9.980  1.00  0.00     0.046 A 
ATOM     41  C   UNL     1       3.762   4.971  -9.274  1.00  0.00     0.115 A 
BRANCH  41  42
ATOM     42  O   UNL     1       4.923   4.650  -9.912  1.00  0.00    -0.508 OA
ATOM     43  H   UNL     1       4.880   5.001 -10.817  1.00  0.00     0.293 HD
ENDBRANCH  41  42
ENDBRANCH  35  36
ENDBRANCH  34  35
BRANCH  34  44
ATOM     44  C   UNL     1      -0.480   3.781  -5.989  1.00  0.00     0.243 C 
ATOM     45  O   UNL     1       0.274   2.829  -6.167  1.00  0.00    -0.273 OA
ATOM     46  N   UNL     1      -1.186   3.941  -4.815  1.00  0.00    -0.341 N 
ATOM     47  H   UNL     1      -1.887   4.676  -4.756  1.00  0.00     0.164 HD
BRANCH  46  48
ATOM     48  C   UNL     1      -1.059   3.038  -3.669  1.00  0.00     0.196 C 
BRANCH  48  49
ATOM     49  C   UNL     1      -1.750   3.614  -2.422  1.00  0.00     0.072 C 
BRANCH  49  50
ATOM     50  C   UNL     1      -0.765   4.139  -1.402  1.00  0.00    -0.045 A 
ATOM     51  C   UNL     1       0.534   4.488  -1.799  1.00  0.00     0.007 A 
ATOM     52  C   UNL     1      -1.121   4.263  -0.053  1.00  0.00     0.007 A 
ATOM     53  C   UNL     1       1.456   4.961  -0.865  1.00  0.00     0.046 A 
ATOM     54  C   UNL     1      -0.199   4.735   0.883  1.00  0.00     0.046 A 
ATOM     55  C   UNL     1       1.083   5.081   0.468  1.00  0.00     0.115 A 
BRANCH  55  56
ATOM     56  O   UNL     1       2.013   5.545   1.350  1.00  0.00    -0.508 OA
ATOM     57  H   UNL     1       2.859   5.638   0.883  1.00  0.00     0.293 HD
ENDBRANCH  55  56
ENDBRANCH  49  50
ENDBRANCH  48  49
BRANCH  48  58
ATOM     58  C   UNL     1      -1.690   1.685  -4.028  1.00  0.00     0.326 C 
ATOM     59  O   UNL     1      -1.154   0.589  -3.998  1.00  0.00    -0.250 OA
BRANCH  58  60
ATOM     60  O   UNL     1      -2.992   1.776  -4.399  1.00  0.00    -0.480 OA
ATOM     61  H   UNL     1      -3.201   0.870  -4.713  1.00  0.00     0.296 HD
ENDBRANCH  58  60
ENDBRANCH  48  58
ENDBRANCH  46  48
ENDBRANCH  34  44
ENDBRANCH  32  34
ENDBRANCH  25  30
ENDBRANCH  23  25
ENDBRANCH   2  23
TORSDOF 28
ENDMDL
MODEL 36
REMARK VINA RESULT:    -5.503      3.407      8.313
REMARK INTER + INTRA:         -18.286
REMARK INTER:                 -15.012
REMARK INTRA:                  -3.274
REMARK UNBOUND:                -4.579
REMARK SMILES CCCCCCC[C@H](N)[C@H](O)C(=O)N[C@H](C)C(=O)N(C)[C@H](CC(C)C)C(=O)N[C@@H](Cc1ccc(O)cc1)C(=O)N[C@@H](Cc1ccc(O)cc1)C(=O)O
REMARK SMILES IDX 18 1 17 2 15 3 16 4 14 5 12 6 13 7 10 9 11 10 8 12 9 13 7 16
REMARK SMILES IDX 6 17 5 18 4 19 3 20 2 21 1 22 19 23 20 24 21 25 22 26 23 27
REMARK SMILES IDX 24 28 25 29 26 30 27 31 28 32 29 34 30 35 31 36 32 37 37 38
REMARK SMILES IDX 33 39 36 40 34 41 35 42 38 44 39 45 40 46 41 48 42 49 43 50
REMARK SMILES IDX 44 51 49 52 45 53 48 54 46 55 47 56 50 58 51 59 52 60
REMARK H PARENT 14 8 11 11 9 14 9 15 28 33 35 43 40 47 47 57 52 61
ROOT
ATOM      1  O   UNL     1      -6.864  -1.835   4.329  1.00  0.00    -0.272 OA
ATOM      2  C   UNL     1      -8.022  -1.929   3.896  1.00  0.00     0.245 C 
ENDROOT
BRANCH   2   3
ATOM      3  C   UNL     1      -8.239  -1.973   2.363  1.00  0.00     0.168 C 
ATOM      4  C   UNL     1      -9.533  -1.262   1.979  1.00  0.00     0.041 C 
BRANCH   3   5
ATOM      5  N   UNL     1      -7.110  -1.508   1.573  1.00  0.00    -0.342 N 
ATOM      6  C   UNL     1      -6.307  -2.379   0.869  1.00  0.00     0.251 C 
ATOM      7  O   UNL     1      -6.451  -3.597   0.886  1.00  0.00    -0.272 OA
ATOM      8  H   UNL     1      -6.870  -0.521   1.510  1.00  0.00     0.164 HD
BRANCH   6   9
ATOM      9  C   UNL     1      -5.269  -1.656  -0.005  1.00  0.00     0.219 C 
BRANCH   9  10
ATOM     10  O   UNL     1      -4.958  -2.377  -1.204  1.00  0.00    -0.382 OA
ATOM     11  H   UNL     1      -5.131  -3.313  -0.962  1.00  0.00     0.211 HD
ENDBRANCH   9  10
BRANCH   9  12
ATOM     12  C   UNL     1      -5.660  -0.191  -0.329  1.00  0.00     0.089 C 
BRANCH  12  13
ATOM     13  N   UNL     1      -5.255   0.664   0.811  1.00  0.00    -0.325 NA
ATOM     14  H   UNL     1      -4.988   1.586   0.461  1.00  0.00     0.119 HD
ATOM     15  H   UNL     1      -4.404   0.279   1.227  1.00  0.00     0.119 HD
ENDBRANCH  12  13
BRANCH  12  16
ATOM     16  C   UNL     1      -5.098   0.385  -1.651  1.00  0.00     0.022 C 
BRANCH  16  17
ATOM     17  C   UNL     1      -5.234   1.888  -1.929  1.00  0.00     0.002 C 
BRANCH  17  18
ATOM     18  C   UNL     1      -4.953   2.305  -3.371  1.00  0.00     0.000 C 
BRANCH  18  19
ATOM     19  C   UNL     1      -4.162   1.268  -4.178  1.00  0.00    -0.000 C 
BRANCH  19  20
ATOM     20  C   UNL     1      -2.643   1.463  -4.176  1.00  0.00    -0.000 C 
BRANCH  20  21
ATOM     21  C   UNL     1      -2.225   2.910  -3.903  1.00  0.00    -0.003 C 
ATOM     22  C   UNL     1      -0.742   3.007  -3.580  1.00  0.00     0.004 C 
ENDBRANCH  20  21
ENDBRANCH  19  20
ENDBRANCH  18  19
ENDBRANCH  17  18
ENDBRANCH  16  17
ENDBRANCH  12  16
ENDBRANCH   9  12
ENDBRANCH   6   9
ENDBRANCH   3   5
ENDBRANCH   2   3
BRANCH   2  23
ATOM     23  N   UNL     1      -9.081  -2.115   4.779  1.00  0.00    -0.332 N 
ATOM     24  C   UNL     1      -9.753  -1.044   5.500  1.00  0.00     0.147 C 
BRANCH  23  25
ATOM     25  C   UNL     1      -9.693  -3.462   4.945  1.00  0.00     0.174 C 
BRANCH  25  26
ATOM     26  C   UNL     1     -11.230  -3.452   4.767  1.00  0.00     0.038 C 
BRANCH  26  27
ATOM     27  C   UNL     1     -11.818  -4.408   3.707  1.00  0.00    -0.015 C 
ATOM     28  C   UNL     1     -12.838  -5.381   4.298  1.00  0.00     0.007 C 
ATOM     29  C   UNL     1     -12.405  -3.686   2.496  1.00  0.00     0.007 C 
ENDBRANCH  26  27
ENDBRANCH  25  26
BRANCH  25  30
ATOM     30  C   UNL     1      -9.225  -4.098   6.274  1.00  0.00     0.243 C 
ATOM     31  O   UNL     1      -8.036  -4.305   6.512  1.00  0.00    -0.273 OA
ATOM     32  N   UNL     1     -10.220  -4.421   7.160  1.00  0.00    -0.342 N 
ATOM     33  H   UNL     1     -11.166  -4.090   6.951  1.00  0.00     0.164 HD
BRANCH  32  34
ATOM     34  C   UNL     1      -9.965  -5.056   8.456  1.00  0.00     0.175 C 
BRANCH  34  35
ATOM     35  C   UNL     1     -10.755  -4.368   9.580  1.00  0.00     0.070 C 
BRANCH  35  36
ATOM     36  C   UNL     1      -9.953  -3.300  10.289  1.00  0.00    -0.045 A 
ATOM     37  C   UNL     1     -10.601  -2.180  10.831  1.00  0.00     0.007 A 
ATOM     38  C   UNL     1      -8.560  -3.398  10.395  1.00  0.00     0.007 A 
ATOM     39  C   UNL     1      -9.869  -1.182  11.475  1.00  0.00     0.046 A 
ATOM     40  C   UNL     1      -7.825  -2.399  11.038  1.00  0.00     0.046 A 
ATOM     41  C   UNL     1      -8.488  -1.300  11.574  1.00  0.00     0.115 A 
BRANCH  41  42
ATOM     42  O   UNL     1      -7.809  -0.302  12.208  1.00  0.00    -0.508 OA
ATOM     43  H   UNL     1      -7.789  -0.503  13.159  1.00  0.00     0.293 HD
ENDBRANCH  41  42
ENDBRANCH  35  36
ENDBRANCH  34  35
BRANCH  34  44
ATOM     44  C   UNL     1     -10.322  -6.554   8.333  1.00  0.00     0.243 C 
ATOM     45  O   UNL     1     -10.118  -7.390   9.209  1.00  0.00    -0.273 OA
ATOM     46  N   UNL     1     -10.780  -6.909   7.082  1.00  0.00    -0.341 N 
ATOM     47  H   UNL     1     -10.822  -6.201   6.352  1.00  0.00     0.164 HD
BRANCH  46  48
ATOM     48  C   UNL     1     -11.117  -8.284   6.706  1.00  0.00     0.196 C 
BRANCH  48  49
ATOM     49  C   UNL     1     -12.530  -8.664   7.180  1.00  0.00     0.072 C 
BRANCH  49  50
ATOM     50  C   UNL     1     -12.514  -9.567   8.392  1.00  0.00    -0.045 A 
ATOM     51  C   UNL     1     -11.820 -10.785   8.346  1.00  0.00     0.007 A 
ATOM     52  C   UNL     1     -13.203  -9.218   9.560  1.00  0.00     0.007 A 
ATOM     53  C   UNL     1     -11.809 -11.633   9.454  1.00  0.00     0.046 A 
ATOM     54  C   UNL     1     -13.193 -10.068  10.669  1.00  0.00     0.046 A 
ATOM     55  C   UNL     1     -12.495 -11.269  10.606  1.00  0.00     0.115 A 
BRANCH  55  56
ATOM     56  O   UNL     1     -12.461 -12.127  11.665  1.00  0.00    -0.508 OA
ATOM     57  H   UNL     1     -11.537 -12.237  11.941  1.00  0.00     0.293 HD
ENDBRANCH  55  56
ENDBRANCH  49  50
ENDBRANCH  48  49
BRANCH  48  58
ATOM     58  C   UNL     1     -11.031  -8.420   5.180  1.00  0.00     0.326 C 
ATOM     59  O   UNL     1     -11.914  -8.783   4.420  1.00  0.00    -0.250 OA
BRANCH  58  60
ATOM     60  O   UNL     1      -9.822  -8.071   4.672  1.00  0.00    -0.480 OA
ATOM     61  H   UNL     1      -9.439  -7.500   5.373  1.00  0.00     0.296 HD
ENDBRANCH  58  60
ENDBRANCH  48  58
ENDBRANCH  46  48
ENDBRANCH  34  44
ENDBRANCH  32  34
ENDBRANCH  25  30
ENDBRANCH  23  25
ENDBRANCH   2  23
TORSDOF 28
ENDMDL
MODEL 37
REMARK VINA RESULT:    -5.494     10.484     16.056
REMARK INTER + INTRA:         -18.264
REMARK INTER:                 -14.609
REMARK INTRA:                  -3.654
REMARK UNBOUND:                -4.579
REMARK SMILES CCCCCCC[C@H](N)[C@H](O)C(=O)N[C@H](C)C(=O)N(C)[C@H](CC(C)C)C(=O)N[C@@H](Cc1ccc(O)cc1)C(=O)N[C@@H](Cc1ccc(O)cc1)C(=O)O
REMARK SMILES IDX 18 1 17 2 15 3 16 4 14 5 12 6 13 7 10 9 11 10 8 12 9 13 7 16
REMARK SMILES IDX 6 17 5 18 4 19 3 20 2 21 1 22 19 23 20 24 21 25 22 26 23 27
REMARK SMILES IDX 24 28 25 29 26 30 27 31 28 32 29 34 30 35 31 36 32 37 37 38
REMARK SMILES IDX 33 39 36 40 34 41 35 42 38 44 39 45 40 46 41 48 42 49 43 50
REMARK SMILES IDX 44 51 49 52 45 53 48 54 46 55 47 56 50 58 51 59 52 60
REMARK H PARENT 14 8 11 11 9 14 9 15 28 33 35 43 40 47 47 57 52 61
ROOT
ATOM      1  O   UNL     1      -6.950   6.642  -3.836  1.00  0.00    -0.272 OA
ATOM      2  C   UNL     1      -6.674   5.857  -2.917  1.00  0.00     0.245 C 
ENDROOT
BRANCH   2   3
ATOM      3  C   UNL     1      -7.793   5.459  -1.922  1.00  0.00     0.168 C 
ATOM      4  C   UNL     1      -8.152   6.630  -1.014  1.00  0.00     0.041 C 
BRANCH   3   5
ATOM      5  N   UNL     1      -8.972   4.866  -2.533  1.00  0.00    -0.342 N 
ATOM      6  C   UNL     1      -9.120   3.501  -2.655  1.00  0.00     0.251 C 
ATOM      7  O   UNL     1      -8.266   2.694  -2.302  1.00  0.00    -0.272 OA
ATOM      8  H   UNL     1      -9.732   5.436  -2.895  1.00  0.00     0.164 HD
BRANCH   6   9
ATOM      9  C   UNL     1     -10.500   3.098  -3.198  1.00  0.00     0.219 C 
BRANCH   9  10
ATOM     10  O   UNL     1     -10.420   2.115  -4.237  1.00  0.00    -0.382 OA
ATOM     11  H   UNL     1      -9.893   1.392  -3.831  1.00  0.00     0.211 HD
ENDBRANCH   9  10
BRANCH   9  12
ATOM     12  C   UNL     1     -11.484   2.647  -2.088  1.00  0.00     0.089 C 
BRANCH  12  13
ATOM     13  N   UNL     1     -11.078   3.287  -0.815  1.00  0.00    -0.325 NA
ATOM     14  H   UNL     1     -11.492   4.219  -0.761  1.00  0.00     0.119 HD
ATOM     15  H   UNL     1     -10.067   3.444  -0.832  1.00  0.00     0.119 HD
ENDBRANCH  12  13
BRANCH  12  16
ATOM     16  C   UNL     1     -12.984   2.913  -2.361  1.00  0.00     0.022 C 
BRANCH  16  17
ATOM     17  C   UNL     1     -13.912   1.725  -2.652  1.00  0.00     0.002 C 
BRANCH  17  18
ATOM     18  C   UNL     1     -13.570   0.441  -1.900  1.00  0.00     0.000 C 
BRANCH  18  19
ATOM     19  C   UNL     1     -13.012  -0.676  -2.792  1.00  0.00    -0.000 C 
BRANCH  19  20
ATOM     20  C   UNL     1     -11.960  -1.571  -2.131  1.00  0.00    -0.000 C 
BRANCH  20  21
ATOM     21  C   UNL     1     -11.837  -2.944  -2.798  1.00  0.00    -0.003 C 
ATOM     22  C   UNL     1     -13.117  -3.324  -3.525  1.00  0.00     0.004 C 
ENDBRANCH  20  21
ENDBRANCH  19  20
ENDBRANCH  18  19
ENDBRANCH  17  18
ENDBRANCH  16  17
ENDBRANCH  12  16
ENDBRANCH   9  12
ENDBRANCH   6   9
ENDBRANCH   3   5
ENDBRANCH   2   3
BRANCH   2  23
ATOM     23  N   UNL     1      -5.419   5.260  -2.865  1.00  0.00    -0.332 N 
ATOM     24  C   UNL     1      -4.285   5.786  -2.120  1.00  0.00     0.147 C 
BRANCH  23  25
ATOM     25  C   UNL     1      -5.194   3.929  -3.493  1.00  0.00     0.174 C 
BRANCH  25  26
ATOM     26  C   UNL     1      -3.869   3.269  -3.046  1.00  0.00     0.038 C 
BRANCH  26  27
ATOM     27  C   UNL     1      -3.752   1.739  -3.230  1.00  0.00    -0.015 C 
ATOM     28  C   UNL     1      -4.905   0.982  -2.573  1.00  0.00     0.007 C 
ATOM     29  C   UNL     1      -3.591   1.313  -4.687  1.00  0.00     0.007 C 
ENDBRANCH  26  27
ENDBRANCH  25  26
BRANCH  25  30
ATOM     30  C   UNL     1      -5.351   4.031  -5.028  1.00  0.00     0.243 C 
ATOM     31  O   UNL     1      -6.293   3.509  -5.621  1.00  0.00    -0.273 OA
ATOM     32  N   UNL     1      -4.371   4.735  -5.679  1.00  0.00    -0.342 N 
ATOM     33  H   UNL     1      -3.702   5.257  -5.106  1.00  0.00     0.164 HD
BRANCH  32  34
ATOM     34  C   UNL     1      -4.342   4.912  -7.133  1.00  0.00     0.175 C 
BRANCH  34  35
ATOM     35  C   UNL     1      -4.925   6.273  -7.542  1.00  0.00     0.070 C 
BRANCH  35  36
ATOM     36  C   UNL     1      -6.256   6.151  -8.250  1.00  0.00    -0.045 A 
ATOM     37  C   UNL     1      -6.456   5.135  -9.197  1.00  0.00     0.007 A 
ATOM     38  C   UNL     1      -7.294   7.055  -7.990  1.00  0.00     0.007 A 
ATOM     39  C   UNL     1      -7.675   5.022  -9.865  1.00  0.00     0.046 A 
ATOM     40  C   UNL     1      -8.515   6.943  -8.660  1.00  0.00     0.046 A 
ATOM     41  C   UNL     1      -8.695   5.926  -9.591  1.00  0.00     0.115 A 
BRANCH  41  42
ATOM     42  O   UNL     1      -9.870   5.783 -10.268  1.00  0.00    -0.508 OA
ATOM     43  H   UNL     1     -10.531   6.364  -9.856  1.00  0.00     0.293 HD
ENDBRANCH  41  42
ENDBRANCH  35  36
ENDBRANCH  34  35
BRANCH  34  44
ATOM     44  C   UNL     1      -2.881   4.744  -7.607  1.00  0.00     0.243 C 
ATOM     45  O   UNL     1      -2.475   5.044  -8.726  1.00  0.00    -0.273 OA
ATOM     46  N   UNL     1      -2.078   4.095  -6.692  1.00  0.00    -0.341 N 
ATOM     47  H   UNL     1      -2.489   3.761  -5.824  1.00  0.00     0.164 HD
BRANCH  46  48
ATOM     48  C   UNL     1      -0.675   3.762  -6.945  1.00  0.00     0.196 C 
BRANCH  48  49
ATOM     49  C   UNL     1       0.238   4.980  -6.724  1.00  0.00     0.072 C 
BRANCH  49  50
ATOM     50  C   UNL     1       1.475   4.946  -7.593  1.00  0.00    -0.045 A 
ATOM     51  C   UNL     1       1.371   5.211  -8.967  1.00  0.00     0.007 A 
ATOM     52  C   UNL     1       2.728   4.630  -7.053  1.00  0.00     0.007 A 
ATOM     53  C   UNL     1       2.502   5.170  -9.781  1.00  0.00     0.046 A 
ATOM     54  C   UNL     1       3.861   4.587  -7.869  1.00  0.00     0.046 A 
ATOM     55  C   UNL     1       3.738   4.859  -9.227  1.00  0.00     0.115 A 
BRANCH  55  56
ATOM     56  O   UNL     1       4.819   4.826 -10.058  1.00  0.00    -0.508 OA
ATOM     57  H   UNL     1       5.492   5.430  -9.707  1.00  0.00     0.293 HD
ENDBRANCH  55  56
ENDBRANCH  49  50
ENDBRANCH  48  49
BRANCH  48  58
ATOM     58  C   UNL     1      -0.254   2.626  -6.003  1.00  0.00     0.326 C 
ATOM     59  O   UNL     1       0.289   1.576  -6.307  1.00  0.00    -0.250 OA
BRANCH  58  60
ATOM     60  O   UNL     1      -0.528   2.875  -4.697  1.00  0.00    -0.480 OA
ATOM     61  H   UNL     1      -0.235   3.804  -4.578  1.00  0.00     0.296 HD
ENDBRANCH  58  60
ENDBRANCH  48  58
ENDBRANCH  46  48
ENDBRANCH  34  44
ENDBRANCH  32  34
ENDBRANCH  25  30
ENDBRANCH  23  25
ENDBRANCH   2  23
TORSDOF 28
ENDMDL
MODEL 38
REMARK VINA RESULT:    -5.473     16.600     23.013
REMARK INTER + INTRA:         -18.210
REMARK INTER:                 -13.777
REMARK INTRA:                  -4.433
REMARK UNBOUND:                -4.579
REMARK SMILES CCCCCCC[C@H](N)[C@H](O)C(=O)N[C@H](C)C(=O)N(C)[C@H](CC(C)C)C(=O)N[C@@H](Cc1ccc(O)cc1)C(=O)N[C@@H](Cc1ccc(O)cc1)C(=O)O
REMARK SMILES IDX 18 1 17 2 15 3 16 4 14 5 12 6 13 7 10 9 11 10 8 12 9 13 7 16
REMARK SMILES IDX 6 17 5 18 4 19 3 20 2 21 1 22 19 23 20 24 21 25 22 26 23 27
REMARK SMILES IDX 24 28 25 29 26 30 27 31 28 32 29 34 30 35 31 36 32 37 37 38
REMARK SMILES IDX 33 39 36 40 34 41 35 42 38 44 39 45 40 46 41 48 42 49 43 50
REMARK SMILES IDX 44 51 49 52 45 53 48 54 46 55 47 56 50 58 51 59 52 60
REMARK H PARENT 14 8 11 11 9 14 9 15 28 33 35 43 40 47 47 57 52 61
ROOT
ATOM      1  O   UNL     1       2.620  10.187  -4.241  1.00  0.00    -0.272 OA
ATOM      2  C   UNL     1       3.310   9.903  -5.231  1.00  0.00     0.245 C 
ENDROOT
BRANCH   2   3
ATOM      3  C   UNL     1       4.853   9.974  -5.104  1.00  0.00     0.168 C 
ATOM      4  C   UNL     1       5.280   9.890  -3.643  1.00  0.00     0.041 C 
BRANCH   3   5
ATOM      5  N   UNL     1       5.578   9.027  -5.937  1.00  0.00    -0.342 N 
ATOM      6  C   UNL     1       6.407   9.441  -6.958  1.00  0.00     0.251 C 
ATOM      7  O   UNL     1       6.564  10.618  -7.266  1.00  0.00    -0.272 OA
ATOM      8  H   UNL     1       5.500   8.022  -5.798  1.00  0.00     0.164 HD
BRANCH   6   9
ATOM      9  C   UNL     1       7.177   8.280  -7.607  1.00  0.00     0.219 C 
BRANCH   9  10
ATOM     10  O   UNL     1       7.542   8.549  -8.966  1.00  0.00    -0.382 OA
ATOM     11  H   UNL     1       7.086   7.841  -9.472  1.00  0.00     0.211 HD
ENDBRANCH   9  10
BRANCH   9  12
ATOM     12  C   UNL     1       8.413   7.832  -6.783  1.00  0.00     0.089 C 
BRANCH  12  13
ATOM     13  N   UNL     1       8.836   8.962  -5.925  1.00  0.00    -0.325 NA
ATOM     14  H   UNL     1       9.780   8.784  -5.575  1.00  0.00     0.119 HD
ATOM     15  H   UNL     1       8.243   8.986  -5.092  1.00  0.00     0.119 HD
ENDBRANCH  12  13
BRANCH  12  16
ATOM     16  C   UNL     1       8.232   6.555  -5.929  1.00  0.00     0.022 C 
BRANCH  16  17
ATOM     17  C   UNL     1       8.739   6.547  -4.480  1.00  0.00     0.002 C 
BRANCH  17  18
ATOM     18  C   UNL     1       7.669   6.803  -3.422  1.00  0.00     0.000 C 
BRANCH  18  19
ATOM     19  C   UNL     1       7.879   6.021  -2.119  1.00  0.00    -0.000 C 
BRANCH  19  20
ATOM     20  C   UNL     1       9.322   5.982  -1.609  1.00  0.00    -0.000 C 
BRANCH  20  21
ATOM     21  C   UNL     1       9.955   4.591  -1.704  1.00  0.00    -0.003 C 
ATOM     22  C   UNL     1      11.112   4.574  -2.691  1.00  0.00     0.004 C 
ENDBRANCH  20  21
ENDBRANCH  19  20
ENDBRANCH  18  19
ENDBRANCH  17  18
ENDBRANCH  16  17
ENDBRANCH  12  16
ENDBRANCH   9  12
ENDBRANCH   6   9
ENDBRANCH   3   5
ENDBRANCH   2   3
BRANCH   2  23
ATOM     23  N   UNL     1       2.705   9.416  -6.384  1.00  0.00    -0.332 N 
ATOM     24  C   UNL     1       2.919   9.952  -7.720  1.00  0.00     0.147 C 
BRANCH  23  25
ATOM     25  C   UNL     1       1.866   8.187  -6.330  1.00  0.00     0.174 C 
BRANCH  25  26
ATOM     26  C   UNL     1       2.694   6.902  -6.093  1.00  0.00     0.038 C 
BRANCH  26  27
ATOM     27  C   UNL     1       2.497   6.183  -4.740  1.00  0.00    -0.015 C 
ATOM     28  C   UNL     1       3.517   6.622  -3.690  1.00  0.00     0.007 C 
ATOM     29  C   UNL     1       1.077   6.298  -4.191  1.00  0.00     0.007 C 
ENDBRANCH  26  27
ENDBRANCH  25  26
BRANCH  25  30
ATOM     30  C   UNL     1       0.947   8.115  -7.571  1.00  0.00     0.243 C 
ATOM     31  O   UNL     1      -0.028   8.852  -7.702  1.00  0.00    -0.273 OA
ATOM     32  N   UNL     1       1.289   7.173  -8.508  1.00  0.00    -0.342 N 
ATOM     33  H   UNL     1       2.189   6.699  -8.396  1.00  0.00     0.164 HD
BRANCH  32  34
ATOM     34  C   UNL     1       0.519   6.945  -9.733  1.00  0.00     0.175 C 
BRANCH  34  35
ATOM     35  C   UNL     1       1.437   6.579 -10.910  1.00  0.00     0.070 C 
BRANCH  35  36
ATOM     36  C   UNL     1       2.819   6.159 -10.465  1.00  0.00    -0.045 A 
ATOM     37  C   UNL     1       3.943   6.888 -10.884  1.00  0.00     0.007 A 
ATOM     38  C   UNL     1       3.002   5.032  -9.653  1.00  0.00     0.007 A 
ATOM     39  C   UNL     1       5.224   6.500 -10.490  1.00  0.00     0.046 A 
ATOM     40  C   UNL     1       4.284   4.642  -9.259  1.00  0.00     0.046 A 
ATOM     41  C   UNL     1       5.384   5.382  -9.681  1.00  0.00     0.115 A 
BRANCH  41  42
ATOM     42  O   UNL     1       6.653   5.035  -9.321  1.00  0.00    -0.508 OA
ATOM     43  H   UNL     1       6.754   4.077  -9.447  1.00  0.00     0.293 HD
ENDBRANCH  41  42
ENDBRANCH  35  36
ENDBRANCH  34  35
BRANCH  34  44
ATOM     44  C   UNL     1      -0.520   5.837  -9.446  1.00  0.00     0.243 C 
ATOM     45  O   UNL     1      -0.443   4.687  -9.868  1.00  0.00    -0.273 OA
ATOM     46  N   UNL     1      -1.632   6.291  -8.768  1.00  0.00    -0.341 N 
ATOM     47  H   UNL     1      -1.703   7.280  -8.542  1.00  0.00     0.164 HD
BRANCH  46  48
ATOM     48  C   UNL     1      -2.780   5.441  -8.443  1.00  0.00     0.196 C 
BRANCH  48  49
ATOM     49  C   UNL     1      -2.859   5.160  -6.933  1.00  0.00     0.072 C 
BRANCH  49  50
ATOM     50  C   UNL     1      -2.031   3.965  -6.520  1.00  0.00    -0.045 A 
ATOM     51  C   UNL     1      -0.634   4.069  -6.461  1.00  0.00     0.007 A 
ATOM     52  C   UNL     1      -2.637   2.740  -6.213  1.00  0.00     0.007 A 
ATOM     53  C   UNL     1       0.142   2.969  -6.094  1.00  0.00     0.046 A 
ATOM     54  C   UNL     1      -1.861   1.638  -5.847  1.00  0.00     0.046 A 
ATOM     55  C   UNL     1      -0.477   1.763  -5.789  1.00  0.00     0.115 A 
BRANCH  55  56
ATOM     56  O   UNL     1       0.316   0.711  -5.437  1.00  0.00    -0.508 OA
ATOM     57  H   UNL     1       0.792   0.409  -6.227  1.00  0.00     0.293 HD
ENDBRANCH  55  56
ENDBRANCH  49  50
ENDBRANCH  48  49
BRANCH  48  58
ATOM     58  C   UNL     1      -4.066   6.141  -8.905  1.00  0.00     0.326 C 
ATOM     59  O   UNL     1      -4.328   6.540 -10.028  1.00  0.00    -0.250 OA
BRANCH  58  60
ATOM     60  O   UNL     1      -4.983   6.295  -7.916  1.00  0.00    -0.480 OA
ATOM     61  H   UNL     1      -4.639   5.721  -7.198  1.00  0.00     0.296 HD
ENDBRANCH  58  60
ENDBRANCH  48  58
ENDBRANCH  46  48
ENDBRANCH  34  44
ENDBRANCH  32  34
ENDBRANCH  25  30
ENDBRANCH  23  25
ENDBRANCH   2  23
TORSDOF 28
ENDMDL
MODEL 39
REMARK VINA RESULT:    -5.465     14.921     21.206
REMARK INTER + INTRA:         -18.191
REMARK INTER:                 -14.296
REMARK INTRA:                  -3.895
REMARK UNBOUND:                -4.579
REMARK SMILES CCCCCCC[C@H](N)[C@H](O)C(=O)N[C@H](C)C(=O)N(C)[C@H](CC(C)C)C(=O)N[C@@H](Cc1ccc(O)cc1)C(=O)N[C@@H](Cc1ccc(O)cc1)C(=O)O
REMARK SMILES IDX 18 1 17 2 15 3 16 4 14 5 12 6 13 7 10 9 11 10 8 12 9 13 7 16
REMARK SMILES IDX 6 17 5 18 4 19 3 20 2 21 1 22 19 23 20 24 21 25 22 26 23 27
REMARK SMILES IDX 24 28 25 29 26 30 27 31 28 32 29 34 30 35 31 36 32 37 37 38
REMARK SMILES IDX 33 39 36 40 34 41 35 42 38 44 39 45 40 46 41 48 42 49 43 50
REMARK SMILES IDX 44 51 49 52 45 53 48 54 46 55 47 56 50 58 51 59 52 60
REMARK H PARENT 14 8 11 11 9 14 9 15 28 33 35 43 40 47 47 57 52 61
ROOT
ATOM      1  O   UNL     1       0.611   5.957  -5.505  1.00  0.00    -0.272 OA
ATOM      2  C   UNL     1       1.351   6.707  -6.160  1.00  0.00     0.245 C 
ENDROOT
BRANCH   2   3
ATOM      3  C   UNL     1       2.621   7.275  -5.478  1.00  0.00     0.168 C 
ATOM      4  C   UNL     1       2.888   6.567  -4.155  1.00  0.00     0.041 C 
BRANCH   3   5
ATOM      5  N   UNL     1       3.805   7.309  -6.323  1.00  0.00    -0.342 N 
ATOM      6  C   UNL     1       4.386   8.497  -6.714  1.00  0.00     0.251 C 
ATOM      7  O   UNL     1       3.935   9.599  -6.422  1.00  0.00    -0.272 OA
ATOM      8  H   UNL     1       4.249   6.457  -6.658  1.00  0.00     0.164 HD
BRANCH   6   9
ATOM      9  C   UNL     1       5.702   8.290  -7.481  1.00  0.00     0.219 C 
BRANCH   9  10
ATOM     10  O   UNL     1       6.518   9.468  -7.506  1.00  0.00    -0.382 OA
ATOM     11  H   UNL     1       7.172   9.281  -8.214  1.00  0.00     0.211 HD
ENDBRANCH   9  10
BRANCH   9  12
ATOM     12  C   UNL     1       6.514   7.068  -6.978  1.00  0.00     0.089 C 
BRANCH  12  13
ATOM     13  N   UNL     1       7.283   6.517  -8.117  1.00  0.00    -0.325 NA
ATOM     14  H   UNL     1       7.074   7.059  -8.957  1.00  0.00     0.119 HD
ATOM     15  H   UNL     1       6.946   5.573  -8.318  1.00  0.00     0.119 HD
ENDBRANCH  12  13
BRANCH  12  16
ATOM     16  C   UNL     1       7.455   7.327  -5.777  1.00  0.00     0.022 C 
BRANCH  16  17
ATOM     17  C   UNL     1       8.940   6.958  -5.898  1.00  0.00     0.002 C 
BRANCH  17  18
ATOM     18  C   UNL     1       9.625   6.601  -4.581  1.00  0.00     0.000 C 
BRANCH  18  19
ATOM     19  C   UNL     1       9.122   5.297  -3.948  1.00  0.00    -0.000 C 
BRANCH  19  20
ATOM     20  C   UNL     1       8.946   5.338  -2.428  1.00  0.00    -0.000 C 
BRANCH  20  21
ATOM     21  C   UNL     1       7.489   5.527  -1.998  1.00  0.00    -0.003 C 
ATOM     22  C   UNL     1       7.166   6.995  -1.765  1.00  0.00     0.004 C 
ENDBRANCH  20  21
ENDBRANCH  19  20
ENDBRANCH  18  19
ENDBRANCH  17  18
ENDBRANCH  16  17
ENDBRANCH  12  16
ENDBRANCH   9  12
ENDBRANCH   6   9
ENDBRANCH   3   5
ENDBRANCH   2   3
BRANCH   2  23
ATOM     23  N   UNL     1       1.101   6.925  -7.511  1.00  0.00    -0.332 N 
ATOM     24  C   UNL     1       0.704   8.203  -8.081  1.00  0.00     0.147 C 
BRANCH  23  25
ATOM     25  C   UNL     1       1.359   5.847  -8.505  1.00  0.00     0.174 C 
BRANCH  25  26
ATOM     26  C   UNL     1       2.050   6.365  -9.789  1.00  0.00     0.038 C 
BRANCH  26  27
ATOM     27  C   UNL     1       3.594   6.392  -9.790  1.00  0.00    -0.015 C 
ATOM     28  C   UNL     1       4.203   5.017  -9.515  1.00  0.00     0.007 C 
ATOM     29  C   UNL     1       4.191   7.000 -11.057  1.00  0.00     0.007 C 
ENDBRANCH  26  27
ENDBRANCH  25  26
BRANCH  25  30
ATOM     30  C   UNL     1       0.061   5.052  -8.776  1.00  0.00     0.243 C 
ATOM     31  O   UNL     1      -0.050   4.299  -9.743  1.00  0.00    -0.273 OA
ATOM     32  N   UNL     1      -0.953   5.246  -7.874  1.00  0.00    -0.342 N 
ATOM     33  H   UNL     1      -0.737   5.773  -7.024  1.00  0.00     0.164 HD
BRANCH  32  34
ATOM     34  C   UNL     1      -2.262   4.597  -7.987  1.00  0.00     0.175 C 
BRANCH  34  35
ATOM     35  C   UNL     1      -2.848   4.276  -6.604  1.00  0.00     0.070 C 
BRANCH  35  36
ATOM     36  C   UNL     1      -2.098   3.173  -5.892  1.00  0.00    -0.045 A 
ATOM     37  C   UNL     1      -1.501   2.140  -6.631  1.00  0.00     0.007 A 
ATOM     38  C   UNL     1      -2.007   3.151  -4.494  1.00  0.00     0.007 A 
ATOM     39  C   UNL     1      -0.818   1.111  -5.983  1.00  0.00     0.046 A 
ATOM     40  C   UNL     1      -1.325   2.119  -3.844  1.00  0.00     0.046 A 
ATOM     41  C   UNL     1      -0.735   1.108  -4.596  1.00  0.00     0.115 A 
BRANCH  41  42
ATOM     42  O   UNL     1      -0.062   0.082  -4.001  1.00  0.00    -0.508 OA
ATOM     43  H   UNL     1      -0.285  -0.740  -4.468  1.00  0.00     0.293 HD
ENDBRANCH  41  42
ENDBRANCH  35  36
ENDBRANCH  34  35
BRANCH  34  44
ATOM     44  C   UNL     1      -3.188   5.525  -8.805  1.00  0.00     0.243 C 
ATOM     45  O   UNL     1      -3.148   5.642 -10.027  1.00  0.00    -0.273 OA
ATOM     46  N   UNL     1      -3.994   6.325  -8.023  1.00  0.00    -0.341 N 
ATOM     47  H   UNL     1      -3.907   6.274  -7.011  1.00  0.00     0.164 HD
BRANCH  46  48
ATOM     48  C   UNL     1      -4.905   7.331  -8.571  1.00  0.00     0.196 C 
BRANCH  48  49
ATOM     49  C   UNL     1      -6.368   7.012  -8.221  1.00  0.00     0.072 C 
BRANCH  49  50
ATOM     50  C   UNL     1      -6.492   6.007  -7.097  1.00  0.00    -0.045 A 
ATOM     51  C   UNL     1      -6.656   4.646  -7.392  1.00  0.00     0.007 A 
ATOM     52  C   UNL     1      -6.465   6.417  -5.758  1.00  0.00     0.007 A 
ATOM     53  C   UNL     1      -6.784   3.712  -6.364  1.00  0.00     0.046 A 
ATOM     54  C   UNL     1      -6.595   5.481  -4.729  1.00  0.00     0.046 A 
ATOM     55  C   UNL     1      -6.752   4.136  -5.041  1.00  0.00     0.115 A 
BRANCH  55  56
ATOM     56  O   UNL     1      -6.883   3.191  -4.066  1.00  0.00    -0.508 OA
ATOM     57  H   UNL     1      -6.861   2.316  -4.484  1.00  0.00     0.293 HD
ENDBRANCH  55  56
ENDBRANCH  49  50
ENDBRANCH  48  49
BRANCH  48  58
ATOM     58  C   UNL     1      -4.529   8.707  -8.004  1.00  0.00     0.326 C 
ATOM     59  O   UNL     1      -5.221   9.712  -7.982  1.00  0.00    -0.250 OA
BRANCH  58  60
ATOM     60  O   UNL     1      -3.283   8.749  -7.468  1.00  0.00    -0.480 OA
ATOM     61  H   UNL     1      -2.761   9.226  -8.149  1.00  0.00     0.296 HD
ENDBRANCH  58  60
ENDBRANCH  48  58
ENDBRANCH  46  48
ENDBRANCH  34  44
ENDBRANCH  32  34
ENDBRANCH  25  30
ENDBRANCH  23  25
ENDBRANCH   2  23
TORSDOF 28
ENDMDL
MODEL 40
REMARK VINA RESULT:    -5.459      2.609      6.501
REMARK INTER + INTRA:         -18.175
REMARK INTER:                 -12.572
REMARK INTRA:                  -5.603
REMARK UNBOUND:                -4.579
REMARK SMILES CCCCCCC[C@H](N)[C@H](O)C(=O)N[C@H](C)C(=O)N(C)[C@H](CC(C)C)C(=O)N[C@@H](Cc1ccc(O)cc1)C(=O)N[C@@H](Cc1ccc(O)cc1)C(=O)O
REMARK SMILES IDX 18 1 17 2 15 3 16 4 14 5 12 6 13 7 10 9 11 10 8 12 9 13 7 16
REMARK SMILES IDX 6 17 5 18 4 19 3 20 2 21 1 22 19 23 20 24 21 25 22 26 23 27
REMARK SMILES IDX 24 28 25 29 26 30 27 31 28 32 29 34 30 35 31 36 32 37 37 38
REMARK SMILES IDX 33 39 36 40 34 41 35 42 38 44 39 45 40 46 41 48 42 49 43 50
REMARK SMILES IDX 44 51 49 52 45 53 48 54 46 55 47 56 50 58 51 59 52 60
REMARK H PARENT 14 8 11 11 9 14 9 15 28 33 35 43 40 47 47 57 52 61
ROOT
ATOM      1  O   UNL     1     -13.168  -2.861   6.845  1.00  0.00    -0.272 OA
ATOM      2  C   UNL     1     -12.133  -3.022   7.509  1.00  0.00     0.245 C 
ENDROOT
BRANCH   2   3
ATOM      3  C   UNL     1     -11.684  -4.466   7.844  1.00  0.00     0.168 C 
ATOM      4  C   UNL     1     -12.332  -4.947   9.138  1.00  0.00     0.041 C 
BRANCH   3   5
ATOM      5  N   UNL     1     -11.854  -5.425   6.763  1.00  0.00    -0.342 N 
ATOM      6  C   UNL     1     -10.855  -5.672   5.846  1.00  0.00     0.251 C 
ATOM      7  O   UNL     1      -9.779  -5.084   5.843  1.00  0.00    -0.272 OA
ATOM      8  H   UNL     1     -12.718  -5.949   6.643  1.00  0.00     0.164 HD
BRANCH   6   9
ATOM      9  C   UNL     1     -11.202  -6.821   4.885  1.00  0.00     0.219 C 
BRANCH   9  10
ATOM     10  O   UNL     1     -11.488  -8.047   5.570  1.00  0.00    -0.382 OA
ATOM     11  H   UNL     1     -12.468  -8.104   5.542  1.00  0.00     0.211 HD
ENDBRANCH   9  10
BRANCH   9  12
ATOM     12  C   UNL     1     -12.341  -6.465   3.895  1.00  0.00     0.089 C 
BRANCH  12  13
ATOM     13  N   UNL     1     -12.616  -5.014   4.002  1.00  0.00    -0.325 NA
ATOM     14  H   UNL     1     -11.783  -4.539   4.357  1.00  0.00     0.119 HD
ATOM     15  H   UNL     1     -13.333  -4.864   4.716  1.00  0.00     0.119 HD
ENDBRANCH  12  13
BRANCH  12  16
ATOM     16  C   UNL     1     -12.100  -6.853   2.417  1.00  0.00     0.022 C 
BRANCH  16  17
ATOM     17  C   UNL     1     -11.461  -5.828   1.470  1.00  0.00     0.002 C 
BRANCH  17  18
ATOM     18  C   UNL     1     -12.451  -4.957   0.699  1.00  0.00     0.000 C 
BRANCH  18  19
ATOM     19  C   UNL     1     -12.955  -5.589  -0.605  1.00  0.00    -0.000 C 
BRANCH  19  20
ATOM     20  C   UNL     1     -13.454  -4.595  -1.658  1.00  0.00    -0.000 C 
BRANCH  20  21
ATOM     21  C   UNL     1     -14.963  -4.688  -1.902  1.00  0.00    -0.003 C 
ATOM     22  C   UNL     1     -15.322  -4.268  -3.319  1.00  0.00     0.004 C 
ENDBRANCH  20  21
ENDBRANCH  19  20
ENDBRANCH  18  19
ENDBRANCH  17  18
ENDBRANCH  16  17
ENDBRANCH  12  16
ENDBRANCH   9  12
ENDBRANCH   6   9
ENDBRANCH   3   5
ENDBRANCH   2   3
BRANCH   2  23
ATOM     23  N   UNL     1     -11.337  -1.928   7.832  1.00  0.00    -0.332 N 
ATOM     24  C   UNL     1     -11.847  -0.619   8.213  1.00  0.00     0.147 C 
BRANCH  23  25
ATOM     25  C   UNL     1      -9.859  -2.078   7.931  1.00  0.00     0.174 C 
BRANCH  25  26
ATOM     26  C   UNL     1      -9.287  -1.535   9.262  1.00  0.00     0.038 C 
BRANCH  26  27
ATOM     27  C   UNL     1      -8.334  -2.465  10.045  1.00  0.00    -0.015 C 
ATOM     28  C   UNL     1      -8.201  -2.063  11.514  1.00  0.00     0.007 C 
ATOM     29  C   UNL     1      -8.692  -3.944   9.924  1.00  0.00     0.007 C 
ENDBRANCH  26  27
ENDBRANCH  25  26
BRANCH  25  30
ATOM     30  C   UNL     1      -9.178  -1.487   6.675  1.00  0.00     0.243 C 
ATOM     31  O   UNL     1      -8.583  -0.411   6.704  1.00  0.00    -0.273 OA
ATOM     32  N   UNL     1      -9.288  -2.236   5.533  1.00  0.00    -0.342 N 
ATOM     33  H   UNL     1      -9.673  -3.181   5.621  1.00  0.00     0.164 HD
BRANCH  32  34
ATOM     34  C   UNL     1      -8.729  -1.820   4.244  1.00  0.00     0.175 C 
BRANCH  34  35
ATOM     35  C   UNL     1      -7.310  -2.373   4.045  1.00  0.00     0.070 C 
BRANCH  35  36
ATOM     36  C   UNL     1      -6.266  -1.283   3.947  1.00  0.00    -0.045 A 
ATOM     37  C   UNL     1      -6.038  -0.638   2.723  1.00  0.00     0.007 A 
ATOM     38  C   UNL     1      -5.500  -0.919   5.063  1.00  0.00     0.007 A 
ATOM     39  C   UNL     1      -5.068   0.359   2.619  1.00  0.00     0.046 A 
ATOM     40  C   UNL     1      -4.527   0.078   4.960  1.00  0.00     0.046 A 
ATOM     41  C   UNL     1      -4.321   0.710   3.738  1.00  0.00     0.115 A 
BRANCH  41  42
ATOM     42  O   UNL     1      -3.381   1.687   3.594  1.00  0.00    -0.508 OA
ATOM     43  H   UNL     1      -2.586   1.420   4.085  1.00  0.00     0.293 HD
ENDBRANCH  41  42
ENDBRANCH  35  36
ENDBRANCH  34  35
BRANCH  34  44
ATOM     44  C   UNL     1      -9.693  -2.289   3.130  1.00  0.00     0.243 C 
ATOM     45  O   UNL     1     -10.564  -3.142   3.280  1.00  0.00    -0.273 OA
ATOM     46  N   UNL     1      -9.404  -1.753   1.893  1.00  0.00    -0.341 N 
ATOM     47  H   UNL     1      -8.598  -1.140   1.796  1.00  0.00     0.164 HD
BRANCH  46  48
ATOM     48  C   UNL     1     -10.136  -2.102   0.673  1.00  0.00     0.196 C 
BRANCH  48  49
ATOM     49  C   UNL     1     -10.455  -0.853  -0.165  1.00  0.00     0.072 C 
BRANCH  49  50
ATOM     50  C   UNL     1     -11.845  -0.889  -0.758  1.00  0.00    -0.045 A 
ATOM     51  C   UNL     1     -12.011  -0.909  -2.150  1.00  0.00     0.007 A 
ATOM     52  C   UNL     1     -12.979  -0.883   0.064  1.00  0.00     0.007 A 
ATOM     53  C   UNL     1     -13.289  -0.929  -2.709  1.00  0.00     0.046 A 
ATOM     54  C   UNL     1     -14.259  -0.902  -0.496  1.00  0.00     0.046 A 
ATOM     55  C   UNL     1     -14.403  -0.926  -1.879  1.00  0.00     0.115 A 
BRANCH  55  56
ATOM     56  O   UNL     1     -15.634  -0.945  -2.464  1.00  0.00    -0.508 OA
ATOM     57  H   UNL     1     -15.705  -0.175  -3.051  1.00  0.00     0.293 HD
ENDBRANCH  55  56
ENDBRANCH  49  50
ENDBRANCH  48  49
BRANCH  48  58
ATOM     58  C   UNL     1      -9.288  -3.076  -0.157  1.00  0.00     0.326 C 
ATOM     59  O   UNL     1      -8.173  -3.495   0.108  1.00  0.00    -0.250 OA
BRANCH  58  60
ATOM     60  O   UNL     1      -9.900  -3.494  -1.293  1.00  0.00    -0.480 OA
ATOM     61  H   UNL     1      -9.297  -3.182  -2.003  1.00  0.00     0.296 HD
ENDBRANCH  58  60
ENDBRANCH  48  58
ENDBRANCH  46  48
ENDBRANCH  34  44
ENDBRANCH  32  34
ENDBRANCH  25  30
ENDBRANCH  23  25
ENDBRANCH   2  23
TORSDOF 28
ENDMDL
MODEL 41
REMARK VINA RESULT:    -5.451     15.931     19.948
REMARK INTER + INTRA:         -18.156
REMARK INTER:                 -13.084
REMARK INTRA:                  -5.072
REMARK UNBOUND:                -4.579
REMARK SMILES CCCCCCC[C@H](N)[C@H](O)C(=O)N[C@H](C)C(=O)N(C)[C@H](CC(C)C)C(=O)N[C@@H](Cc1ccc(O)cc1)C(=O)N[C@@H](Cc1ccc(O)cc1)C(=O)O
REMARK SMILES IDX 18 1 17 2 15 3 16 4 14 5 12 6 13 7 10 9 11 10 8 12 9 13 7 16
REMARK SMILES IDX 6 17 5 18 4 19 3 20 2 21 1 22 19 23 20 24 21 25 22 26 23 27
REMARK SMILES IDX 24 28 25 29 26 30 27 31 28 32 29 34 30 35 31 36 32 37 37 38
REMARK SMILES IDX 33 39 36 40 34 41 35 42 38 44 39 45 40 46 41 48 42 49 43 50
REMARK SMILES IDX 44 51 49 52 45 53 48 54 46 55 47 56 50 58 51 59 52 60
REMARK H PARENT 14 8 11 11 9 14 9 15 28 33 35 43 40 47 47 57 52 61
ROOT
ATOM      1  O   UNL     1       0.029 -10.106 -10.279  1.00  0.00    -0.272 OA
ATOM      2  C   UNL     1      -1.030 -10.494 -10.795  1.00  0.00     0.245 C 
ENDROOT
BRANCH   2   3
ATOM      3  C   UNL     1      -1.845  -9.495 -11.654  1.00  0.00     0.168 C 
ATOM      4  C   UNL     1      -3.273  -9.373 -11.133  1.00  0.00     0.041 C 
BRANCH   3   5
ATOM      5  N   UNL     1      -1.221  -8.194 -11.835  1.00  0.00    -0.342 N 
ATOM      6  C   UNL     1      -1.261  -7.225 -10.854  1.00  0.00     0.251 C 
ATOM      7  O   UNL     1      -1.851  -7.365  -9.788  1.00  0.00    -0.272 OA
ATOM      8  H   UNL     1      -0.732  -7.948 -12.692  1.00  0.00     0.164 HD
BRANCH   6   9
ATOM      9  C   UNL     1      -0.418  -5.989 -11.206  1.00  0.00     0.219 C 
BRANCH   9  10
ATOM     10  O   UNL     1      -0.806  -4.826 -10.464  1.00  0.00    -0.382 OA
ATOM     11  H   UNL     1       0.042  -4.350 -10.320  1.00  0.00     0.211 HD
ENDBRANCH   9  10
BRANCH   9  12
ATOM     12  C   UNL     1       1.108  -6.237 -11.081  1.00  0.00     0.089 C 
BRANCH  12  13
ATOM     13  N   UNL     1       1.799  -4.927 -11.103  1.00  0.00    -0.325 NA
ATOM     14  H   UNL     1       1.106  -4.181 -11.015  1.00  0.00     0.119 HD
ATOM     15  H   UNL     1       2.221  -4.792 -12.025  1.00  0.00     0.119 HD
ENDBRANCH  12  13
BRANCH  12  16
ATOM     16  C   UNL     1       1.563  -7.057  -9.850  1.00  0.00     0.022 C 
BRANCH  16  17
ATOM     17  C   UNL     1       2.977  -6.844  -9.291  1.00  0.00     0.002 C 
BRANCH  17  18
ATOM     18  C   UNL     1       4.047  -7.763  -9.877  1.00  0.00     0.000 C 
BRANCH  18  19
ATOM     19  C   UNL     1       4.000  -7.881 -11.406  1.00  0.00    -0.000 C 
BRANCH  19  20
ATOM     20  C   UNL     1       4.147  -9.304 -11.953  1.00  0.00    -0.000 C 
BRANCH  20  21
ATOM     21  C   UNL     1       2.963 -10.208 -11.598  1.00  0.00    -0.003 C 
ATOM     22  C   UNL     1       2.828 -11.358 -12.583  1.00  0.00     0.004 C 
ENDBRANCH  20  21
ENDBRANCH  19  20
ENDBRANCH  18  19
ENDBRANCH  17  18
ENDBRANCH  16  17
ENDBRANCH  12  16
ENDBRANCH   9  12
ENDBRANCH   6   9
ENDBRANCH   3   5
ENDBRANCH   2   3
BRANCH   2  23
ATOM     23  N   UNL     1      -1.401 -11.831 -10.699  1.00  0.00    -0.332 N 
ATOM     24  C   UNL     1      -1.650 -12.702 -11.838  1.00  0.00     0.147 C 
BRANCH  23  25
ATOM     25  C   UNL     1      -1.443 -12.506  -9.373  1.00  0.00     0.174 C 
BRANCH  25  26
ATOM     26  C   UNL     1      -2.084 -11.629  -8.272  1.00  0.00     0.038 C 
BRANCH  26  27
ATOM     27  C   UNL     1      -3.345 -12.189  -7.577  1.00  0.00    -0.015 C 
ATOM     28  C   UNL     1      -3.783 -13.534  -8.155  1.00  0.00     0.007 C 
ATOM     29  C   UNL     1      -3.214 -12.274  -6.058  1.00  0.00     0.007 C 
ENDBRANCH  26  27
ENDBRANCH  25  26
BRANCH  25  30
ATOM     30  C   UNL     1      -0.041 -13.041  -9.004  1.00  0.00     0.243 C 
ATOM     31  O   UNL     1       0.374 -14.121  -9.423  1.00  0.00    -0.273 OA
ATOM     32  N   UNL     1       0.701 -12.239  -8.176  1.00  0.00    -0.342 N 
ATOM     33  H   UNL     1       0.347 -11.298  -7.985  1.00  0.00     0.164 HD
BRANCH  32  34
ATOM     34  C   UNL     1       2.040 -12.599  -7.700  1.00  0.00     0.175 C 
BRANCH  34  35
ATOM     35  C   UNL     1       3.087 -11.567  -8.147  1.00  0.00     0.070 C 
BRANCH  35  36
ATOM     36  C   UNL     1       4.263 -12.197  -8.858  1.00  0.00    -0.045 A 
ATOM     37  C   UNL     1       5.394 -11.426  -9.164  1.00  0.00     0.007 A 
ATOM     38  C   UNL     1       4.233 -13.545  -9.241  1.00  0.00     0.007 A 
ATOM     39  C   UNL     1       6.479 -11.995  -9.832  1.00  0.00     0.046 A 
ATOM     40  C   UNL     1       5.318 -14.115  -9.911  1.00  0.00     0.046 A 
ATOM     41  C   UNL     1       6.432 -13.334 -10.200  1.00  0.00     0.115 A 
BRANCH  41  42
ATOM     42  O   UNL     1       7.511 -13.851 -10.854  1.00  0.00    -0.508 OA
ATOM     43  H   UNL     1       8.054 -13.113 -11.178  1.00  0.00     0.293 HD
ENDBRANCH  41  42
ENDBRANCH  35  36
ENDBRANCH  34  35
BRANCH  34  44
ATOM     44  C   UNL     1       1.981 -12.733  -6.162  1.00  0.00     0.243 C 
ATOM     45  O   UNL     1       2.953 -12.968  -5.449  1.00  0.00    -0.273 OA
ATOM     46  N   UNL     1       0.699 -12.695  -5.656  1.00  0.00    -0.341 N 
ATOM     47  H   UNL     1      -0.084 -12.615  -6.300  1.00  0.00     0.164 HD
BRANCH  46  48
ATOM     48  C   UNL     1       0.388 -12.869  -4.236  1.00  0.00     0.196 C 
BRANCH  48  49
ATOM     49  C   UNL     1      -0.354 -11.646  -3.671  1.00  0.00     0.072 C 
BRANCH  49  50
ATOM     50  C   UNL     1       0.088 -10.350  -4.312  1.00  0.00    -0.045 A 
ATOM     51  C   UNL     1       1.314  -9.773  -3.951  1.00  0.00     0.007 A 
ATOM     52  C   UNL     1      -0.720  -9.700  -5.253  1.00  0.00     0.007 A 
ATOM     53  C   UNL     1       1.726  -8.571  -4.526  1.00  0.00     0.046 A 
ATOM     54  C   UNL     1      -0.309  -8.496  -5.829  1.00  0.00     0.046 A 
ATOM     55  C   UNL     1       0.913  -7.942  -5.461  1.00  0.00     0.115 A 
BRANCH  55  56
ATOM     56  O   UNL     1       1.351  -6.768  -5.998  1.00  0.00    -0.508 OA
ATOM     57  H   UNL     1       1.950  -6.345  -5.363  1.00  0.00     0.293 HD
ENDBRANCH  55  56
ENDBRANCH  49  50
ENDBRANCH  48  49
BRANCH  48  58
ATOM     58  C   UNL     1      -0.482 -14.122  -4.065  1.00  0.00     0.326 C 
ATOM     59  O   UNL     1      -0.307 -15.218  -4.574  1.00  0.00    -0.250 OA
BRANCH  58  60
ATOM     60  O   UNL     1      -1.541 -13.938  -3.237  1.00  0.00    -0.480 OA
ATOM     61  H   UNL     1      -1.653 -12.963  -3.227  1.00  0.00     0.296 HD
ENDBRANCH  58  60
ENDBRANCH  48  58
ENDBRANCH  46  48
ENDBRANCH  34  44
ENDBRANCH  32  34
ENDBRANCH  25  30
ENDBRANCH  23  25
ENDBRANCH   2  23
TORSDOF 28
ENDMDL
MODEL 42
REMARK VINA RESULT:    -5.428      5.001      9.363
REMARK INTER + INTRA:         -18.100
REMARK INTER:                 -11.578
REMARK INTRA:                  -6.521
REMARK UNBOUND:                -4.579
REMARK SMILES CCCCCCC[C@H](N)[C@H](O)C(=O)N[C@H](C)C(=O)N(C)[C@H](CC(C)C)C(=O)N[C@@H](Cc1ccc(O)cc1)C(=O)N[C@@H](Cc1ccc(O)cc1)C(=O)O
REMARK SMILES IDX 18 1 17 2 15 3 16 4 14 5 12 6 13 7 10 9 11 10 8 12 9 13 7 16
REMARK SMILES IDX 6 17 5 18 4 19 3 20 2 21 1 22 19 23 20 24 21 25 22 26 23 27
REMARK SMILES IDX 24 28 25 29 26 30 27 31 28 32 29 34 30 35 31 36 32 37 37 38
REMARK SMILES IDX 33 39 36 40 34 41 35 42 38 44 39 45 40 46 41 48 42 49 43 50
REMARK SMILES IDX 44 51 49 52 45 53 48 54 46 55 47 56 50 58 51 59 52 60
REMARK H PARENT 14 8 11 11 9 14 9 15 28 33 35 43 40 47 47 57 52 61
ROOT
ATOM      1  O   UNL     1     -11.299   0.916  -3.613  1.00  0.00    -0.272 OA
ATOM      2  C   UNL     1     -11.811   1.101  -2.498  1.00  0.00     0.245 C 
ENDROOT
BRANCH   2   3
ATOM      3  C   UNL     1     -12.961   0.167  -2.047  1.00  0.00     0.168 C 
ATOM      4  C   UNL     1     -14.220   0.423  -2.868  1.00  0.00     0.041 C 
BRANCH   3   5
ATOM      5  N   UNL     1     -12.620  -1.246  -2.004  1.00  0.00    -0.342 N 
ATOM      6  C   UNL     1     -13.061  -2.071  -0.991  1.00  0.00     0.251 C 
ATOM      7  O   UNL     1     -13.730  -1.677  -0.041  1.00  0.00    -0.272 OA
ATOM      8  H   UNL     1     -12.041  -1.680  -2.719  1.00  0.00     0.164 HD
BRANCH   6   9
ATOM      9  C   UNL     1     -12.700  -3.546  -1.226  1.00  0.00     0.219 C 
BRANCH   9  10
ATOM     10  O   UNL     1     -12.757  -3.916  -2.609  1.00  0.00    -0.382 OA
ATOM     11  H   UNL     1     -11.928  -3.542  -2.982  1.00  0.00     0.211 HD
ENDBRANCH   9  10
BRANCH   9  12
ATOM     12  C   UNL     1     -11.336  -3.946  -0.605  1.00  0.00     0.089 C 
BRANCH  12  13
ATOM     13  N   UNL     1     -10.512  -2.724  -0.461  1.00  0.00    -0.325 NA
ATOM     14  H   UNL     1      -9.600  -2.881  -0.894  1.00  0.00     0.119 HD
ATOM     15  H   UNL     1     -10.314  -2.573   0.531  1.00  0.00     0.119 HD
ENDBRANCH  12  13
BRANCH  12  16
ATOM     16  C   UNL     1     -11.401  -4.705   0.742  1.00  0.00     0.022 C 
BRANCH  16  17
ATOM     17  C   UNL     1     -11.969  -3.990   1.976  1.00  0.00     0.002 C 
BRANCH  17  18
ATOM     18  C   UNL     1     -10.973  -3.781   3.115  1.00  0.00     0.000 C 
BRANCH  18  19
ATOM     19  C   UNL     1     -10.417  -2.353   3.205  1.00  0.00    -0.000 C 
BRANCH  19  20
ATOM     20  C   UNL     1      -9.776  -1.989   4.547  1.00  0.00    -0.000 C 
BRANCH  20  21
ATOM     21  C   UNL     1      -8.902  -3.110   5.118  1.00  0.00    -0.003 C 
ATOM     22  C   UNL     1      -7.544  -2.585   5.557  1.00  0.00     0.004 C 
ENDBRANCH  20  21
ENDBRANCH  19  20
ENDBRANCH  18  19
ENDBRANCH  17  18
ENDBRANCH  16  17
ENDBRANCH  12  16
ENDBRANCH   9  12
ENDBRANCH   6   9
ENDBRANCH   3   5
ENDBRANCH   2   3
BRANCH   2  23
ATOM     23  N   UNL     1     -11.271   2.048  -1.634  1.00  0.00    -0.332 N 
ATOM     24  C   UNL     1     -10.433   3.163  -2.050  1.00  0.00     0.147 C 
BRANCH  23  25
ATOM     25  C   UNL     1     -11.641   2.046  -0.192  1.00  0.00     0.174 C 
BRANCH  25  26
ATOM     26  C   UNL     1     -11.744   3.470   0.405  1.00  0.00     0.038 C 
BRANCH  26  27
ATOM     27  C   UNL     1     -13.165   4.043   0.606  1.00  0.00    -0.015 C 
ATOM     28  C   UNL     1     -13.177   5.267   1.522  1.00  0.00     0.007 C 
ATOM     29  C   UNL     1     -13.890   4.344  -0.703  1.00  0.00     0.007 C 
ENDBRANCH  26  27
ENDBRANCH  25  26
BRANCH  25  30
ATOM     30  C   UNL     1     -10.700   1.108   0.597  1.00  0.00     0.243 C 
ATOM     31  O   UNL     1     -10.900  -0.104   0.669  1.00  0.00    -0.273 OA
ATOM     32  N   UNL     1      -9.636   1.716   1.213  1.00  0.00    -0.342 N 
ATOM     33  H   UNL     1      -9.459   2.699   0.991  1.00  0.00     0.164 HD
BRANCH  32  34
ATOM     34  C   UNL     1      -8.658   0.988   2.026  1.00  0.00     0.175 C 
BRANCH  34  35
ATOM     35  C   UNL     1      -7.266   1.009   1.376  1.00  0.00     0.070 C 
BRANCH  35  36
ATOM     36  C   UNL     1      -6.704  -0.377   1.152  1.00  0.00    -0.045 A 
ATOM     37  C   UNL     1      -7.093  -1.435   1.987  1.00  0.00     0.007 A 
ATOM     38  C   UNL     1      -5.777  -0.620   0.130  1.00  0.00     0.007 A 
ATOM     39  C   UNL     1      -6.570  -2.715   1.796  1.00  0.00     0.046 A 
ATOM     40  C   UNL     1      -5.252  -1.901  -0.061  1.00  0.00     0.046 A 
ATOM     41  C   UNL     1      -5.655  -2.937   0.774  1.00  0.00     0.115 A 
BRANCH  41  42
ATOM     42  O   UNL     1      -5.165  -4.201   0.624  1.00  0.00    -0.508 OA
ATOM     43  H   UNL     1      -5.303  -4.682   1.457  1.00  0.00     0.293 HD
ENDBRANCH  41  42
ENDBRANCH  35  36
ENDBRANCH  34  35
BRANCH  34  44
ATOM     44  C   UNL     1      -8.646   1.617   3.437  1.00  0.00     0.243 C 
ATOM     45  O   UNL     1      -9.551   1.497   4.258  1.00  0.00    -0.273 OA
ATOM     46  N   UNL     1      -7.568   2.449   3.658  1.00  0.00    -0.341 N 
ATOM     47  H   UNL     1      -6.905   2.609   2.904  1.00  0.00     0.164 HD
BRANCH  46  48
ATOM     48  C   UNL     1      -7.377   3.209   4.895  1.00  0.00     0.196 C 
BRANCH  48  49
ATOM     49  C   UNL     1      -6.075   2.805   5.606  1.00  0.00     0.072 C 
BRANCH  49  50
ATOM     50  C   UNL     1      -5.289   1.768   4.834  1.00  0.00    -0.045 A 
ATOM     51  C   UNL     1      -5.293   0.431   5.257  1.00  0.00     0.007 A 
ATOM     52  C   UNL     1      -4.535   2.125   3.709  1.00  0.00     0.007 A 
ATOM     53  C   UNL     1      -4.562  -0.532   4.562  1.00  0.00     0.046 A 
ATOM     54  C   UNL     1      -3.802   1.162   3.013  1.00  0.00     0.046 A 
ATOM     55  C   UNL     1      -3.822  -0.160   3.446  1.00  0.00     0.115 A 
BRANCH  55  56
ATOM     56  O   UNL     1      -3.120  -1.130   2.795  1.00  0.00    -0.508 OA
ATOM     57  H   UNL     1      -2.291  -0.743   2.470  1.00  0.00     0.293 HD
ENDBRANCH  55  56
ENDBRANCH  49  50
ENDBRANCH  48  49
BRANCH  48  58
ATOM     58  C   UNL     1      -7.338   4.707   4.560  1.00  0.00     0.326 C 
ATOM     59  O   UNL     1      -6.348   5.403   4.405  1.00  0.00    -0.250 OA
BRANCH  58  60
ATOM     60  O   UNL     1      -8.567   5.263   4.419  1.00  0.00    -0.480 OA
ATOM     61  H   UNL     1      -9.084   4.857   5.149  1.00  0.00     0.296 HD
ENDBRANCH  58  60
ENDBRANCH  48  58
ENDBRANCH  46  48
ENDBRANCH  34  44
ENDBRANCH  32  34
ENDBRANCH  25  30
ENDBRANCH  23  25
ENDBRANCH   2  23
TORSDOF 28
ENDMDL
MODEL 43
REMARK VINA RESULT:    -5.416      2.291      8.157
REMARK INTER + INTRA:         -18.067
REMARK INTER:                 -12.028
REMARK INTRA:                  -6.040
REMARK UNBOUND:                -4.579
REMARK SMILES CCCCCCC[C@H](N)[C@H](O)C(=O)N[C@H](C)C(=O)N(C)[C@H](CC(C)C)C(=O)N[C@@H](Cc1ccc(O)cc1)C(=O)N[C@@H](Cc1ccc(O)cc1)C(=O)O
REMARK SMILES IDX 18 1 17 2 15 3 16 4 14 5 12 6 13 7 10 9 11 10 8 12 9 13 7 16
REMARK SMILES IDX 6 17 5 18 4 19 3 20 2 21 1 22 19 23 20 24 21 25 22 26 23 27
REMARK SMILES IDX 24 28 25 29 26 30 27 31 28 32 29 34 30 35 31 36 32 37 37 38
REMARK SMILES IDX 33 39 36 40 34 41 35 42 38 44 39 45 40 46 41 48 42 49 43 50
REMARK SMILES IDX 44 51 49 52 45 53 48 54 46 55 47 56 50 58 51 59 52 60
REMARK H PARENT 14 8 11 11 9 14 9 15 28 33 35 43 40 47 47 57 52 61
ROOT
ATOM      1  O   UNL     1      -7.911   0.196   5.192  1.00  0.00    -0.272 OA
ATOM      2  C   UNL     1      -8.429  -0.923   5.066  1.00  0.00     0.245 C 
ENDROOT
BRANCH   2   3
ATOM      3  C   UNL     1      -7.596  -2.058   4.420  1.00  0.00     0.168 C 
ATOM      4  C   UNL     1      -7.491  -3.255   5.359  1.00  0.00     0.041 C 
BRANCH   3   5
ATOM      5  N   UNL     1      -8.028  -2.450   3.088  1.00  0.00    -0.342 N 
ATOM      6  C   UNL     1      -7.581  -1.800   1.957  1.00  0.00     0.251 C 
ATOM      7  O   UNL     1      -6.831  -0.830   1.986  1.00  0.00    -0.272 OA
ATOM      8  H   UNL     1      -8.677  -3.220   2.939  1.00  0.00     0.164 HD
BRANCH   6   9
ATOM      9  C   UNL     1      -8.054  -2.473   0.658  1.00  0.00     0.219 C 
BRANCH   9  10
ATOM     10  O   UNL     1      -7.137  -3.467   0.185  1.00  0.00    -0.382 OA
ATOM     11  H   UNL     1      -7.452  -3.658  -0.725  1.00  0.00     0.211 HD
ENDBRANCH   9  10
BRANCH   9  12
ATOM     12  C   UNL     1      -9.489  -3.052   0.760  1.00  0.00     0.089 C 
BRANCH  12  13
ATOM     13  N   UNL     1     -10.357  -2.039   1.403  1.00  0.00    -0.325 NA
ATOM     14  H   UNL     1     -11.310  -2.402   1.462  1.00  0.00     0.119 HD
ATOM     15  H   UNL     1     -10.420  -1.222   0.792  1.00  0.00     0.119 HD
ENDBRANCH  12  13
BRANCH  12  16
ATOM     16  C   UNL     1     -10.123  -3.530  -0.568  1.00  0.00     0.022 C 
BRANCH  16  17
ATOM     17  C   UNL     1     -11.241  -2.693  -1.206  1.00  0.00     0.002 C 
BRANCH  17  18
ATOM     18  C   UNL     1     -11.591  -3.072  -2.643  1.00  0.00     0.000 C 
BRANCH  18  19
ATOM     19  C   UNL     1     -13.030  -2.726  -3.048  1.00  0.00    -0.000 C 
BRANCH  19  20
ATOM     20  C   UNL     1     -13.718  -1.678  -2.169  1.00  0.00    -0.000 C 
BRANCH  20  21
ATOM     21  C   UNL     1     -13.787  -0.297  -2.827  1.00  0.00    -0.003 C 
ATOM     22  C   UNL     1     -12.453   0.427  -2.739  1.00  0.00     0.004 C 
ENDBRANCH  20  21
ENDBRANCH  19  20
ENDBRANCH  18  19
ENDBRANCH  17  18
ENDBRANCH  16  17
ENDBRANCH  12  16
ENDBRANCH   9  12
ENDBRANCH   6   9
ENDBRANCH   3   5
ENDBRANCH   2   3
BRANCH   2  23
ATOM     23  N   UNL     1      -9.686  -1.173   5.609  1.00  0.00    -0.332 N 
ATOM     24  C   UNL     1      -9.949  -1.370   7.026  1.00  0.00     0.147 C 
BRANCH  23  25
ATOM     25  C   UNL     1     -10.899  -1.125   4.747  1.00  0.00     0.174 C 
BRANCH  25  26
ATOM     26  C   UNL     1     -11.786   0.112   5.025  1.00  0.00     0.038 C 
BRANCH  26  27
ATOM     27  C   UNL     1     -11.207   1.490   4.635  1.00  0.00    -0.015 C 
ATOM     28  C   UNL     1     -10.863   1.581   3.149  1.00  0.00     0.007 C 
ATOM     29  C   UNL     1     -12.093   2.661   5.054  1.00  0.00     0.007 C 
ENDBRANCH  26  27
ENDBRANCH  25  26
BRANCH  25  30
ATOM     30  C   UNL     1     -11.661  -2.467   4.826  1.00  0.00     0.243 C 
ATOM     31  O   UNL     1     -12.743  -2.567   5.402  1.00  0.00    -0.273 OA
ATOM     32  N   UNL     1     -11.049  -3.534   4.220  1.00  0.00    -0.342 N 
ATOM     33  H   UNL     1     -10.226  -3.342   3.643  1.00  0.00     0.164 HD
BRANCH  32  34
ATOM     34  C   UNL     1     -11.612  -4.887   4.219  1.00  0.00     0.175 C 
BRANCH  34  35
ATOM     35  C   UNL     1     -11.197  -5.663   2.959  1.00  0.00     0.070 C 
BRANCH  35  36
ATOM     36  C   UNL     1     -12.166  -5.480   1.813  1.00  0.00    -0.045 A 
ATOM     37  C   UNL     1     -13.147  -4.479   1.877  1.00  0.00     0.007 A 
ATOM     38  C   UNL     1     -12.116  -6.314   0.689  1.00  0.00     0.007 A 
ATOM     39  C   UNL     1     -14.055  -4.311   0.831  1.00  0.00     0.046 A 
ATOM     40  C   UNL     1     -13.026  -6.148  -0.358  1.00  0.00     0.046 A 
ATOM     41  C   UNL     1     -13.987  -5.145  -0.278  1.00  0.00     0.115 A 
BRANCH  41  42
ATOM     42  O   UNL     1     -14.894  -4.950  -1.277  1.00  0.00    -0.508 OA
ATOM     43  H   UNL     1     -14.845  -5.707  -1.884  1.00  0.00     0.293 HD
ENDBRANCH  41  42
ENDBRANCH  35  36
ENDBRANCH  34  35
BRANCH  34  44
ATOM     44  C   UNL     1     -11.153  -5.597   5.512  1.00  0.00     0.243 C 
ATOM     45  O   UNL     1     -10.131  -6.270   5.609  1.00  0.00    -0.273 OA
ATOM     46  N   UNL     1     -12.073  -5.518   6.537  1.00  0.00    -0.341 N 
ATOM     47  H   UNL     1     -12.959  -5.048   6.370  1.00  0.00     0.164 HD
BRANCH  46  48
ATOM     48  C   UNL     1     -11.890  -6.171   7.835  1.00  0.00     0.196 C 
BRANCH  48  49
ATOM     49  C   UNL     1     -12.266  -5.231   8.992  1.00  0.00     0.072 C 
BRANCH  49  50
ATOM     50  C   UNL     1     -11.097  -4.400   9.470  1.00  0.00    -0.045 A 
ATOM     51  C   UNL     1      -9.793  -4.736   9.076  1.00  0.00     0.007 A 
ATOM     52  C   UNL     1     -11.290  -3.305  10.321  1.00  0.00     0.007 A 
ATOM     53  C   UNL     1      -8.705  -3.985   9.521  1.00  0.00     0.046 A 
ATOM     54  C   UNL     1     -10.201  -2.553  10.768  1.00  0.00     0.046 A 
ATOM     55  C   UNL     1      -8.917  -2.900  10.362  1.00  0.00     0.115 A 
BRANCH  55  56
ATOM     56  O   UNL     1      -7.827  -2.193  10.776  1.00  0.00    -0.508 OA
ATOM     57  H   UNL     1      -7.797  -2.215  11.746  1.00  0.00     0.293 HD
ENDBRANCH  55  56
ENDBRANCH  49  50
ENDBRANCH  48  49
BRANCH  48  58
ATOM     58  C   UNL     1     -12.768  -7.430   7.889  1.00  0.00     0.326 C 
ATOM     59  O   UNL     1     -12.756  -8.372   7.114  1.00  0.00    -0.250 OA
BRANCH  58  60
ATOM     60  O   UNL     1     -13.623  -7.448   8.942  1.00  0.00    -0.480 OA
ATOM     61  H   UNL     1     -13.790  -6.496   9.115  1.00  0.00     0.296 HD
ENDBRANCH  58  60
ENDBRANCH  48  58
ENDBRANCH  46  48
ENDBRANCH  34  44
ENDBRANCH  32  34
ENDBRANCH  25  30
ENDBRANCH  23  25
ENDBRANCH   2  23
TORSDOF 28
ENDMDL
MODEL 44
REMARK VINA RESULT:    -5.389     15.571     20.594
REMARK INTER + INTRA:         -18.000
REMARK INTER:                 -12.414
REMARK INTRA:                  -5.586
REMARK UNBOUND:                -4.579
REMARK SMILES CCCCCCC[C@H](N)[C@H](O)C(=O)N[C@H](C)C(=O)N(C)[C@H](CC(C)C)C(=O)N[C@@H](Cc1ccc(O)cc1)C(=O)N[C@@H](Cc1ccc(O)cc1)C(=O)O
REMARK SMILES IDX 18 1 17 2 15 3 16 4 14 5 12 6 13 7 10 9 11 10 8 12 9 13 7 16
REMARK SMILES IDX 6 17 5 18 4 19 3 20 2 21 1 22 19 23 20 24 21 25 22 26 23 27
REMARK SMILES IDX 24 28 25 29 26 30 27 31 28 32 29 34 30 35 31 36 32 37 37 38
REMARK SMILES IDX 33 39 36 40 34 41 35 42 38 44 39 45 40 46 41 48 42 49 43 50
REMARK SMILES IDX 44 51 49 52 45 53 48 54 46 55 47 56 50 58 51 59 52 60
REMARK H PARENT 14 8 11 11 9 14 9 15 28 33 35 43 40 47 47 57 52 61
ROOT
ATOM      1  O   UNL     1       4.728  -7.838  -9.663  1.00  0.00    -0.272 OA
ATOM      2  C   UNL     1       3.801  -8.584 -10.012  1.00  0.00     0.245 C 
ENDROOT
BRANCH   2   3
ATOM      3  C   UNL     1       4.096 -10.093 -10.204  1.00  0.00     0.168 C 
ATOM      4  C   UNL     1       5.571 -10.391  -9.962  1.00  0.00     0.041 C 
BRANCH   3   5
ATOM      5  N   UNL     1       3.231 -10.985  -9.449  1.00  0.00    -0.342 N 
ATOM      6  C   UNL     1       2.242 -11.728 -10.057  1.00  0.00     0.251 C 
ATOM      7  O   UNL     1       1.989 -11.665 -11.256  1.00  0.00    -0.272 OA
ATOM      8  H   UNL     1       3.323 -11.095  -8.441  1.00  0.00     0.164 HD
BRANCH   6   9
ATOM      9  C   UNL     1       1.551 -12.704  -9.091  1.00  0.00     0.219 C 
BRANCH   9  10
ATOM     10  O   UNL     1       0.220 -13.040  -9.502  1.00  0.00    -0.382 OA
ATOM     11  H   UNL     1      -0.305 -12.957  -8.676  1.00  0.00     0.211 HD
ENDBRANCH   9  10
BRANCH   9  12
ATOM     12  C   UNL     1       2.383 -13.984  -8.819  1.00  0.00     0.089 C 
BRANCH  12  13
ATOM     13  N   UNL     1       3.065 -14.373 -10.074  1.00  0.00    -0.325 NA
ATOM     14  H   UNL     1       2.978 -13.614 -10.753  1.00  0.00     0.119 HD
ATOM     15  H   UNL     1       2.567 -15.163 -10.491  1.00  0.00     0.119 HD
ENDBRANCH  12  13
BRANCH  12  16
ATOM     16  C   UNL     1       3.409 -13.893  -7.663  1.00  0.00     0.022 C 
BRANCH  16  17
ATOM     17  C   UNL     1       2.978 -13.267  -6.330  1.00  0.00     0.002 C 
BRANCH  17  18
ATOM     18  C   UNL     1       3.458 -14.009  -5.084  1.00  0.00     0.000 C 
BRANCH  18  19
ATOM     19  C   UNL     1       2.848 -15.407  -4.916  1.00  0.00    -0.000 C 
BRANCH  19  20
ATOM     20  C   UNL     1       3.327 -16.181  -3.685  1.00  0.00    -0.000 C 
BRANCH  20  21
ATOM     21  C   UNL     1       2.270 -17.141  -3.132  1.00  0.00    -0.003 C 
ATOM     22  C   UNL     1       2.005 -16.884  -1.657  1.00  0.00     0.004 C 
ENDBRANCH  20  21
ENDBRANCH  19  20
ENDBRANCH  18  19
ENDBRANCH  17  18
ENDBRANCH  16  17
ENDBRANCH  12  16
ENDBRANCH   9  12
ENDBRANCH   6   9
ENDBRANCH   3   5
ENDBRANCH   2   3
BRANCH   2  23
ATOM     23  N   UNL     1       2.506  -8.086 -10.105  1.00  0.00    -0.332 N 
ATOM     24  C   UNL     1       1.830  -7.340  -9.054  1.00  0.00     0.147 C 
BRANCH  23  25
ATOM     25  C   UNL     1       1.754  -8.185 -11.386  1.00  0.00     0.174 C 
BRANCH  25  26
ATOM     26  C   UNL     1       2.124  -7.068 -12.390  1.00  0.00     0.038 C 
BRANCH  26  27
ATOM     27  C   UNL     1       2.735  -5.775 -11.804  1.00  0.00    -0.015 C 
ATOM     28  C   UNL     1       4.071  -5.414 -12.452  1.00  0.00     0.007 C 
ATOM     29  C   UNL     1       1.781  -4.583 -11.840  1.00  0.00     0.007 C 
ENDBRANCH  26  27
ENDBRANCH  25  26
BRANCH  25  30
ATOM     30  C   UNL     1       0.237  -8.290 -11.106  1.00  0.00     0.243 C 
ATOM     31  O   UNL     1      -0.519  -7.330 -11.250  1.00  0.00    -0.273 OA
ATOM     32  N   UNL     1      -0.204  -9.517 -10.682  1.00  0.00    -0.342 N 
ATOM     33  H   UNL     1       0.456 -10.298 -10.722  1.00  0.00     0.164 HD
BRANCH  32  34
ATOM     34  C   UNL     1      -1.603  -9.793 -10.343  1.00  0.00     0.175 C 
BRANCH  34  35
ATOM     35  C   UNL     1      -2.256 -10.721 -11.379  1.00  0.00     0.070 C 
BRANCH  35  36
ATOM     36  C   UNL     1      -3.765 -10.614 -11.391  1.00  0.00    -0.045 A 
ATOM     37  C   UNL     1      -4.547 -11.753 -11.638  1.00  0.00     0.007 A 
ATOM     38  C   UNL     1      -4.400  -9.383 -11.182  1.00  0.00     0.007 A 
ATOM     39  C   UNL     1      -5.939 -11.661 -11.664  1.00  0.00     0.046 A 
ATOM     40  C   UNL     1      -5.794  -9.290 -11.210  1.00  0.00     0.046 A 
ATOM     41  C   UNL     1      -6.551 -10.432 -11.450  1.00  0.00     0.115 A 
BRANCH  41  42
ATOM     42  O   UNL     1      -7.913 -10.385 -11.488  1.00  0.00    -0.508 OA
ATOM     43  H   UNL     1      -8.252 -10.672 -10.623  1.00  0.00     0.293 HD
ENDBRANCH  41  42
ENDBRANCH  35  36
ENDBRANCH  34  35
BRANCH  34  44
ATOM     44  C   UNL     1      -1.642 -10.397  -8.921  1.00  0.00     0.243 C 
ATOM     45  O   UNL     1      -2.205 -11.449  -8.629  1.00  0.00    -0.273 OA
ATOM     46  N   UNL     1      -1.090  -9.576  -7.961  1.00  0.00    -0.341 N 
ATOM     47  H   UNL     1      -0.740  -8.661  -8.235  1.00  0.00     0.164 HD
BRANCH  46  48
ATOM     48  C   UNL     1      -1.072  -9.904  -6.534  1.00  0.00     0.196 C 
BRANCH  48  49
ATOM     49  C   UNL     1       0.214 -10.654  -6.148  1.00  0.00     0.072 C 
BRANCH  49  50
ATOM     50  C   UNL     1      -0.062 -11.915  -5.361  1.00  0.00    -0.045 A 
ATOM     51  C   UNL     1       0.264 -11.974  -3.998  1.00  0.00     0.007 A 
ATOM     52  C   UNL     1      -0.623 -13.041  -5.977  1.00  0.00     0.007 A 
ATOM     53  C   UNL     1       0.026 -13.137  -3.265  1.00  0.00     0.046 A 
ATOM     54  C   UNL     1      -0.860 -14.206  -5.243  1.00  0.00     0.046 A 
ATOM     55  C   UNL     1      -0.534 -14.243  -3.892  1.00  0.00     0.115 A 
BRANCH  55  56
ATOM     56  O   UNL     1      -0.749 -15.360  -3.140  1.00  0.00    -0.508 OA
ATOM     57  H   UNL     1      -1.537 -15.214  -2.593  1.00  0.00     0.293 HD
ENDBRANCH  55  56
ENDBRANCH  49  50
ENDBRANCH  48  49
BRANCH  48  58
ATOM     58  C   UNL     1      -1.174  -8.606  -5.722  1.00  0.00     0.326 C 
ATOM     59  O   UNL     1      -1.118  -7.463  -6.145  1.00  0.00    -0.250 OA
BRANCH  58  60
ATOM     60  O   UNL     1      -1.360  -8.811  -4.393  1.00  0.00    -0.480 OA
ATOM     61  H   UNL     1      -1.951  -9.595  -4.366  1.00  0.00     0.296 HD
ENDBRANCH  58  60
ENDBRANCH  48  58
ENDBRANCH  46  48
ENDBRANCH  34  44
ENDBRANCH  32  34
ENDBRANCH  25  30
ENDBRANCH  23  25
ENDBRANCH   2  23
TORSDOF 28
ENDMDL
MODEL 45
REMARK VINA RESULT:    -5.343     16.168     21.483
REMARK INTER + INTRA:         -17.887
REMARK INTER:                 -13.760
REMARK INTRA:                  -4.127
REMARK UNBOUND:                -4.579
REMARK SMILES CCCCCCC[C@H](N)[C@H](O)C(=O)N[C@H](C)C(=O)N(C)[C@H](CC(C)C)C(=O)N[C@@H](Cc1ccc(O)cc1)C(=O)N[C@@H](Cc1ccc(O)cc1)C(=O)O
REMARK SMILES IDX 18 1 17 2 15 3 16 4 14 5 12 6 13 7 10 9 11 10 8 12 9 13 7 16
REMARK SMILES IDX 6 17 5 18 4 19 3 20 2 21 1 22 19 23 20 24 21 25 22 26 23 27
REMARK SMILES IDX 24 28 25 29 26 30 27 31 28 32 29 34 30 35 31 36 32 37 37 38
REMARK SMILES IDX 33 39 36 40 34 41 35 42 38 44 39 45 40 46 41 48 42 49 43 50
REMARK SMILES IDX 44 51 49 52 45 53 48 54 46 55 47 56 50 58 51 59 52 60
REMARK H PARENT 14 8 11 11 9 14 9 15 28 33 35 43 40 47 47 57 52 61
ROOT
ATOM      1  O   UNL     1       4.994  -7.912  -9.615  1.00  0.00    -0.272 OA
ATOM      2  C   UNL     1       3.861  -8.258  -9.983  1.00  0.00     0.245 C 
ENDROOT
BRANCH   2   3
ATOM      3  C   UNL     1       3.685  -9.657 -10.624  1.00  0.00     0.168 C 
ATOM      4  C   UNL     1       4.124  -9.644 -12.084  1.00  0.00     0.041 C 
BRANCH   3   5
ATOM      5  N   UNL     1       4.296 -10.749  -9.884  1.00  0.00    -0.342 N 
ATOM      6  C   UNL     1       3.542 -11.741  -9.292  1.00  0.00     0.251 C 
ATOM      7  O   UNL     1       2.316 -11.757  -9.307  1.00  0.00    -0.272 OA
ATOM      8  H   UNL     1       5.305 -10.824  -9.773  1.00  0.00     0.164 HD
BRANCH   6   9
ATOM      9  C   UNL     1       4.402 -12.863  -8.690  1.00  0.00     0.219 C 
BRANCH   9  10
ATOM     10  O   UNL     1       3.683 -13.663  -7.743  1.00  0.00    -0.382 OA
ATOM     11  H   UNL     1       3.555 -13.058  -6.980  1.00  0.00     0.211 HD
ENDBRANCH   9  10
BRANCH   9  12
ATOM     12  C   UNL     1       5.078 -13.755  -9.764  1.00  0.00     0.089 C 
BRANCH  12  13
ATOM     13  N   UNL     1       4.371 -13.556 -11.049  1.00  0.00    -0.325 NA
ATOM     14  H   UNL     1       4.924 -13.967 -11.804  1.00  0.00     0.119 HD
ATOM     15  H   UNL     1       4.338 -12.555 -11.258  1.00  0.00     0.119 HD
ENDBRANCH  12  13
BRANCH  12  16
ATOM     16  C   UNL     1       6.600 -13.549  -9.956  1.00  0.00     0.022 C 
BRANCH  16  17
ATOM     17  C   UNL     1       7.093 -12.643 -11.093  1.00  0.00     0.002 C 
BRANCH  17  18
ATOM     18  C   UNL     1       8.527 -12.142 -10.942  1.00  0.00     0.000 C 
BRANCH  18  19
ATOM     19  C   UNL     1       9.553 -13.254 -10.686  1.00  0.00    -0.000 C 
BRANCH  19  20
ATOM     20  C   UNL     1      10.517 -12.995  -9.524  1.00  0.00    -0.000 C 
BRANCH  20  21
ATOM     21  C   UNL     1      10.344 -13.986  -8.370  1.00  0.00    -0.003 C 
ATOM     22  C   UNL     1       9.708 -15.283  -8.844  1.00  0.00     0.004 C 
ENDBRANCH  20  21
ENDBRANCH  19  20
ENDBRANCH  18  19
ENDBRANCH  17  18
ENDBRANCH  16  17
ENDBRANCH  12  16
ENDBRANCH   9  12
ENDBRANCH   6   9
ENDBRANCH   3   5
ENDBRANCH   2   3
BRANCH   2  23
ATOM     23  N   UNL     1       2.764  -7.449  -9.709  1.00  0.00    -0.332 N 
ATOM     24  C   UNL     1       2.471  -6.868  -8.407  1.00  0.00     0.147 C 
BRANCH  23  25
ATOM     25  C   UNL     1       1.859  -7.012 -10.807  1.00  0.00     0.174 C 
BRANCH  25  26
ATOM     26  C   UNL     1       2.025  -5.517 -11.166  1.00  0.00     0.038 C 
BRANCH  26  27
ATOM     27  C   UNL     1       2.709  -5.192 -12.513  1.00  0.00    -0.015 C 
ATOM     28  C   UNL     1       2.562  -3.722 -12.904  1.00  0.00     0.007 C 
ATOM     29  C   UNL     1       4.174  -5.619 -12.569  1.00  0.00     0.007 C 
ENDBRANCH  26  27
ENDBRANCH  25  26
BRANCH  25  30
ATOM     30  C   UNL     1       0.401  -7.416 -10.488  1.00  0.00     0.243 C 
ATOM     31  O   UNL     1      -0.513  -6.592 -10.474  1.00  0.00    -0.273 OA
ATOM     32  N   UNL     1       0.199  -8.744 -10.217  1.00  0.00    -0.342 N 
ATOM     33  H   UNL     1       0.978  -9.386 -10.387  1.00  0.00     0.164 HD
BRANCH  32  34
ATOM     34  C   UNL     1      -1.111  -9.301  -9.867  1.00  0.00     0.175 C 
BRANCH  34  35
ATOM     35  C   UNL     1      -1.697 -10.120 -11.028  1.00  0.00     0.070 C 
BRANCH  35  36
ATOM     36  C   UNL     1      -3.209 -10.112 -11.044  1.00  0.00    -0.045 A 
ATOM     37  C   UNL     1      -3.900  -8.943 -11.399  1.00  0.00     0.007 A 
ATOM     38  C   UNL     1      -3.939 -11.253 -10.686  1.00  0.00     0.007 A 
ATOM     39  C   UNL     1      -5.295  -8.921 -11.404  1.00  0.00     0.046 A 
ATOM     40  C   UNL     1      -5.335 -11.231 -10.689  1.00  0.00     0.046 A 
ATOM     41  C   UNL     1      -6.001 -10.065 -11.050  1.00  0.00     0.115 A 
BRANCH  41  42
ATOM     42  O   UNL     1      -7.363 -10.000 -11.064  1.00  0.00    -0.508 OA
ATOM     43  H   UNL     1      -7.657  -9.965 -11.990  1.00  0.00     0.293 HD
ENDBRANCH  41  42
ENDBRANCH  35  36
ENDBRANCH  34  35
BRANCH  34  44
ATOM     44  C   UNL     1      -0.943 -10.151  -8.588  1.00  0.00     0.243 C 
ATOM     45  O   UNL     1      -1.255 -11.335  -8.495  1.00  0.00    -0.273 OA
ATOM     46  N   UNL     1      -0.526  -9.421  -7.495  1.00  0.00    -0.341 N 
ATOM     47  H   UNL     1      -0.392  -8.418  -7.593  1.00  0.00     0.164 HD
BRANCH  46  48
ATOM     48  C   UNL     1      -0.361  -9.995  -6.157  1.00  0.00     0.196 C 
BRANCH  48  49
ATOM     49  C   UNL     1       0.870 -10.914  -6.090  1.00  0.00     0.072 C 
BRANCH  49  50
ATOM     50  C   UNL     1       0.601 -12.192  -5.327  1.00  0.00    -0.045 A 
ATOM     51  C   UNL     1      -0.700 -12.485  -4.892  1.00  0.00     0.007 A 
ATOM     52  C   UNL     1       1.638 -13.084  -5.028  1.00  0.00     0.007 A 
ATOM     53  C   UNL     1      -0.958 -13.655  -4.177  1.00  0.00     0.046 A 
ATOM     54  C   UNL     1       1.380 -14.254  -4.310  1.00  0.00     0.046 A 
ATOM     55  C   UNL     1       0.083 -14.530  -3.892  1.00  0.00     0.115 A 
BRANCH  55  56
ATOM     56  O   UNL     1      -0.211 -15.661  -3.189  1.00  0.00    -0.508 OA
ATOM     57  H   UNL     1       0.388 -16.367  -3.480  1.00  0.00     0.293 HD
ENDBRANCH  55  56
ENDBRANCH  49  50
ENDBRANCH  48  49
BRANCH  48  58
ATOM     58  C   UNL     1      -0.210  -8.855  -5.140  1.00  0.00     0.326 C 
ATOM     59  O   UNL     1       0.667  -8.007  -5.106  1.00  0.00    -0.250 OA
BRANCH  58  60
ATOM     60  O   UNL     1      -1.194  -8.828  -4.207  1.00  0.00    -0.480 OA
ATOM     61  H   UNL     1      -0.985  -9.598  -3.635  1.00  0.00     0.296 HD
ENDBRANCH  58  60
ENDBRANCH  48  58
ENDBRANCH  46  48
ENDBRANCH  34  44
ENDBRANCH  32  34
ENDBRANCH  25  30
ENDBRANCH  23  25
ENDBRANCH   2  23
TORSDOF 28
ENDMDL
MODEL 46
REMARK VINA RESULT:    -5.327      3.267     10.023
REMARK INTER + INTRA:         -17.848
REMARK INTER:                 -13.381
REMARK INTRA:                  -4.467
REMARK UNBOUND:                -4.579
REMARK SMILES CCCCCCC[C@H](N)[C@H](O)C(=O)N[C@H](C)C(=O)N(C)[C@H](CC(C)C)C(=O)N[C@@H](Cc1ccc(O)cc1)C(=O)N[C@@H](Cc1ccc(O)cc1)C(=O)O
REMARK SMILES IDX 18 1 17 2 15 3 16 4 14 5 12 6 13 7 10 9 11 10 8 12 9 13 7 16
REMARK SMILES IDX 6 17 5 18 4 19 3 20 2 21 1 22 19 23 20 24 21 25 22 26 23 27
REMARK SMILES IDX 24 28 25 29 26 30 27 31 28 32 29 34 30 35 31 36 32 37 37 38
REMARK SMILES IDX 33 39 36 40 34 41 35 42 38 44 39 45 40 46 41 48 42 49 43 50
REMARK SMILES IDX 44 51 49 52 45 53 48 54 46 55 47 56 50 58 51 59 52 60
REMARK H PARENT 14 8 11 11 9 14 9 15 28 33 35 43 40 47 47 57 52 61
ROOT
ATOM      1  O   UNL     1     -11.577   0.496   5.912  1.00  0.00    -0.272 OA
ATOM      2  C   UNL     1     -10.358   0.709   5.985  1.00  0.00     0.245 C 
ENDROOT
BRANCH   2   3
ATOM      3  C   UNL     1      -9.509  -0.166   6.941  1.00  0.00     0.168 C 
ATOM      4  C   UNL     1      -9.916   0.066   8.392  1.00  0.00     0.041 C 
BRANCH   3   5
ATOM      5  N   UNL     1      -9.476  -1.581   6.607  1.00  0.00    -0.342 N 
ATOM      6  C   UNL     1      -8.300  -2.227   6.291  1.00  0.00     0.251 C 
ATOM      7  O   UNL     1      -7.214  -1.661   6.225  1.00  0.00    -0.272 OA
ATOM      8  H   UNL     1     -10.320  -2.149   6.594  1.00  0.00     0.164 HD
BRANCH   6   9
ATOM      9  C   UNL     1      -8.483  -3.743   6.114  1.00  0.00     0.219 C 
BRANCH   9  10
ATOM     10  O   UNL     1      -7.265  -4.473   6.306  1.00  0.00    -0.382 OA
ATOM     11  H   UNL     1      -6.608  -3.969   5.778  1.00  0.00     0.211 HD
ENDBRANCH   9  10
BRANCH   9  12
ATOM     12  C   UNL     1      -9.619  -4.326   6.994  1.00  0.00     0.089 C 
BRANCH  12  13
ATOM     13  N   UNL     1     -10.218  -5.478   6.282  1.00  0.00    -0.325 NA
ATOM     14  H   UNL     1      -9.703  -6.327   6.524  1.00  0.00     0.119 HD
ATOM     15  H   UNL     1     -10.074  -5.357   5.277  1.00  0.00     0.119 HD
ENDBRANCH  12  13
BRANCH  12  16
ATOM     16  C   UNL     1      -9.220  -4.738   8.431  1.00  0.00     0.022 C 
BRANCH  16  17
ATOM     17  C   UNL     1     -10.125  -4.334   9.603  1.00  0.00     0.002 C 
BRANCH  17  18
ATOM     18  C   UNL     1      -9.659  -3.106  10.383  1.00  0.00     0.000 C 
BRANCH  18  19
ATOM     19  C   UNL     1      -8.181  -2.755  10.170  1.00  0.00    -0.000 C 
BRANCH  19  20
ATOM     20  C   UNL     1      -7.506  -2.043  11.346  1.00  0.00    -0.000 C 
BRANCH  20  21
ATOM     21  C   UNL     1      -7.975  -2.559  12.709  1.00  0.00    -0.003 C 
ATOM     22  C   UNL     1      -6.990  -3.560  13.291  1.00  0.00     0.004 C 
ENDBRANCH  20  21
ENDBRANCH  19  20
ENDBRANCH  18  19
ENDBRANCH  17  18
ENDBRANCH  16  17
ENDBRANCH  12  16
ENDBRANCH   9  12
ENDBRANCH   6   9
ENDBRANCH   3   5
ENDBRANCH   2   3
BRANCH   2  23
ATOM     23  N   UNL     1      -9.760   1.630   5.132  1.00  0.00    -0.332 N 
ATOM     24  C   UNL     1     -10.372   2.880   4.707  1.00  0.00     0.147 C 
BRANCH  23  25
ATOM     25  C   UNL     1      -8.351   1.440   4.689  1.00  0.00     0.174 C 
BRANCH  25  26
ATOM     26  C   UNL     1      -7.584   2.774   4.533  1.00  0.00     0.038 C 
BRANCH  26  27
ATOM     27  C   UNL     1      -6.180   2.853   5.172  1.00  0.00    -0.015 C 
ATOM     28  C   UNL     1      -5.606   1.473   5.495  1.00  0.00     0.007 C 
ATOM     29  C   UNL     1      -5.184   3.669   4.352  1.00  0.00     0.007 C 
ENDBRANCH  26  27
ENDBRANCH  25  26
BRANCH  25  30
ATOM     30  C   UNL     1      -8.306   0.546   3.429  1.00  0.00     0.243 C 
ATOM     31  O   UNL     1      -8.468  -0.672   3.490  1.00  0.00    -0.273 OA
ATOM     32  N   UNL     1      -8.068   1.198   2.247  1.00  0.00    -0.342 N 
ATOM     33  H   UNL     1      -8.086   2.221   2.258  1.00  0.00     0.164 HD
BRANCH  32  34
ATOM     34  C   UNL     1      -7.965   0.509   0.957  1.00  0.00     0.175 C 
BRANCH  34  35
ATOM     35  C   UNL     1      -6.823  -0.519   0.963  1.00  0.00     0.070 C 
BRANCH  35  36
ATOM     36  C   UNL     1      -5.511   0.067   1.435  1.00  0.00    -0.045 A 
ATOM     37  C   UNL     1      -4.719  -0.635   2.356  1.00  0.00     0.007 A 
ATOM     38  C   UNL     1      -5.079   1.321   0.982  1.00  0.00     0.007 A 
ATOM     39  C   UNL     1      -3.514  -0.097   2.808  1.00  0.00     0.046 A 
ATOM     40  C   UNL     1      -3.873   1.862   1.435  1.00  0.00     0.046 A 
ATOM     41  C   UNL     1      -3.101   1.146   2.344  1.00  0.00     0.115 A 
BRANCH  41  42
ATOM     42  O   UNL     1      -1.919   1.638   2.812  1.00  0.00    -0.508 OA
ATOM     43  H   UNL     1      -2.109   2.415   3.364  1.00  0.00     0.293 HD
ENDBRANCH  41  42
ENDBRANCH  35  36
ENDBRANCH  34  35
BRANCH  34  44
ATOM     44  C   UNL     1      -9.331  -0.147   0.654  1.00  0.00     0.243 C 
ATOM     45  O   UNL     1     -10.355   0.475   0.388  1.00  0.00    -0.273 OA
ATOM     46  N   UNL     1      -9.336  -1.514   0.838  1.00  0.00    -0.341 N 
ATOM     47  H   UNL     1      -8.491  -1.970   1.174  1.00  0.00     0.164 HD
BRANCH  46  48
ATOM     48  C   UNL     1     -10.531  -2.344   0.678  1.00  0.00     0.196 C 
BRANCH  48  49
ATOM     49  C   UNL     1     -10.317  -3.434  -0.386  1.00  0.00     0.072 C 
BRANCH  49  50
ATOM     50  C   UNL     1     -11.503  -3.583  -1.313  1.00  0.00    -0.045 A 
ATOM     51  C   UNL     1     -12.540  -4.468  -0.984  1.00  0.00     0.007 A 
ATOM     52  C   UNL     1     -11.575  -2.864  -2.512  1.00  0.00     0.007 A 
ATOM     53  C   UNL     1     -13.632  -4.624  -1.837  1.00  0.00     0.046 A 
ATOM     54  C   UNL     1     -12.668  -3.021  -3.368  1.00  0.00     0.046 A 
ATOM     55  C   UNL     1     -13.689  -3.900  -3.022  1.00  0.00     0.115 A 
BRANCH  55  56
ATOM     56  O   UNL     1     -14.772  -4.083  -3.829  1.00  0.00    -0.508 OA
ATOM     57  H   UNL     1     -14.610  -3.623  -4.668  1.00  0.00     0.293 HD
ENDBRANCH  55  56
ENDBRANCH  49  50
ENDBRANCH  48  49
BRANCH  48  58
ATOM     58  C   UNL     1     -10.870  -2.998   2.024  1.00  0.00     0.326 C 
ATOM     59  O   UNL     1     -11.903  -3.572   2.329  1.00  0.00    -0.250 OA
BRANCH  58  60
ATOM     60  O   UNL     1      -9.868  -2.910   2.936  1.00  0.00    -0.480 OA
ATOM     61  H   UNL     1      -9.737  -1.943   3.035  1.00  0.00     0.296 HD
ENDBRANCH  58  60
ENDBRANCH  48  58
ENDBRANCH  46  48
ENDBRANCH  34  44
ENDBRANCH  32  34
ENDBRANCH  25  30
ENDBRANCH  23  25
ENDBRANCH   2  23
TORSDOF 28
ENDMDL
MODEL 47
REMARK VINA RESULT:    -5.290     14.706     17.839
REMARK INTER + INTRA:         -17.754
REMARK INTER:                 -12.487
REMARK INTRA:                  -5.267
REMARK UNBOUND:                -4.579
REMARK SMILES CCCCCCC[C@H](N)[C@H](O)C(=O)N[C@H](C)C(=O)N(C)[C@H](CC(C)C)C(=O)N[C@@H](Cc1ccc(O)cc1)C(=O)N[C@@H](Cc1ccc(O)cc1)C(=O)O
REMARK SMILES IDX 18 1 17 2 15 3 16 4 14 5 12 6 13 7 10 9 11 10 8 12 9 13 7 16
REMARK SMILES IDX 6 17 5 18 4 19 3 20 2 21 1 22 19 23 20 24 21 25 22 26 23 27
REMARK SMILES IDX 24 28 25 29 26 30 27 31 28 32 29 34 30 35 31 36 32 37 37 38
REMARK SMILES IDX 33 39 36 40 34 41 35 42 38 44 39 45 40 46 41 48 42 49 43 50
REMARK SMILES IDX 44 51 49 52 45 53 48 54 46 55 47 56 50 58 51 59 52 60
REMARK H PARENT 14 8 11 11 9 14 9 15 28 33 35 43 40 47 47 57 52 61
ROOT
ATOM      1  O   UNL     1      -2.274 -10.939  -6.936  1.00  0.00    -0.272 OA
ATOM      2  C   UNL     1      -3.065 -11.831  -6.596  1.00  0.00     0.245 C 
ENDROOT
BRANCH   2   3
ATOM      3  C   UNL     1      -3.918 -12.522  -7.689  1.00  0.00     0.168 C 
ATOM      4  C   UNL     1      -5.365 -12.673  -7.232  1.00  0.00     0.041 C 
BRANCH   3   5
ATOM      5  N   UNL     1      -3.827 -11.916  -9.009  1.00  0.00    -0.342 N 
ATOM      6  C   UNL     1      -2.803 -12.221  -9.880  1.00  0.00     0.251 C 
ATOM      7  O   UNL     1      -1.881 -12.981  -9.602  1.00  0.00    -0.272 OA
ATOM      8  H   UNL     1      -4.515 -11.244  -9.339  1.00  0.00     0.164 HD
BRANCH   6   9
ATOM      9  C   UNL     1      -2.987 -11.576 -11.263  1.00  0.00     0.219 C 
BRANCH   9  10
ATOM     10  O   UNL     1      -4.225 -11.943 -11.883  1.00  0.00    -0.382 OA
ATOM     11  H   UNL     1      -4.663 -11.080 -12.055  1.00  0.00     0.211 HD
ENDBRANCH   9  10
BRANCH   9  12
ATOM     12  C   UNL     1      -2.818 -10.034 -11.243  1.00  0.00     0.089 C 
BRANCH  12  13
ATOM     13  N   UNL     1      -4.158  -9.418 -11.113  1.00  0.00    -0.325 NA
ATOM     14  H   UNL     1      -4.056  -8.461 -10.769  1.00  0.00     0.119 HD
ATOM     15  H   UNL     1      -4.679  -9.910 -10.383  1.00  0.00     0.119 HD
ENDBRANCH  12  13
BRANCH  12  16
ATOM     16  C   UNL     1      -1.866  -9.471 -10.161  1.00  0.00     0.022 C 
BRANCH  16  17
ATOM     17  C   UNL     1      -1.261  -8.073 -10.353  1.00  0.00     0.002 C 
BRANCH  17  18
ATOM     18  C   UNL     1      -0.575  -7.847 -11.698  1.00  0.00     0.000 C 
BRANCH  18  19
ATOM     19  C   UNL     1       0.880  -7.373 -11.587  1.00  0.00    -0.000 C 
BRANCH  19  20
ATOM     20  C   UNL     1       1.073  -5.854 -11.611  1.00  0.00    -0.000 C 
BRANCH  20  21
ATOM     21  C   UNL     1       0.038  -5.132 -12.477  1.00  0.00    -0.003 C 
ATOM     22  C   UNL     1       0.040  -3.635 -12.212  1.00  0.00     0.004 C 
ENDBRANCH  20  21
ENDBRANCH  19  20
ENDBRANCH  18  19
ENDBRANCH  17  18
ENDBRANCH  16  17
ENDBRANCH  12  16
ENDBRANCH   9  12
ENDBRANCH   6   9
ENDBRANCH   3   5
ENDBRANCH   2   3
BRANCH   2  23
ATOM     23  N   UNL     1      -3.087 -12.276  -5.278  1.00  0.00    -0.332 N 
ATOM     24  C   UNL     1      -3.573 -11.495  -4.151  1.00  0.00     0.147 C 
BRANCH  23  25
ATOM     25  C   UNL     1      -2.715 -13.681  -4.954  1.00  0.00     0.174 C 
BRANCH  25  26
ATOM     26  C   UNL     1      -3.763 -14.391  -4.064  1.00  0.00     0.038 C 
BRANCH  26  27
ATOM     27  C   UNL     1      -4.197 -15.810  -4.491  1.00  0.00    -0.015 C 
ATOM     28  C   UNL     1      -3.483 -16.904  -3.697  1.00  0.00     0.007 C 
ATOM     29  C   UNL     1      -5.709 -16.019  -4.454  1.00  0.00     0.007 C 
ENDBRANCH  26  27
ENDBRANCH  25  26
BRANCH  25  30
ATOM     30  C   UNL     1      -1.279 -13.733  -4.385  1.00  0.00     0.243 C 
ATOM     31  O   UNL     1      -1.048 -14.108  -3.236  1.00  0.00    -0.273 OA
ATOM     32  N   UNL     1      -0.286 -13.330  -5.241  1.00  0.00    -0.342 N 
ATOM     33  H   UNL     1      -0.541 -13.169  -6.219  1.00  0.00     0.164 HD
BRANCH  32  34
ATOM     34  C   UNL     1       1.129 -13.288  -4.865  1.00  0.00     0.175 C 
BRANCH  34  35
ATOM     35  C   UNL     1       1.970 -14.221  -5.749  1.00  0.00     0.070 C 
BRANCH  35  36
ATOM     36  C   UNL     1       2.584 -15.365  -4.974  1.00  0.00    -0.045 A 
ATOM     37  C   UNL     1       3.760 -15.163  -4.237  1.00  0.00     0.007 A 
ATOM     38  C   UNL     1       2.006 -16.641  -4.998  1.00  0.00     0.007 A 
ATOM     39  C   UNL     1       4.341 -16.216  -3.529  1.00  0.00     0.046 A 
ATOM     40  C   UNL     1       2.587 -17.696  -4.291  1.00  0.00     0.046 A 
ATOM     41  C   UNL     1       3.750 -17.473  -3.562  1.00  0.00     0.115 A 
BRANCH  41  42
ATOM     42  O   UNL     1       4.351 -18.476  -2.860  1.00  0.00    -0.508 OA
ATOM     43  H   UNL     1       5.137 -18.764  -3.353  1.00  0.00     0.293 HD
ENDBRANCH  41  42
ENDBRANCH  35  36
ENDBRANCH  34  35
BRANCH  34  44
ATOM     44  C   UNL     1       1.606 -11.820  -4.957  1.00  0.00     0.243 C 
ATOM     45  O   UNL     1       2.549 -11.356  -4.323  1.00  0.00    -0.273 OA
ATOM     46  N   UNL     1       0.786 -11.025  -5.729  1.00  0.00    -0.341 N 
ATOM     47  H   UNL     1      -0.051 -11.430  -6.141  1.00  0.00     0.164 HD
BRANCH  46  48
ATOM     48  C   UNL     1       0.997  -9.587  -5.909  1.00  0.00     0.196 C 
BRANCH  48  49
ATOM     49  C   UNL     1       0.612  -9.138  -7.329  1.00  0.00     0.072 C 
BRANCH  49  50
ATOM     50  C   UNL     1       1.784  -8.573  -8.099  1.00  0.00    -0.045 A 
ATOM     51  C   UNL     1       2.131  -7.222  -7.953  1.00  0.00     0.007 A 
ATOM     52  C   UNL     1       2.524  -9.376  -8.977  1.00  0.00     0.007 A 
ATOM     53  C   UNL     1       3.203  -6.687  -8.668  1.00  0.00     0.046 A 
ATOM     54  C   UNL     1       3.596  -8.839  -9.694  1.00  0.00     0.046 A 
ATOM     55  C   UNL     1       3.927  -7.499  -9.532  1.00  0.00     0.115 A 
BRANCH  55  56
ATOM     56  O   UNL     1       4.966  -6.936 -10.213  1.00  0.00    -0.508 OA
ATOM     57  H   UNL     1       4.628  -6.589 -11.054  1.00  0.00     0.293 HD
ENDBRANCH  55  56
ENDBRANCH  49  50
ENDBRANCH  48  49
BRANCH  48  58
ATOM     58  C   UNL     1       0.148  -8.825  -4.881  1.00  0.00     0.326 C 
ATOM     59  O   UNL     1       0.492  -8.450  -3.772  1.00  0.00    -0.250 OA
BRANCH  58  60
ATOM     60  O   UNL     1      -1.110  -8.555  -5.311  1.00  0.00    -0.480 OA
ATOM     61  H   UNL     1      -0.967  -8.181  -6.208  1.00  0.00     0.296 HD
ENDBRANCH  58  60
ENDBRANCH  48  58
ENDBRANCH  46  48
ENDBRANCH  34  44
ENDBRANCH  32  34
ENDBRANCH  25  30
ENDBRANCH  23  25
ENDBRANCH   2  23
TORSDOF 28
ENDMDL
MODEL 48
REMARK VINA RESULT:    -5.280      4.761     10.407
REMARK INTER + INTRA:         -17.730
REMARK INTER:                 -11.093
REMARK INTRA:                  -6.637
REMARK UNBOUND:                -4.579
REMARK SMILES CCCCCCC[C@H](N)[C@H](O)C(=O)N[C@H](C)C(=O)N(C)[C@H](CC(C)C)C(=O)N[C@@H](Cc1ccc(O)cc1)C(=O)N[C@@H](Cc1ccc(O)cc1)C(=O)O
REMARK SMILES IDX 18 1 17 2 15 3 16 4 14 5 12 6 13 7 10 9 11 10 8 12 9 13 7 16
REMARK SMILES IDX 6 17 5 18 4 19 3 20 2 21 1 22 19 23 20 24 21 25 22 26 23 27
REMARK SMILES IDX 24 28 25 29 26 30 27 31 28 32 29 34 30 35 31 36 32 37 37 38
REMARK SMILES IDX 33 39 36 40 34 41 35 42 38 44 39 45 40 46 41 48 42 49 43 50
REMARK SMILES IDX 44 51 49 52 45 53 48 54 46 55 47 56 50 58 51 59 52 60
REMARK H PARENT 14 8 11 11 9 14 9 15 28 33 35 43 40 47 47 57 52 61
ROOT
ATOM      1  O   UNL     1     -11.654  -0.260  -2.945  1.00  0.00    -0.272 OA
ATOM      2  C   UNL     1     -12.264   0.139  -1.942  1.00  0.00     0.245 C 
ENDROOT
BRANCH   2   3
ATOM      3  C   UNL     1     -13.201  -0.848  -1.203  1.00  0.00     0.168 C 
ATOM      4  C   UNL     1     -13.988  -1.695  -2.196  1.00  0.00     0.041 C 
BRANCH   3   5
ATOM      5  N   UNL     1     -12.551  -1.665  -0.190  1.00  0.00    -0.342 N 
ATOM      6  C   UNL     1     -11.763  -2.746  -0.522  1.00  0.00     0.251 C 
ATOM      7  O   UNL     1     -11.584  -3.124  -1.675  1.00  0.00    -0.272 OA
ATOM      8  H   UNL     1     -12.654  -1.470   0.803  1.00  0.00     0.164 HD
BRANCH   6   9
ATOM      9  C   UNL     1     -11.066  -3.371   0.697  1.00  0.00     0.219 C 
BRANCH   9  10
ATOM     10  O   UNL     1     -10.644  -4.720   0.462  1.00  0.00    -0.382 OA
ATOM     11  H   UNL     1      -9.925  -4.855   1.117  1.00  0.00     0.211 HD
ENDBRANCH   9  10
BRANCH   9  12
ATOM     12  C   UNL     1      -9.891  -2.513   1.233  1.00  0.00     0.089 C 
BRANCH  12  13
ATOM     13  N   UNL     1      -9.263  -1.813   0.089  1.00  0.00    -0.325 NA
ATOM     14  H   UNL     1      -9.178  -2.462  -0.696  1.00  0.00     0.119 HD
ATOM     15  H   UNL     1      -8.301  -1.569   0.337  1.00  0.00     0.119 HD
ENDBRANCH  12  13
BRANCH  12  16
ATOM     16  C   UNL     1     -10.245  -1.498   2.346  1.00  0.00     0.022 C 
BRANCH  16  17
ATOM     17  C   UNL     1     -10.269  -1.970   3.807  1.00  0.00     0.002 C 
BRANCH  17  18
ATOM     18  C   UNL     1     -10.827  -0.955   4.803  1.00  0.00     0.000 C 
BRANCH  18  19
ATOM     19  C   UNL     1     -10.213  -1.054   6.205  1.00  0.00    -0.000 C 
BRANCH  19  20
ATOM     20  C   UNL     1      -9.687  -2.441   6.588  1.00  0.00    -0.000 C 
BRANCH  20  21
ATOM     21  C   UNL     1      -8.162  -2.490   6.712  1.00  0.00    -0.003 C 
ATOM     22  C   UNL     1      -7.574  -3.618   5.879  1.00  0.00     0.004 C 
ENDBRANCH  20  21
ENDBRANCH  19  20
ENDBRANCH  18  19
ENDBRANCH  17  18
ENDBRANCH  16  17
ENDBRANCH  12  16
ENDBRANCH   9  12
ENDBRANCH   6   9
ENDBRANCH   3   5
ENDBRANCH   2   3
BRANCH   2  23
ATOM     23  N   UNL     1     -12.009   1.408  -1.433  1.00  0.00    -0.332 N 
ATOM     24  C   UNL     1     -12.765   2.604  -1.777  1.00  0.00     0.147 C 
BRANCH  23  25
ATOM     25  C   UNL     1     -10.988   1.598  -0.367  1.00  0.00     0.174 C 
BRANCH  25  26
ATOM     26  C   UNL     1     -11.316   2.778   0.579  1.00  0.00     0.038 C 
BRANCH  26  27
ATOM     27  C   UNL     1     -11.594   2.432   2.059  1.00  0.00    -0.015 C 
ATOM     28  C   UNL     1     -12.583   1.277   2.213  1.00  0.00     0.007 C 
ATOM     29  C   UNL     1     -10.328   2.167   2.869  1.00  0.00     0.007 C 
ENDBRANCH  26  27
ENDBRANCH  25  26
BRANCH  25  30
ATOM     30  C   UNL     1      -9.576   1.676  -0.991  1.00  0.00     0.243 C 
ATOM     31  O   UNL     1      -9.396   2.053  -2.148  1.00  0.00    -0.273 OA
ATOM     32  N   UNL     1      -8.543   1.294  -0.173  1.00  0.00    -0.342 N 
ATOM     33  H   UNL     1      -8.757   1.130   0.814  1.00  0.00     0.164 HD
BRANCH  32  34
ATOM     34  C   UNL     1      -7.143   1.277  -0.604  1.00  0.00     0.175 C 
BRANCH  34  35
ATOM     35  C   UNL     1      -6.626   2.698  -0.878  1.00  0.00     0.070 C 
BRANCH  35  36
ATOM     36  C   UNL     1      -5.634   2.750  -2.018  1.00  0.00    -0.045 A 
ATOM     37  C   UNL     1      -4.257   2.764  -1.750  1.00  0.00     0.007 A 
ATOM     38  C   UNL     1      -6.070   2.808  -3.348  1.00  0.00     0.007 A 
ATOM     39  C   UNL     1      -3.334   2.826  -2.795  1.00  0.00     0.046 A 
ATOM     40  C   UNL     1      -5.147   2.871  -4.395  1.00  0.00     0.046 A 
ATOM     41  C   UNL     1      -3.786   2.878  -4.108  1.00  0.00     0.115 A 
BRANCH  41  42
ATOM     42  O   UNL     1      -2.852   2.940  -5.099  1.00  0.00    -0.508 OA
ATOM     43  H   UNL     1      -2.996   3.759  -5.602  1.00  0.00     0.293 HD
ENDBRANCH  41  42
ENDBRANCH  35  36
ENDBRANCH  34  35
BRANCH  34  44
ATOM     44  C   UNL     1      -6.315   0.562   0.487  1.00  0.00     0.243 C 
ATOM     45  O   UNL     1      -5.459   1.108   1.178  1.00  0.00    -0.273 OA
ATOM     46  N   UNL     1      -6.529  -0.799   0.534  1.00  0.00    -0.341 N 
ATOM     47  H   UNL     1      -7.163  -1.223  -0.138  1.00  0.00     0.164 HD
BRANCH  46  48
ATOM     48  C   UNL     1      -5.809  -1.697   1.440  1.00  0.00     0.196 C 
BRANCH  48  49
ATOM     49  C   UNL     1      -6.584  -1.909   2.752  1.00  0.00     0.072 C 
BRANCH  49  50
ATOM     50  C   UNL     1      -6.252  -0.870   3.798  1.00  0.00    -0.045 A 
ATOM     51  C   UNL     1      -7.225   0.060   4.192  1.00  0.00     0.007 A 
ATOM     52  C   UNL     1      -4.975  -0.805   4.370  1.00  0.00     0.007 A 
ATOM     53  C   UNL     1      -6.926   1.032   5.147  1.00  0.00     0.046 A 
ATOM     54  C   UNL     1      -4.676   0.169   5.325  1.00  0.00     0.046 A 
ATOM     55  C   UNL     1      -5.655   1.080   5.707  1.00  0.00     0.115 A 
BRANCH  55  56
ATOM     56  O   UNL     1      -5.403   2.046   6.635  1.00  0.00    -0.508 OA
ATOM     57  H   UNL     1      -5.222   1.614   7.485  1.00  0.00     0.293 HD
ENDBRANCH  55  56
ENDBRANCH  49  50
ENDBRANCH  48  49
BRANCH  48  58
ATOM     58  C   UNL     1      -5.600  -3.048   0.742  1.00  0.00     0.326 C 
ATOM     59  O   UNL     1      -4.550  -3.655   0.606  1.00  0.00    -0.250 OA
BRANCH  58  60
ATOM     60  O   UNL     1      -6.745  -3.587   0.252  1.00  0.00    -0.480 OA
ATOM     61  H   UNL     1      -7.427  -2.922   0.488  1.00  0.00     0.296 HD
ENDBRANCH  58  60
ENDBRANCH  48  58
ENDBRANCH  46  48
ENDBRANCH  34  44
ENDBRANCH  32  34
ENDBRANCH  25  30
ENDBRANCH  23  25
ENDBRANCH   2  23
TORSDOF 28
ENDMDL
MODEL 49
REMARK VINA RESULT:    -5.270     14.695     18.297
REMARK INTER + INTRA:         -17.705
REMARK INTER:                 -11.327
REMARK INTRA:                  -6.378
REMARK UNBOUND:                -4.579
REMARK SMILES CCCCCCC[C@H](N)[C@H](O)C(=O)N[C@H](C)C(=O)N(C)[C@H](CC(C)C)C(=O)N[C@@H](Cc1ccc(O)cc1)C(=O)N[C@@H](Cc1ccc(O)cc1)C(=O)O
REMARK SMILES IDX 18 1 17 2 15 3 16 4 14 5 12 6 13 7 10 9 11 10 8 12 9 13 7 16
REMARK SMILES IDX 6 17 5 18 4 19 3 20 2 21 1 22 19 23 20 24 21 25 22 26 23 27
REMARK SMILES IDX 24 28 25 29 26 30 27 31 28 32 29 34 30 35 31 36 32 37 37 38
REMARK SMILES IDX 33 39 36 40 34 41 35 42 38 44 39 45 40 46 41 48 42 49 43 50
REMARK SMILES IDX 44 51 49 52 45 53 48 54 46 55 47 56 50 58 51 59 52 60
REMARK H PARENT 14 8 11 11 9 14 9 15 28 33 35 43 40 47 47 57 52 61
ROOT
ATOM      1  O   UNL     1      -3.212 -11.330  -5.577  1.00  0.00    -0.272 OA
ATOM      2  C   UNL     1      -3.230 -12.559  -5.413  1.00  0.00     0.245 C 
ENDROOT
BRANCH   2   3
ATOM      3  C   UNL     1      -3.749 -13.453  -6.567  1.00  0.00     0.168 C 
ATOM      4  C   UNL     1      -5.020 -14.187  -6.155  1.00  0.00     0.041 C 
BRANCH   3   5
ATOM      5  N   UNL     1      -3.905 -12.773  -7.844  1.00  0.00    -0.342 N 
ATOM      6  C   UNL     1      -3.231 -13.183  -8.974  1.00  0.00     0.251 C 
ATOM      7  O   UNL     1      -2.428 -14.110  -8.984  1.00  0.00    -0.272 OA
ATOM      8  H   UNL     1      -4.518 -11.968  -7.951  1.00  0.00     0.164 HD
BRANCH   6   9
ATOM      9  C   UNL     1      -3.657 -12.411 -10.233  1.00  0.00     0.219 C 
BRANCH   9  10
ATOM     10  O   UNL     1      -4.690 -11.454  -9.971  1.00  0.00    -0.382 OA
ATOM     11  H   UNL     1      -5.504 -11.895 -10.301  1.00  0.00     0.211 HD
ENDBRANCH   9  10
BRANCH   9  12
ATOM     12  C   UNL     1      -2.466 -11.747 -10.973  1.00  0.00     0.089 C 
BRANCH  12  13
ATOM     13  N   UNL     1      -3.006 -10.889 -12.052  1.00  0.00    -0.325 NA
ATOM     14  H   UNL     1      -3.750 -10.300 -11.672  1.00  0.00     0.119 HD
ATOM     15  H   UNL     1      -3.465 -11.481 -12.748  1.00  0.00     0.119 HD
ENDBRANCH  12  13
BRANCH  12  16
ATOM     16  C   UNL     1      -1.486 -10.938 -10.090  1.00  0.00     0.022 C 
BRANCH  16  17
ATOM     17  C   UNL     1      -0.056 -11.459  -9.892  1.00  0.00     0.002 C 
BRANCH  17  18
ATOM     18  C   UNL     1       0.943 -11.025 -10.963  1.00  0.00     0.000 C 
BRANCH  18  19
ATOM     19  C   UNL     1       2.395 -11.415 -10.657  1.00  0.00    -0.000 C 
BRANCH  19  20
ATOM     20  C   UNL     1       3.007 -10.730  -9.432  1.00  0.00    -0.000 C 
BRANCH  20  21
ATOM     21  C   UNL     1       4.535 -10.827  -9.392  1.00  0.00    -0.003 C 
ATOM     22  C   UNL     1       4.992 -12.216  -8.976  1.00  0.00     0.004 C 
ENDBRANCH  20  21
ENDBRANCH  19  20
ENDBRANCH  18  19
ENDBRANCH  17  18
ENDBRANCH  16  17
ENDBRANCH  12  16
ENDBRANCH   9  12
ENDBRANCH   6   9
ENDBRANCH   3   5
ENDBRANCH   2   3
BRANCH   2  23
ATOM     23  N   UNL     1      -2.680 -13.116  -4.264  1.00  0.00    -0.332 N 
ATOM     24  C   UNL     1      -3.019 -12.714  -2.907  1.00  0.00     0.147 C 
BRANCH  23  25
ATOM     25  C   UNL     1      -1.769 -14.290  -4.360  1.00  0.00     0.174 C 
BRANCH  25  26
ATOM     26  C   UNL     1      -2.284 -15.518  -3.572  1.00  0.00     0.038 C 
BRANCH  26  27
ATOM     27  C   UNL     1      -1.716 -16.897  -3.976  1.00  0.00    -0.015 C 
ATOM     28  C   UNL     1      -0.716 -17.439  -2.955  1.00  0.00     0.007 C 
ATOM     29  C   UNL     1      -2.796 -17.934  -4.273  1.00  0.00     0.007 C 
ENDBRANCH  26  27
ENDBRANCH  25  26
BRANCH  25  30
ATOM     30  C   UNL     1      -0.326 -13.875  -3.991  1.00  0.00     0.243 C 
ATOM     31  O   UNL     1       0.089 -13.923  -2.834  1.00  0.00    -0.273 OA
ATOM     32  N   UNL     1       0.453 -13.447  -5.035  1.00  0.00    -0.342 N 
ATOM     33  H   UNL     1       0.085 -13.569  -5.982  1.00  0.00     0.164 HD
BRANCH  32  34
ATOM     34  C   UNL     1       1.835 -12.990  -4.869  1.00  0.00     0.175 C 
BRANCH  34  35
ATOM     35  C   UNL     1       2.731 -13.493  -6.011  1.00  0.00     0.070 C 
BRANCH  35  36
ATOM     36  C   UNL     1       2.028 -14.483  -6.913  1.00  0.00    -0.045 A 
ATOM     37  C   UNL     1       1.720 -15.767  -6.439  1.00  0.00     0.007 A 
ATOM     38  C   UNL     1       1.698 -14.145  -8.232  1.00  0.00     0.007 A 
ATOM     39  C   UNL     1       1.084 -16.692  -7.268  1.00  0.00     0.046 A 
ATOM     40  C   UNL     1       1.062 -15.071  -9.063  1.00  0.00     0.046 A 
ATOM     41  C   UNL     1       0.760 -16.337  -8.572  1.00  0.00     0.115 A 
BRANCH  41  42
ATOM     42  O   UNL     1       0.142 -17.271  -9.350  1.00  0.00    -0.508 OA
ATOM     43  H   UNL     1      -0.508 -17.741  -8.802  1.00  0.00     0.293 HD
ENDBRANCH  41  42
ENDBRANCH  35  36
ENDBRANCH  34  35
BRANCH  34  44
ATOM     44  C   UNL     1       1.822 -11.447  -4.783  1.00  0.00     0.243 C 
ATOM     45  O   UNL     1       2.454 -10.793  -3.958  1.00  0.00    -0.273 OA
ATOM     46  N   UNL     1       0.922 -10.856  -5.645  1.00  0.00    -0.341 N 
ATOM     47  H   UNL     1       0.336 -11.448  -6.228  1.00  0.00     0.164 HD
BRANCH  46  48
ATOM     48  C   UNL     1       0.684  -9.412  -5.696  1.00  0.00     0.196 C 
BRANCH  48  49
ATOM     49  C   UNL     1      -0.008  -9.005  -7.007  1.00  0.00     0.072 C 
BRANCH  49  50
ATOM     50  C   UNL     1       0.886  -8.179  -7.904  1.00  0.00    -0.045 A 
ATOM     51  C   UNL     1       2.094  -7.667  -7.407  1.00  0.00     0.007 A 
ATOM     52  C   UNL     1       0.518  -7.896  -9.226  1.00  0.00     0.007 A 
ATOM     53  C   UNL     1       2.920  -6.892  -8.221  1.00  0.00     0.046 A 
ATOM     54  C   UNL     1       1.346  -7.120 -10.041  1.00  0.00     0.046 A 
ATOM     55  C   UNL     1       2.541  -6.625  -9.531  1.00  0.00     0.115 A 
BRANCH  55  56
ATOM     56  O   UNL     1       3.376  -5.863 -10.293  1.00  0.00    -0.508 OA
ATOM     57  H   UNL     1       4.259  -6.265 -10.276  1.00  0.00     0.293 HD
ENDBRANCH  55  56
ENDBRANCH  49  50
ENDBRANCH  48  49
BRANCH  48  58
ATOM     58  C   UNL     1      -0.195  -9.009  -4.504  1.00  0.00     0.326 C 
ATOM     59  O   UNL     1       0.163  -8.459  -3.475  1.00  0.00    -0.250 OA
BRANCH  58  60
ATOM     60  O   UNL     1      -1.507  -9.309  -4.672  1.00  0.00    -0.480 OA
ATOM     61  H   UNL     1      -1.965  -8.648  -4.109  1.00  0.00     0.296 HD
ENDBRANCH  58  60
ENDBRANCH  48  58
ENDBRANCH  46  48
ENDBRANCH  34  44
ENDBRANCH  32  34
ENDBRANCH  25  30
ENDBRANCH  23  25
ENDBRANCH   2  23
TORSDOF 28
ENDMDL
