MODEL 1
REMARK VINA RESULT:    -6.944      0.000      0.000
REMARK INTER + INTRA:         -14.813
REMARK INTER:                 -12.425
REMARK INTRA:                  -2.388
REMARK UNBOUND:                -2.388
REMARK SMILES CC[C@H](C)[C@H]1NC(=O)c2coc(n2)[C@H](C(C)C)NC(=O)[C@H]([C@@H](C)O)NC(=O)[C@H](C)NC(=O)c2csc1n2
REMARK SMILES IDX 11 1 13 2 12 3 9 4 10 5 7 6 6 7 8 8 5 10 36 11 35 12 34 13
REMARK SMILES IDX 37 14 33 15 31 16 32 17 30 18 28 20 29 21 3 23 4 24 2 25
REMARK SMILES IDX 1 26 14 27 18 28 19 29 20 30 21 32 25 33 26 34 27 35 22 38
REMARK SMILES IDX 23 39 24 40 15 42 16 43 17 44
REMARK H PARENT 6 9 30 19 18 31 25 36 24 41
REMARK Flexibility Score:   94.900
ROOT
ATOM      1  O   UNL     1      -4.372  -0.493   5.718  1.00  0.00    -0.446 OA
ATOM      2  N   UNL     1      -2.451   0.375   6.515  1.00  0.00    -0.207 NA
ATOM      3  C   UNL     1      -3.158  -0.721   6.307  1.00  0.00     0.217 A 
ATOM      4  C   UNL     1      -3.242   1.390   6.004  1.00  0.00     0.167 A 
ATOM      5  C   UNL     1      -4.410   0.854   5.520  1.00  0.00     0.231 A 
ENDROOT
BRANCH   4   6
ATOM      6  C   UNL     1      -2.855   2.790   6.035  1.00  0.00     0.273 C 
ATOM      7  N   UNL     1      -1.655   2.973   6.675  1.00  0.00    -0.341 N 
ATOM      8  O   UNL     1      -3.537   3.692   5.565  1.00  0.00    -0.267 OA
ATOM      9  H   UNL     1      -1.248   2.142   7.095  1.00  0.00     0.164 HD
BRANCH   7  10
ATOM     10  C   UNL     1      -1.157   4.277   7.065  1.00  0.00     0.145 C 
BRANCH  10  11
ATOM     11  C   UNL     1      -1.124   4.322   8.586  1.00  0.00     0.116 A 
ATOM     12  S   UNL     1      -0.315   5.617   9.385  1.00  0.00    -0.124 S 
ATOM     13  C   UNL     1      -0.768   4.958  10.895  1.00  0.00     0.101 A 
ATOM     14  N   UNL     1      -1.693   3.433   9.383  1.00  0.00    -0.234 NA
ATOM     15  C   UNL     1      -1.506   3.803  10.717  1.00  0.00     0.139 A 
BRANCH  15  16
ATOM     16  C   UNL     1      -2.064   3.017  11.819  1.00  0.00     0.271 C 
ATOM     17  O   UNL     1      -2.201   3.465  12.953  1.00  0.00    -0.267 OA
ATOM     18  N   UNL     1      -2.419   1.735  11.457  1.00  0.00    -0.339 N 
ATOM     19  H   UNL     1      -2.154   1.449  10.518  1.00  0.00     0.164 HD
BRANCH  18  20
ATOM     20  C   UNL     1      -2.930   0.787  12.438  1.00  0.00     0.168 CG0
ATOM     21  C   UNL     1      -4.459   0.779  12.461  1.00  0.00     0.041 C 
ATOM     22  G   UNL     1      -2.456  -0.651  12.177  1.00  0.00     0.000 G0
ENDBRANCH  18  20
ENDBRANCH  15  16
ENDBRANCH  10  11
BRANCH  10  23
ATOM     23  C   UNL     1       0.227   4.588   6.434  1.00  0.00     0.015 C 
ATOM     24  C   UNL     1       0.916   3.350   5.837  1.00  0.00     0.010 C 
BRANCH  23  25
ATOM     25  C   UNL     1       0.156   5.686   5.348  1.00  0.00     0.002 C 
ATOM     26  C   UNL     1      -0.983   6.677   5.545  1.00  0.00     0.004 C 
ENDBRANCH  23  25
ENDBRANCH  10  23
ENDBRANCH   7  10
ENDBRANCH   4   6
BRANCH   3  27
ATOM     27  C   UNL     1      -2.785  -2.126   6.694  1.00  0.00     0.171 C 
BRANCH  27  28
ATOM     28  N   UNL     1      -2.940  -2.248   8.139  1.00  0.00    -0.342 N 
ATOM     29  C   UNL     1      -1.881  -2.484   8.987  1.00  0.00     0.245 C 
ATOM     30  O   UNL     1      -0.723  -2.594   8.590  1.00  0.00    -0.273 OA
ATOM     31  H   UNL     1      -3.852  -2.055   8.552  1.00  0.00     0.164 HD
BRANCH  29  32
ATOM     32  C   UNL     1      -2.222  -2.452  10.492  1.00  0.00     0.200 C 
BRANCH  32  33
ATOM     33  N   UNL     1      -2.524  -1.065  10.867  1.00  0.00    -0.340 N 
ATOM     34  C   UNL     1      -2.460  -0.648  12.181  1.00  0.00     0.243 CG0
ATOM     35  O   UNL     1      -2.213  -1.428  13.098  1.00  0.00    -0.273 OA
ATOM     36  H   UNL     1      -2.762  -0.406  10.135  1.00  0.00     0.164 HD
ATOM     37  G   UNL     1      -2.934   0.789  12.447  1.00  0.00     0.000 G0
ENDBRANCH  32  33
BRANCH  32  38
ATOM     38  C   UNL     1      -3.368  -3.432  10.834  1.00  0.00     0.143 C 
ATOM     39  C   UNL     1      -4.761  -2.825  10.719  1.00  0.00     0.041 C 
BRANCH  38  40
ATOM     40  O   UNL     1      -3.293  -4.593   9.984  1.00  0.00    -0.391 OA
ATOM     41  H   UNL     1      -2.345  -4.791   9.864  1.00  0.00     0.211 HD
ENDBRANCH  38  40
ENDBRANCH  32  38
ENDBRANCH  29  32
ENDBRANCH  27  28
BRANCH  27  42
ATOM     42  C   UNL     1      -3.492  -3.283   5.946  1.00  0.00     0.015 C 
ATOM     43  C   UNL     1      -2.596  -4.464   5.555  1.00  0.00     0.010 C 
ATOM     44  C   UNL     1      -4.729  -3.782   6.701  1.00  0.00     0.010 C 
ENDBRANCH  27  42
ENDBRANCH   3  27
TORSDOF 5
ENDMDL
MODEL 2
REMARK VINA RESULT:    -6.684      3.929      6.733
REMARK INTER + INTRA:         -14.347
REMARK INTER:                 -12.295
REMARK INTRA:                  -2.052
REMARK UNBOUND:                -2.388
REMARK SMILES CC[C@H](C)[C@H]1NC(=O)c2coc(n2)[C@H](C(C)C)NC(=O)[C@H]([C@@H](C)O)NC(=O)[C@H](C)NC(=O)c2csc1n2
REMARK SMILES IDX 11 1 13 2 12 3 9 4 10 5 7 6 6 7 8 8 5 10 36 11 35 12 34 13
REMARK SMILES IDX 37 14 33 15 31 16 32 17 30 18 28 20 29 21 3 23 4 24 2 25
REMARK SMILES IDX 1 26 14 27 18 28 19 29 20 30 21 32 25 33 26 34 27 35 22 38
REMARK SMILES IDX 23 39 24 40 15 42 16 43 17 44
REMARK H PARENT 6 9 30 19 18 31 25 36 24 41
REMARK Flexibility Score:   94.900
ROOT
ATOM      1  O   UNL     1      -7.397  -0.682   6.438  1.00  0.00    -0.446 OA
ATOM      2  N   UNL     1      -6.775  -2.034   8.131  1.00  0.00    -0.207 NA
ATOM      3  C   UNL     1      -6.482  -1.576   6.927  1.00  0.00     0.217 A 
ATOM      4  C   UNL     1      -7.947  -1.379   8.467  1.00  0.00     0.167 A 
ATOM      5  C   UNL     1      -8.320  -0.556   7.432  1.00  0.00     0.231 A 
ENDROOT
BRANCH   4   6
ATOM      6  C   UNL     1      -8.645  -1.595   9.722  1.00  0.00     0.273 C 
ATOM      7  N   UNL     1      -8.811  -0.426  10.421  1.00  0.00    -0.341 N 
ATOM      8  O   UNL     1      -9.014  -2.696  10.112  1.00  0.00    -0.267 OA
ATOM      9  H   UNL     1      -8.371   0.396  10.016  1.00  0.00     0.164 HD
BRANCH   7  10
ATOM     10  C   UNL     1      -9.248  -0.384  11.802  1.00  0.00     0.145 C 
BRANCH  10  11
ATOM     11  C   UNL     1      -8.005  -0.323  12.677  1.00  0.00     0.116 A 
ATOM     12  S   UNL     1      -8.123   0.272  14.290  1.00  0.00    -0.124 S 
ATOM     13  C   UNL     1      -6.455  -0.026  14.515  1.00  0.00     0.101 A 
ATOM     14  N   UNL     1      -6.797  -0.713  12.306  1.00  0.00    -0.234 NA
ATOM     15  C   UNL     1      -5.901  -0.560  13.367  1.00  0.00     0.139 A 
BRANCH  15  16
ATOM     16  C   UNL     1      -4.494  -0.950  13.249  1.00  0.00     0.271 C 
ATOM     17  O   UNL     1      -3.755  -1.074  14.220  1.00  0.00    -0.267 OA
ATOM     18  N   UNL     1      -4.088  -1.162  11.949  1.00  0.00    -0.339 N 
ATOM     19  H   UNL     1      -4.762  -0.918  11.228  1.00  0.00     0.164 HD
BRANCH  18  20
ATOM     20  C   UNL     1      -2.705  -1.490  11.634  1.00  0.00     0.168 CG0
ATOM     21  C   UNL     1      -2.524  -2.995  11.423  1.00  0.00     0.041 C 
ATOM     22  G   UNL     1      -2.196  -0.774  10.372  1.00  0.00     0.000 G0
ENDBRANCH  18  20
ENDBRANCH  15  16
ENDBRANCH  10  11
BRANCH  10  23
ATOM     23  C   UNL     1     -10.221   0.794  12.074  1.00  0.00     0.015 C 
ATOM     24  C   UNL     1      -9.746   2.127  11.473  1.00  0.00     0.010 C 
BRANCH  23  25
ATOM     25  C   UNL     1     -11.657   0.511  11.576  1.00  0.00     0.002 C 
ATOM     26  C   UNL     1     -12.015   1.228  10.282  1.00  0.00     0.004 C 
ENDBRANCH  23  25
ENDBRANCH  10  23
ENDBRANCH   7  10
ENDBRANCH   4   6
BRANCH   3  27
ATOM     27  C   UNL     1      -5.315  -1.972   6.065  1.00  0.00     0.171 C 
BRANCH  27  28
ATOM     28  N   UNL     1      -4.103  -1.847   6.869  1.00  0.00    -0.342 N 
ATOM     29  C   UNL     1      -3.346  -0.697   6.904  1.00  0.00     0.245 C 
ATOM     30  O   UNL     1      -3.643   0.315   6.272  1.00  0.00    -0.273 OA
ATOM     31  H   UNL     1      -3.858  -2.603   7.506  1.00  0.00     0.164 HD
BRANCH  29  32
ATOM     32  C   UNL     1      -2.175  -0.709   7.909  1.00  0.00     0.200 C 
BRANCH  32  33
ATOM     33  N   UNL     1      -2.666  -1.252   9.182  1.00  0.00    -0.340 N 
ATOM     34  C   UNL     1      -2.225  -0.755  10.390  1.00  0.00     0.243 CG0
ATOM     35  O   UNL     1      -1.358   0.115  10.458  1.00  0.00    -0.273 OA
ATOM     36  H   UNL     1      -3.358  -1.992   9.159  1.00  0.00     0.164 HD
ATOM     37  G   UNL     1      -2.715  -1.505  11.639  1.00  0.00     0.000 G0
ENDBRANCH  32  33
BRANCH  32  38
ATOM     38  C   UNL     1      -0.959  -1.486   7.352  1.00  0.00     0.143 C 
ATOM     39  C   UNL     1      -0.261  -0.795   6.186  1.00  0.00     0.041 C 
BRANCH  38  40
ATOM     40  O   UNL     1       0.001  -1.717   8.401  1.00  0.00    -0.391 OA
ATOM     41  H   UNL     1       0.093  -2.684   8.488  1.00  0.00     0.211 HD
ENDBRANCH  38  40
ENDBRANCH  32  38
ENDBRANCH  29  32
ENDBRANCH  27  28
BRANCH  27  42
ATOM     42  C   UNL     1      -5.387  -3.346   5.355  1.00  0.00     0.015 C 
ATOM     43  C   UNL     1      -5.736  -3.302   3.863  1.00  0.00     0.010 C 
ATOM     44  C   UNL     1      -4.117  -4.174   5.579  1.00  0.00     0.010 C 
ENDBRANCH  27  42
ENDBRANCH   3  27
TORSDOF 5
ENDMDL
MODEL 3
REMARK VINA RESULT:    -6.260      1.453      1.850
REMARK INTER + INTRA:         -13.589
REMARK INTER:                 -11.612
REMARK INTRA:                  -1.977
REMARK UNBOUND:                -2.388
REMARK SMILES CC[C@H](C)[C@H]1NC(=O)c2coc(n2)[C@H](C(C)C)NC(=O)[C@H]([C@@H](C)O)NC(=O)[C@H](C)NC(=O)c2csc1n2
REMARK SMILES IDX 11 1 13 2 12 3 9 4 10 5 7 6 6 7 8 8 5 10 36 11 35 12 34 13
REMARK SMILES IDX 37 14 33 15 31 16 32 17 30 18 28 20 29 21 3 23 4 24 2 25
REMARK SMILES IDX 1 26 14 27 18 28 19 29 20 30 21 32 25 33 26 34 27 35 22 38
REMARK SMILES IDX 23 39 24 40 15 42 16 43 17 44
REMARK H PARENT 6 9 30 19 18 31 25 36 24 41
REMARK Flexibility Score:   94.900
ROOT
ATOM      1  O   UNL     1      -0.592  -1.935   6.545  1.00  0.00    -0.446 OA
ATOM      2  N   UNL     1      -2.560  -0.906   6.931  1.00  0.00    -0.207 NA
ATOM      3  C   UNL     1      -1.885  -2.040   6.984  1.00  0.00     0.217 A 
ATOM      4  C   UNL     1      -1.643   0.012   6.450  1.00  0.00     0.167 A 
ATOM      5  C   UNL     1      -0.446  -0.621   6.218  1.00  0.00     0.231 A 
ENDROOT
BRANCH   4   6
ATOM      6  C   UNL     1      -1.966   1.409   6.216  1.00  0.00     0.273 C 
ATOM      7  N   UNL     1      -1.145   2.248   6.927  1.00  0.00    -0.341 N 
ATOM      8  O   UNL     1      -2.880   1.781   5.491  1.00  0.00    -0.267 OA
ATOM      9  H   UNL     1      -0.492   1.794   7.559  1.00  0.00     0.164 HD
BRANCH   7  10
ATOM     10  C   UNL     1      -1.399   3.667   7.074  1.00  0.00     0.145 C 
BRANCH  10  11
ATOM     11  C   UNL     1      -2.111   3.872   8.404  1.00  0.00     0.116 A 
ATOM     12  S   UNL     1      -3.245   5.157   8.577  1.00  0.00    -0.124 S 
ATOM     13  C   UNL     1      -3.547   4.664  10.186  1.00  0.00     0.101 A 
ATOM     14  N   UNL     1      -1.943   3.117   9.477  1.00  0.00    -0.234 NA
ATOM     15  C   UNL     1      -2.782   3.559  10.504  1.00  0.00     0.139 A 
BRANCH  15  16
ATOM     16  C   UNL     1      -2.833   2.881  11.801  1.00  0.00     0.271 C 
ATOM     17  O   UNL     1      -2.398   3.384  12.831  1.00  0.00    -0.267 OA
ATOM     18  N   UNL     1      -3.416   1.632  11.748  1.00  0.00    -0.339 N 
ATOM     19  H   UNL     1      -3.634   1.283  10.818  1.00  0.00     0.164 HD
BRANCH  18  20
ATOM     20  C   UNL     1      -3.492   0.784  12.929  1.00  0.00     0.168 CG0
ATOM     21  C   UNL     1      -4.787   1.028  13.707  1.00  0.00     0.041 C 
ATOM     22  G   UNL     1      -3.422  -0.714  12.591  1.00  0.00     0.000 G0
ENDBRANCH  18  20
ENDBRANCH  15  16
ENDBRANCH  10  11
BRANCH  10  23
ATOM     23  C   UNL     1      -0.101   4.510   6.962  1.00  0.00     0.015 C 
ATOM     24  C   UNL     1       0.876   3.984   5.898  1.00  0.00     0.010 C 
BRANCH  23  25
ATOM     25  C   UNL     1      -0.380   6.004   6.682  1.00  0.00     0.002 C 
ATOM     26  C   UNL     1      -0.152   6.415   5.234  1.00  0.00     0.004 C 
ENDBRANCH  23  25
ENDBRANCH  10  23
ENDBRANCH   7  10
ENDBRANCH   4   6
BRANCH   3  27
ATOM     27  C   UNL     1      -2.404  -3.385   7.413  1.00  0.00     0.171 C 
BRANCH  27  28
ATOM     28  N   UNL     1      -3.242  -3.186   8.591  1.00  0.00    -0.342 N 
ATOM     29  C   UNL     1      -2.743  -2.746   9.797  1.00  0.00     0.245 C 
ATOM     30  O   UNL     1      -1.555  -2.474   9.966  1.00  0.00    -0.273 OA
ATOM     31  H   UNL     1      -4.252  -3.280   8.495  1.00  0.00     0.164 HD
BRANCH  29  32
ATOM     32  C   UNL     1      -3.800  -2.472  10.887  1.00  0.00     0.200 C 
BRANCH  32  33
ATOM     33  N   UNL     1      -3.689  -1.065  11.292  1.00  0.00    -0.340 N 
ATOM     34  C   UNL     1      -3.433  -0.715  12.602  1.00  0.00     0.243 CG0
ATOM     35  O   UNL     1      -3.350  -1.557  13.495  1.00  0.00    -0.273 OA
ATOM     36  H   UNL     1      -3.783  -0.347  10.584  1.00  0.00     0.164 HD
ATOM     37  G   UNL     1      -3.479   0.790  12.912  1.00  0.00     0.000 G0
ENDBRANCH  32  33
BRANCH  32  38
ATOM     38  C   UNL     1      -5.220  -2.851  10.406  1.00  0.00     0.143 C 
ATOM     39  C   UNL     1      -6.242  -2.985  11.529  1.00  0.00     0.041 C 
BRANCH  38  40
ATOM     40  O   UNL     1      -5.695  -1.877   9.456  1.00  0.00    -0.391 OA
ATOM     41  H   UNL     1      -6.435  -1.407   9.885  1.00  0.00     0.211 HD
ENDBRANCH  38  40
ENDBRANCH  32  38
ENDBRANCH  29  32
ENDBRANCH  27  28
BRANCH  27  42
ATOM     42  C   UNL     1      -3.121  -4.247   6.344  1.00  0.00     0.015 C 
ATOM     43  C   UNL     1      -4.472  -3.709   5.858  1.00  0.00     0.010 C 
ATOM     44  C   UNL     1      -2.210  -4.553   5.150  1.00  0.00     0.010 C 
ENDBRANCH  27  42
ENDBRANCH   3  27
TORSDOF 5
ENDMDL
MODEL 4
REMARK VINA RESULT:    -6.136      2.518      6.855
REMARK INTER + INTRA:         -13.368
REMARK INTER:                 -11.162
REMARK INTRA:                  -2.205
REMARK UNBOUND:                -2.388
REMARK SMILES CC[C@H](C)[C@H]1NC(=O)c2coc(n2)[C@H](C(C)C)NC(=O)[C@H]([C@@H](C)O)NC(=O)[C@H](C)NC(=O)c2csc1n2
REMARK SMILES IDX 11 1 13 2 12 3 9 4 10 5 7 6 6 7 8 8 5 10 36 11 35 12 34 13
REMARK SMILES IDX 37 14 33 15 31 16 32 17 30 18 28 20 29 21 3 23 4 24 2 25
REMARK SMILES IDX 1 26 14 27 18 28 19 29 20 30 21 32 25 33 26 34 27 35 22 38
REMARK SMILES IDX 23 39 24 40 15 42 16 43 17 44
REMARK H PARENT 6 9 30 19 18 31 25 36 24 41
REMARK Flexibility Score:   94.900
ROOT
ATOM      1  O   UNL     1      -2.349   2.330   5.501  1.00  0.00    -0.446 OA
ATOM      2  N   UNL     1      -1.272   1.640   7.357  1.00  0.00    -0.207 NA
ATOM      3  C   UNL     1      -1.783   2.667   6.701  1.00  0.00     0.217 A 
ATOM      4  C   UNL     1      -1.542   0.552   6.546  1.00  0.00     0.167 A 
ATOM      5  C   UNL     1      -2.199   0.978   5.418  1.00  0.00     0.231 A 
ENDROOT
BRANCH   4   6
ATOM      6  C   UNL     1      -1.138  -0.804   6.876  1.00  0.00     0.273 C 
ATOM      7  N   UNL     1      -2.189  -1.683   6.798  1.00  0.00    -0.341 N 
ATOM      8  O   UNL     1       0.001  -1.110   7.209  1.00  0.00    -0.267 OA
ATOM      9  H   UNL     1      -3.095  -1.269   6.600  1.00  0.00     0.164 HD
BRANCH   7  10
ATOM     10  C   UNL     1      -2.128  -3.038   7.309  1.00  0.00     0.145 C 
BRANCH  10  11
ATOM     11  C   UNL     1      -2.314  -2.969   8.818  1.00  0.00     0.116 A 
ATOM     12  S   UNL     1      -1.729  -4.251   9.810  1.00  0.00    -0.124 S 
ATOM     13  C   UNL     1      -2.269  -3.413  11.199  1.00  0.00     0.101 A 
ATOM     14  N   UNL     1      -2.894  -1.972   9.466  1.00  0.00    -0.234 NA
ATOM     15  C   UNL     1      -2.856  -2.214  10.841  1.00  0.00     0.139 A 
BRANCH  15  16
ATOM     16  C   UNL     1      -3.395  -1.254  11.807  1.00  0.00     0.271 C 
ATOM     17  O   UNL     1      -3.807  -1.584  12.913  1.00  0.00    -0.267 OA
ATOM     18  N   UNL     1      -3.390   0.048  11.350  1.00  0.00    -0.339 N 
ATOM     19  H   UNL     1      -3.127   0.176  10.377  1.00  0.00     0.164 HD
BRANCH  18  20
ATOM     20  C   UNL     1      -3.951   1.129  12.149  1.00  0.00     0.168 CG0
ATOM     21  C   UNL     1      -2.864   1.852  12.948  1.00  0.00     0.041 C 
ATOM     22  G   UNL     1      -4.684   2.178  11.297  1.00  0.00     0.000 G0
ENDBRANCH  18  20
ENDBRANCH  15  16
ENDBRANCH  10  11
BRANCH  10  23
ATOM     23  C   UNL     1      -3.165  -3.969   6.626  1.00  0.00     0.015 C 
ATOM     24  C   UNL     1      -4.503  -3.273   6.326  1.00  0.00     0.010 C 
BRANCH  23  25
ATOM     25  C   UNL     1      -2.632  -4.601   5.321  1.00  0.00     0.002 C 
ATOM     26  C   UNL     1      -3.725  -5.076   4.373  1.00  0.00     0.004 C 
ENDBRANCH  23  25
ENDBRANCH  10  23
ENDBRANCH   7  10
ENDBRANCH   4   6
BRANCH   3  27
ATOM     27  C   UNL     1      -1.752   4.113   7.114  1.00  0.00     0.171 C 
BRANCH  27  28
ATOM     28  N   UNL     1      -2.489   4.236   8.367  1.00  0.00    -0.342 N 
ATOM     29  C   UNL     1      -3.863   4.181   8.434  1.00  0.00     0.245 C 
ATOM     30  O   UNL     1      -4.571   4.009   7.443  1.00  0.00    -0.273 OA
ATOM     31  H   UNL     1      -1.967   4.266   9.242  1.00  0.00     0.164 HD
BRANCH  29  32
ATOM     32  C   UNL     1      -4.456   4.200   9.859  1.00  0.00     0.200 C 
BRANCH  32  33
ATOM     33  N   UNL     1      -3.883   3.077  10.611  1.00  0.00    -0.340 N 
ATOM     34  C   UNL     1      -4.687   2.186  11.291  1.00  0.00     0.243 CG0
ATOM     35  O   UNL     1      -5.907   2.327  11.351  1.00  0.00    -0.273 OA
ATOM     36  H   UNL     1      -2.877   2.952  10.605  1.00  0.00     0.164 HD
ATOM     37  G   UNL     1      -3.951   1.143  12.147  1.00  0.00     0.000 G0
ENDBRANCH  32  33
BRANCH  32  38
ATOM     38  C   UNL     1      -4.228   5.566  10.548  1.00  0.00     0.143 C 
ATOM     39  C   UNL     1      -2.989   5.617  11.434  1.00  0.00     0.041 C 
BRANCH  38  40
ATOM     40  O   UNL     1      -4.138   6.608   9.557  1.00  0.00    -0.391 OA
ATOM     41  H   UNL     1      -3.504   6.298   8.882  1.00  0.00     0.211 HD
ENDBRANCH  38  40
ENDBRANCH  32  38
ENDBRANCH  29  32
ENDBRANCH  27  28
BRANCH  27  42
ATOM     42  C   UNL     1      -0.367   4.800   7.199  1.00  0.00     0.015 C 
ATOM     43  C   UNL     1       0.513   4.671   5.950  1.00  0.00     0.010 C 
ATOM     44  C   UNL     1      -0.481   6.270   7.618  1.00  0.00     0.010 C 
ENDBRANCH  27  42
ENDBRANCH   3  27
TORSDOF 5
ENDMDL
MODEL 5
REMARK VINA RESULT:    -6.049      3.702      6.235
REMARK INTER + INTRA:         -13.212
REMARK INTER:                 -11.031
REMARK INTRA:                  -2.181
REMARK UNBOUND:                -2.388
REMARK SMILES CC[C@H](C)[C@H]1NC(=O)c2coc(n2)[C@H](C(C)C)NC(=O)[C@H]([C@@H](C)O)NC(=O)[C@H](C)NC(=O)c2csc1n2
REMARK SMILES IDX 11 1 13 2 12 3 9 4 10 5 7 6 6 7 8 8 5 10 36 11 35 12 34 13
REMARK SMILES IDX 37 14 33 15 31 16 32 17 30 18 28 20 29 21 3 23 4 24 2 25
REMARK SMILES IDX 1 26 14 27 18 28 19 29 20 30 21 32 25 33 26 34 27 35 22 38
REMARK SMILES IDX 23 39 24 40 15 42 16 43 17 44
REMARK H PARENT 6 9 30 19 18 31 25 36 24 41
REMARK Flexibility Score:   94.900
ROOT
ATOM      1  O   UNL     1      -8.874   0.171   8.195  1.00  0.00    -0.446 OA
ATOM      2  N   UNL     1      -7.209  -1.337   8.384  1.00  0.00    -0.207 NA
ATOM      3  C   UNL     1      -8.335  -0.873   8.898  1.00  0.00     0.217 A 
ATOM      4  C   UNL     1      -7.009  -0.564   7.254  1.00  0.00     0.167 A 
ATOM      5  C   UNL     1      -8.027   0.351   7.144  1.00  0.00     0.231 A 
ENDROOT
BRANCH   4   6
ATOM      6  C   UNL     1      -5.863  -0.724   6.376  1.00  0.00     0.273 C 
ATOM      7  N   UNL     1      -5.084  -1.792   6.744  1.00  0.00    -0.341 N 
ATOM      8  O   UNL     1      -5.616   0.026   5.439  1.00  0.00    -0.267 OA
ATOM      9  H   UNL     1      -5.363  -2.267   7.598  1.00  0.00     0.164 HD
BRANCH   7  10
ATOM     10  C   UNL     1      -3.761  -2.032   6.203  1.00  0.00     0.145 C 
BRANCH  10  11
ATOM     11  C   UNL     1      -2.749  -1.489   7.202  1.00  0.00     0.116 A 
ATOM     12  S   UNL     1      -1.097  -1.321   6.740  1.00  0.00    -0.124 S 
ATOM     13  C   UNL     1      -0.740  -0.677   8.283  1.00  0.00     0.101 A 
ATOM     14  N   UNL     1      -3.033  -1.105   8.436  1.00  0.00    -0.234 NA
ATOM     15  C   UNL     1      -1.881  -0.620   9.059  1.00  0.00     0.139 A 
BRANCH  15  16
ATOM     16  C   UNL     1      -1.909  -0.090  10.424  1.00  0.00     0.271 C 
ATOM     17  O   UNL     1      -0.896   0.244  11.029  1.00  0.00    -0.267 OA
ATOM     18  N   UNL     1      -3.179  -0.004  10.955  1.00  0.00    -0.339 N 
ATOM     19  H   UNL     1      -3.923  -0.415  10.397  1.00  0.00     0.164 HD
BRANCH  18  20
ATOM     20  C   UNL     1      -3.395   0.437  12.326  1.00  0.00     0.168 CG0
ATOM     21  C   UNL     1      -3.896   1.882  12.374  1.00  0.00     0.041 C 
ATOM     22  G   UNL     1      -4.411  -0.438  13.079  1.00  0.00     0.000 G0
ENDBRANCH  18  20
ENDBRANCH  15  16
ENDBRANCH  10  11
BRANCH  10  23
ATOM     23  C   UNL     1      -3.523  -3.530   5.876  1.00  0.00     0.015 C 
ATOM     24  C   UNL     1      -3.172  -4.374   7.112  1.00  0.00     0.010 C 
BRANCH  23  25
ATOM     25  C   UNL     1      -4.725  -4.182   5.155  1.00  0.00     0.002 C 
ATOM     26  C   UNL     1      -4.831  -3.823   3.680  1.00  0.00     0.004 C 
ENDBRANCH  23  25
ENDBRANCH  10  23
ENDBRANCH   7  10
ENDBRANCH   4   6
BRANCH   3  27
ATOM     27  C   UNL     1      -9.013  -1.334  10.159  1.00  0.00     0.171 C 
BRANCH  27  28
ATOM     28  N   UNL     1      -8.227  -0.854  11.291  1.00  0.00    -0.342 N 
ATOM     29  C   UNL     1      -7.724  -1.693  12.260  1.00  0.00     0.245 C 
ATOM     30  O   UNL     1      -7.887  -2.912  12.235  1.00  0.00    -0.273 OA
ATOM     31  H   UNL     1      -7.954   0.128  11.317  1.00  0.00     0.164 HD
BRANCH  29  32
ATOM     32  C   UNL     1      -6.809  -1.020  13.305  1.00  0.00     0.200 C 
BRANCH  32  33
ATOM     33  N   UNL     1      -5.708  -0.357  12.595  1.00  0.00    -0.340 N 
ATOM     34  C   UNL     1      -4.412  -0.426  13.061  1.00  0.00     0.243 CG0
ATOM     35  O   UNL     1      -4.130  -0.986  14.119  1.00  0.00    -0.273 OA
ATOM     36  H   UNL     1      -5.914   0.139  11.736  1.00  0.00     0.164 HD
ATOM     37  G   UNL     1      -3.383   0.426  12.299  1.00  0.00     0.000 G0
ENDBRANCH  32  33
BRANCH  32  38
ATOM     38  C   UNL     1      -7.605  -0.057  14.216  1.00  0.00     0.143 C 
ATOM     39  C   UNL     1      -7.435   1.417  13.864  1.00  0.00     0.041 C 
BRANCH  38  40
ATOM     40  O   UNL     1      -9.007  -0.387  14.176  1.00  0.00    -0.391 OA
ATOM     41  H   UNL     1      -9.238  -0.514  13.237  1.00  0.00     0.211 HD
ENDBRANCH  38  40
ENDBRANCH  32  38
ENDBRANCH  29  32
ENDBRANCH  27  28
BRANCH  27  42
ATOM     42  C   UNL     1     -10.515  -0.995  10.325  1.00  0.00     0.015 C 
ATOM     43  C   UNL     1     -10.837   0.486  10.557  1.00  0.00     0.010 C 
ATOM     44  C   UNL     1     -11.358  -1.547   9.171  1.00  0.00     0.010 C 
ENDBRANCH  27  42
ENDBRANCH   3  27
TORSDOF 5
ENDMDL
MODEL 6
REMARK VINA RESULT:    -5.957      2.809      3.635
REMARK INTER + INTRA:         -13.046
REMARK INTER:                 -10.804
REMARK INTRA:                  -2.242
REMARK UNBOUND:                -2.388
REMARK SMILES CC[C@H](C)[C@H]1NC(=O)c2coc(n2)[C@H](C(C)C)NC(=O)[C@H]([C@@H](C)O)NC(=O)[C@H](C)NC(=O)c2csc1n2
REMARK SMILES IDX 11 1 13 2 12 3 9 4 10 5 7 6 6 7 8 8 5 10 36 11 35 12 34 13
REMARK SMILES IDX 37 14 33 15 31 16 32 17 30 18 28 20 29 21 3 23 4 24 2 25
REMARK SMILES IDX 1 26 14 27 18 28 19 29 20 30 21 32 25 33 26 34 27 35 22 38
REMARK SMILES IDX 23 39 24 40 15 42 16 43 17 44
REMARK H PARENT 6 9 30 19 18 31 25 36 24 41
REMARK Flexibility Score:   94.900
ROOT
ATOM      1  O   UNL     1      -1.077  -1.661   9.312  1.00  0.00    -0.446 OA
ATOM      2  N   UNL     1      -2.753  -0.637   8.206  1.00  0.00    -0.207 NA
ATOM      3  C   UNL     1      -2.396  -1.673   8.944  1.00  0.00     0.217 A 
ATOM      4  C   UNL     1      -1.598   0.120   8.103  1.00  0.00     0.167 A 
ATOM      5  C   UNL     1      -0.582  -0.509   8.779  1.00  0.00     0.231 A 
ENDROOT
BRANCH   4   6
ATOM      6  C   UNL     1      -1.528   1.362   7.354  1.00  0.00     0.273 C 
ATOM      7  N   UNL     1      -1.176   2.420   8.153  1.00  0.00    -0.341 N 
ATOM      8  O   UNL     1      -1.780   1.447   6.158  1.00  0.00    -0.267 OA
ATOM      9  H   UNL     1      -1.089   2.214   9.144  1.00  0.00     0.164 HD
BRANCH   7  10
ATOM     10  C   UNL     1      -1.272   3.802   7.725  1.00  0.00     0.145 C 
BRANCH  10  11
ATOM     11  C   UNL     1      -2.661   4.303   8.094  1.00  0.00     0.116 A 
ATOM     12  S   UNL     1      -3.199   5.834   7.515  1.00  0.00    -0.124 S 
ATOM     13  C   UNL     1      -4.703   5.591   8.290  1.00  0.00     0.101 A 
ATOM     14  N   UNL     1      -3.533   3.641   8.836  1.00  0.00    -0.234 NA
ATOM     15  C   UNL     1      -4.720   4.371   8.939  1.00  0.00     0.139 A 
BRANCH  15  16
ATOM     16  C   UNL     1      -5.878   3.859   9.675  1.00  0.00     0.271 C 
ATOM     17  O   UNL     1      -6.800   4.576  10.047  1.00  0.00    -0.267 OA
ATOM     18  N   UNL     1      -5.828   2.500   9.903  1.00  0.00    -0.339 N 
ATOM     19  H   UNL     1      -4.960   2.037   9.643  1.00  0.00     0.164 HD
BRANCH  18  20
ATOM     20  C   UNL     1      -6.860   1.826  10.679  1.00  0.00     0.168 CG0
ATOM     21  C   UNL     1      -7.829   1.064   9.772  1.00  0.00     0.041 C 
ATOM     22  G   UNL     1      -6.284   0.828  11.696  1.00  0.00     0.000 G0
ENDBRANCH  18  20
ENDBRANCH  15  16
ENDBRANCH  10  11
BRANCH  10  23
ATOM     23  C   UNL     1      -0.146   4.682   8.328  1.00  0.00     0.015 C 
ATOM     24  C   UNL     1       0.132   5.957   7.515  1.00  0.00     0.010 C 
BRANCH  23  25
ATOM     25  C   UNL     1      -0.420   5.081   9.796  1.00  0.00     0.002 C 
ATOM     26  C   UNL     1      -0.291   6.573  10.066  1.00  0.00     0.004 C 
ENDBRANCH  23  25
ENDBRANCH  10  23
ENDBRANCH   7  10
ENDBRANCH   4   6
BRANCH   3  27
ATOM     27  C   UNL     1      -3.258  -2.837   9.351  1.00  0.00     0.171 C 
BRANCH  27  28
ATOM     28  N   UNL     1      -4.374  -2.314  10.131  1.00  0.00    -0.342 N 
ATOM     29  C   UNL     1      -4.341  -2.207  11.503  1.00  0.00     0.245 C 
ATOM     30  O   UNL     1      -3.361  -2.530  12.173  1.00  0.00    -0.273 OA
ATOM     31  H   UNL     1      -5.175  -1.921   9.638  1.00  0.00     0.164 HD
BRANCH  29  32
ATOM     32  C   UNL     1      -5.563  -1.512  12.140  1.00  0.00     0.200 C 
BRANCH  32  33
ATOM     33  N   UNL     1      -6.011  -0.446  11.235  1.00  0.00    -0.340 N 
ATOM     34  C   UNL     1      -6.263   0.828  11.699  1.00  0.00     0.243 CG0
ATOM     35  O   UNL     1      -6.186   1.112  12.893  1.00  0.00    -0.273 OA
ATOM     36  H   UNL     1      -6.113  -0.658  10.250  1.00  0.00     0.164 HD
ATOM     37  G   UNL     1      -6.856   1.806  10.672  1.00  0.00     0.000 G0
ENDBRANCH  32  33
BRANCH  32  38
ATOM     38  C   UNL     1      -6.680  -2.528  12.475  1.00  0.00     0.143 C 
ATOM     39  C   UNL     1      -8.010  -2.240  11.787  1.00  0.00     0.041 C 
BRANCH  38  40
ATOM     40  O   UNL     1      -6.254  -3.860  12.129  1.00  0.00    -0.391 OA
ATOM     41  H   UNL     1      -6.993  -4.457  12.356  1.00  0.00     0.211 HD
ENDBRANCH  38  40
ENDBRANCH  32  38
ENDBRANCH  29  32
ENDBRANCH  27  28
BRANCH  27  42
ATOM     42  C   UNL     1      -3.742  -3.791   8.231  1.00  0.00     0.015 C 
ATOM     43  C   UNL     1      -4.980  -3.325   7.456  1.00  0.00     0.010 C 
ATOM     44  C   UNL     1      -2.613  -4.156   7.262  1.00  0.00     0.010 C 
ENDBRANCH  27  42
ENDBRANCH   3  27
TORSDOF 5
ENDMDL
MODEL 7
REMARK VINA RESULT:    -5.893      2.446      3.310
REMARK INTER + INTRA:         -12.932
REMARK INTER:                 -10.407
REMARK INTRA:                  -2.526
REMARK UNBOUND:                -2.388
REMARK SMILES CC[C@H](C)[C@H]1NC(=O)c2coc(n2)[C@H](C(C)C)NC(=O)[C@H]([C@@H](C)O)NC(=O)[C@H](C)NC(=O)c2csc1n2
REMARK SMILES IDX 11 1 13 2 12 3 9 4 10 5 7 6 6 7 8 8 5 10 36 11 35 12 34 13
REMARK SMILES IDX 37 14 33 15 31 16 32 17 30 18 28 20 29 21 3 23 4 24 2 25
REMARK SMILES IDX 1 26 14 27 18 28 19 29 20 30 21 32 25 33 26 34 27 35 22 38
REMARK SMILES IDX 23 39 24 40 15 42 16 43 17 44
REMARK H PARENT 6 9 30 19 18 31 25 36 24 41
REMARK Flexibility Score:   94.900
ROOT
ATOM      1  O   UNL     1      -0.262  -1.353   8.105  1.00  0.00    -0.446 OA
ATOM      2  N   UNL     1      -1.892   0.009   8.860  1.00  0.00    -0.207 NA
ATOM      3  C   UNL     1      -1.361  -1.200   8.908  1.00  0.00     0.217 A 
ATOM      4  C   UNL     1      -1.073   0.704   7.987  1.00  0.00     0.167 A 
ATOM      5  C   UNL     1      -0.082  -0.131   7.532  1.00  0.00     0.231 A 
ENDROOT
BRANCH   4   6
ATOM      6  C   UNL     1      -1.298   2.093   7.624  1.00  0.00     0.273 C 
ATOM      7  N   UNL     1      -1.329   2.910   8.726  1.00  0.00    -0.341 N 
ATOM      8  O   UNL     1      -1.465   2.473   6.471  1.00  0.00    -0.267 OA
ATOM      9  H   UNL     1      -1.268   2.440   9.624  1.00  0.00     0.164 HD
BRANCH   7  10
ATOM     10  C   UNL     1      -1.779   4.287   8.678  1.00  0.00     0.145 C 
BRANCH  10  11
ATOM     11  C   UNL     1      -2.906   4.439   9.690  1.00  0.00     0.116 A 
ATOM     12  S   UNL     1      -4.110   5.648   9.453  1.00  0.00    -0.124 S 
ATOM     13  C   UNL     1      -4.902   5.128  10.876  1.00  0.00     0.101 A 
ATOM     14  N   UNL     1      -3.061   3.690  10.770  1.00  0.00    -0.234 NA
ATOM     15  C   UNL     1      -4.220   4.072  11.449  1.00  0.00     0.139 A 
BRANCH  15  16
ATOM     16  C   UNL     1      -4.660   3.385  12.666  1.00  0.00     0.271 C 
ATOM     17  O   UNL     1      -4.269   3.698  13.785  1.00  0.00    -0.267 OA
ATOM     18  N   UNL     1      -5.553   2.362  12.428  1.00  0.00    -0.339 N 
ATOM     19  H   UNL     1      -5.712   2.129  11.451  1.00  0.00     0.164 HD
BRANCH  18  20
ATOM     20  C   UNL     1      -6.047   1.524  13.512  1.00  0.00     0.168 CG0
ATOM     21  C   UNL     1      -7.486   1.886  13.884  1.00  0.00     0.041 C 
ATOM     22  G   UNL     1      -6.013   0.026  13.169  1.00  0.00     0.000 G0
ENDBRANCH  18  20
ENDBRANCH  15  16
ENDBRANCH  10  11
BRANCH  10  23
ATOM     23  C   UNL     1      -0.622   5.290   8.926  1.00  0.00     0.015 C 
ATOM     24  C   UNL     1       0.174   4.996  10.208  1.00  0.00     0.010 C 
BRANCH  23  25
ATOM     25  C   UNL     1       0.364   5.371   7.739  1.00  0.00     0.002 C 
ATOM     26  C   UNL     1       0.019   6.449   6.721  1.00  0.00     0.004 C 
ENDBRANCH  23  25
ENDBRANCH  10  23
ENDBRANCH   7  10
ENDBRANCH   4   6
BRANCH   3  27
ATOM     27  C   UNL     1      -1.866  -2.382   9.690  1.00  0.00     0.171 C 
BRANCH  27  28
ATOM     28  N   UNL     1      -3.256  -2.120  10.046  1.00  0.00    -0.342 N 
ATOM     29  C   UNL     1      -3.704  -2.107  11.348  1.00  0.00     0.245 C 
ATOM     30  O   UNL     1      -2.961  -2.299  12.309  1.00  0.00    -0.273 OA
ATOM     31  H   UNL     1      -3.906  -1.839   9.312  1.00  0.00     0.164 HD
BRANCH  29  32
ATOM     32  C   UNL     1      -5.176  -1.684  11.535  1.00  0.00     0.200 C 
BRANCH  32  33
ATOM     33  N   UNL     1      -5.199  -0.320  12.077  1.00  0.00    -0.340 N 
ATOM     34  C   UNL     1      -5.999   0.011  13.151  1.00  0.00     0.243 CG0
ATOM     35  O   UNL     1      -6.771  -0.799  13.660  1.00  0.00    -0.273 OA
ATOM     36  H   UNL     1      -4.595   0.378  11.658  1.00  0.00     0.164 HD
ATOM     37  G   UNL     1      -6.028   1.501  13.526  1.00  0.00     0.000 G0
ENDBRANCH  32  33
BRANCH  32  38
ATOM     38  C   UNL     1      -5.976  -1.823  10.219  1.00  0.00     0.143 C 
ATOM     39  C   UNL     1      -7.448  -2.165  10.418  1.00  0.00     0.041 C 
BRANCH  38  40
ATOM     40  O   UNL     1      -5.878  -0.608   9.451  1.00  0.00    -0.391 OA
ATOM     41  H   UNL     1      -5.065  -0.156   9.747  1.00  0.00     0.211 HD
ENDBRANCH  38  40
ENDBRANCH  32  38
ENDBRANCH  29  32
ENDBRANCH  27  28
BRANCH  27  42
ATOM     42  C   UNL     1      -1.695  -3.783   9.053  1.00  0.00     0.015 C 
ATOM     43  C   UNL     1      -1.787  -4.965  10.025  1.00  0.00     0.010 C 
ATOM     44  C   UNL     1      -2.644  -3.994   7.869  1.00  0.00     0.010 C 
ENDBRANCH  27  42
ENDBRANCH   3  27
TORSDOF 5
ENDMDL
MODEL 8
REMARK VINA RESULT:    -5.717      3.910      6.775
REMARK INTER + INTRA:         -12.617
REMARK INTER:                 -10.124
REMARK INTRA:                  -2.493
REMARK UNBOUND:                -2.388
REMARK SMILES CC[C@H](C)[C@H]1NC(=O)c2coc(n2)[C@H](C(C)C)NC(=O)[C@H]([C@@H](C)O)NC(=O)[C@H](C)NC(=O)c2csc1n2
REMARK SMILES IDX 11 1 13 2 12 3 9 4 10 5 7 6 6 7 8 8 5 10 36 11 35 12 34 13
REMARK SMILES IDX 37 14 33 15 31 16 32 17 30 18 28 20 29 21 3 23 4 24 2 25
REMARK SMILES IDX 1 26 14 27 18 28 19 29 20 30 21 32 25 33 26 34 27 35 22 38
REMARK SMILES IDX 23 39 24 40 15 42 16 43 17 44
REMARK H PARENT 6 9 30 19 18 31 25 36 24 41
REMARK Flexibility Score:   94.900
ROOT
ATOM      1  O   UNL     1      -4.636  -3.891   8.727  1.00  0.00    -0.446 OA
ATOM      2  N   UNL     1      -6.118  -2.337   8.041  1.00  0.00    -0.207 NA
ATOM      3  C   UNL     1      -5.038  -3.034   7.737  1.00  0.00     0.217 A 
ATOM      4  C   UNL     1      -6.465  -2.783   9.305  1.00  0.00     0.167 A 
ATOM      5  C   UNL     1      -5.559  -3.730   9.716  1.00  0.00     0.231 A 
ENDROOT
BRANCH   4   6
ATOM      6  C   UNL     1      -7.605  -2.267  10.043  1.00  0.00     0.273 C 
ATOM      7  N   UNL     1      -7.978  -1.023   9.601  1.00  0.00    -0.341 N 
ATOM      8  O   UNL     1      -8.143  -2.868  10.965  1.00  0.00    -0.267 OA
ATOM      9  H   UNL     1      -7.380  -0.611   8.891  1.00  0.00     0.164 HD
BRANCH   7  10
ATOM     10  C   UNL     1      -8.915  -0.178  10.314  1.00  0.00     0.145 C 
BRANCH  10  11
ATOM     11  C   UNL     1      -8.178   1.093  10.711  1.00  0.00     0.116 A 
ATOM     12  S   UNL     1      -8.723   2.009  12.066  1.00  0.00    -0.124 S 
ATOM     13  C   UNL     1      -7.436   3.108  11.831  1.00  0.00     0.101 A 
ATOM     14  N   UNL     1      -7.109   1.573  10.098  1.00  0.00    -0.234 NA
ATOM     15  C   UNL     1      -6.665   2.726  10.749  1.00  0.00     0.139 A 
BRANCH  15  16
ATOM     16  C   UNL     1      -5.471   3.449  10.306  1.00  0.00     0.271 C 
ATOM     17  O   UNL     1      -5.301   4.645  10.518  1.00  0.00    -0.267 OA
ATOM     18  N   UNL     1      -4.565   2.656   9.635  1.00  0.00    -0.339 N 
ATOM     19  H   UNL     1      -4.871   1.709   9.427  1.00  0.00     0.164 HD
BRANCH  18  20
ATOM     20  C   UNL     1      -3.349   3.218   9.062  1.00  0.00     0.168 CG0
ATOM     21  C   UNL     1      -2.167   3.084  10.024  1.00  0.00     0.041 C 
ATOM     22  G   UNL     1      -2.954   2.551   7.735  1.00  0.00     0.000 G0
ENDBRANCH  18  20
ENDBRANCH  15  16
ENDBRANCH  10  11
BRANCH  10  23
ATOM     23  C   UNL     1     -10.192   0.114   9.482  1.00  0.00     0.015 C 
ATOM     24  C   UNL     1     -10.390  -0.861   8.309  1.00  0.00     0.010 C 
BRANCH  23  25
ATOM     25  C   UNL     1     -11.477   0.122  10.340  1.00  0.00     0.002 C 
ATOM     26  C   UNL     1     -12.233   1.443  10.310  1.00  0.00     0.004 C 
ENDBRANCH  23  25
ENDBRANCH  10  23
ENDBRANCH   7  10
ENDBRANCH   4   6
BRANCH   3  27
ATOM     27  C   UNL     1      -4.219  -2.934   6.480  1.00  0.00     0.171 C 
BRANCH  27  28
ATOM     28  N   UNL     1      -3.236  -1.873   6.671  1.00  0.00    -0.342 N 
ATOM     29  C   UNL     1      -3.418  -0.592   6.201  1.00  0.00     0.245 C 
ATOM     30  O   UNL     1      -4.431  -0.242   5.598  1.00  0.00    -0.273 OA
ATOM     31  H   UNL     1      -2.424  -2.057   7.259  1.00  0.00     0.164 HD
BRANCH  29  32
ATOM     32  C   UNL     1      -2.330   0.423   6.611  1.00  0.00     0.200 C 
BRANCH  32  33
ATOM     33  N   UNL     1      -2.815   1.173   7.776  1.00  0.00    -0.340 N 
ATOM     34  C   UNL     1      -2.962   2.544   7.734  1.00  0.00     0.243 CG0
ATOM     35  O   UNL     1      -2.635   3.203   6.749  1.00  0.00    -0.273 OA
ATOM     36  H   UNL     1      -3.064   0.660   8.614  1.00  0.00     0.164 HD
ATOM     37  G   UNL     1      -3.346   3.214   9.063  1.00  0.00     0.000 G0
ENDBRANCH  32  33
BRANCH  32  38
ATOM     38  C   UNL     1      -0.973  -0.275   6.866  1.00  0.00     0.143 C 
ATOM     39  C   UNL     1       0.239   0.553   6.457  1.00  0.00     0.041 C 
BRANCH  38  40
ATOM     40  O   UNL     1      -0.853  -0.624   8.259  1.00  0.00    -0.391 OA
ATOM     41  H   UNL     1      -0.581   0.187   8.727  1.00  0.00     0.211 HD
ENDBRANCH  38  40
ENDBRANCH  32  38
ENDBRANCH  29  32
ENDBRANCH  27  28
BRANCH  27  42
ATOM     42  C   UNL     1      -3.561  -4.232   5.952  1.00  0.00     0.015 C 
ATOM     43  C   UNL     1      -3.968  -4.651   4.535  1.00  0.00     0.010 C 
ATOM     44  C   UNL     1      -2.034  -4.191   6.076  1.00  0.00     0.010 C 
ENDBRANCH  27  42
ENDBRANCH   3  27
TORSDOF 5
ENDMDL
MODEL 9
REMARK VINA RESULT:    -5.714      4.209      7.172
REMARK INTER + INTRA:         -12.611
REMARK INTER:                 -10.920
REMARK INTRA:                  -1.691
REMARK UNBOUND:                -2.388
REMARK SMILES CC[C@H](C)[C@H]1NC(=O)c2coc(n2)[C@H](C(C)C)NC(=O)[C@H]([C@@H](C)O)NC(=O)[C@H](C)NC(=O)c2csc1n2
REMARK SMILES IDX 11 1 13 2 12 3 9 4 10 5 7 6 6 7 8 8 5 10 36 11 35 12 34 13
REMARK SMILES IDX 37 14 33 15 31 16 32 17 30 18 28 20 29 21 3 23 4 24 2 25
REMARK SMILES IDX 1 26 14 27 18 28 19 29 20 30 21 32 25 33 26 34 27 35 22 38
REMARK SMILES IDX 23 39 24 40 15 42 16 43 17 44
REMARK H PARENT 6 9 30 19 18 31 25 36 24 41
REMARK Flexibility Score:   94.900
ROOT
ATOM      1  O   UNL     1     -10.159  -1.525   8.563  1.00  0.00    -0.446 OA
ATOM      2  N   UNL     1      -8.210  -0.426   8.841  1.00  0.00    -0.207 NA
ATOM      3  C   UNL     1      -9.396  -0.706   9.353  1.00  0.00     0.217 A 
ATOM      4  C   UNL     1      -8.182  -1.128   7.648  1.00  0.00     0.167 A 
ATOM      5  C   UNL     1      -9.371  -1.795   7.485  1.00  0.00     0.231 A 
ENDROOT
BRANCH   4   6
ATOM      6  C   UNL     1      -7.051  -1.097   6.736  1.00  0.00     0.273 C 
ATOM      7  N   UNL     1      -6.420  -2.313   6.665  1.00  0.00    -0.341 N 
ATOM      8  O   UNL     1      -6.697  -0.093   6.130  1.00  0.00    -0.267 OA
ATOM      9  H   UNL     1      -6.770  -3.029   7.296  1.00  0.00     0.164 HD
BRANCH   7  10
ATOM     10  C   UNL     1      -5.130  -2.500   6.031  1.00  0.00     0.145 C 
BRANCH  10  11
ATOM     11  C   UNL     1      -4.059  -2.180   7.064  1.00  0.00     0.116 A 
ATOM     12  S   UNL     1      -2.663  -1.284   6.598  1.00  0.00    -0.124 S 
ATOM     13  C   UNL     1      -2.093  -1.348   8.208  1.00  0.00     0.101 A 
ATOM     14  N   UNL     1      -4.108  -2.527   8.339  1.00  0.00    -0.234 NA
ATOM     15  C   UNL     1      -2.985  -2.035   9.009  1.00  0.00     0.139 A 
BRANCH  15  16
ATOM     16  C   UNL     1      -2.796  -2.238  10.447  1.00  0.00     0.271 C 
ATOM     17  O   UNL     1      -1.962  -3.012  10.905  1.00  0.00    -0.267 OA
ATOM     18  N   UNL     1      -3.641  -1.478  11.226  1.00  0.00    -0.339 N 
ATOM     19  H   UNL     1      -4.361  -0.961  10.728  1.00  0.00     0.164 HD
BRANCH  18  20
ATOM     20  C   UNL     1      -3.642  -1.599  12.678  1.00  0.00     0.168 CG0
ATOM     21  C   UNL     1      -2.503  -0.792  13.304  1.00  0.00     0.041 C 
ATOM     22  G   UNL     1      -4.959  -1.123  13.313  1.00  0.00     0.000 G0
ENDBRANCH  18  20
ENDBRANCH  15  16
ENDBRANCH  10  11
BRANCH  10  23
ATOM     23  C   UNL     1      -4.971  -3.924   5.435  1.00  0.00     0.015 C 
ATOM     24  C   UNL     1      -5.165  -3.970   3.910  1.00  0.00     0.010 C 
BRANCH  23  25
ATOM     25  C   UNL     1      -3.609  -4.567   5.779  1.00  0.00     0.002 C 
ATOM     26  C   UNL     1      -2.953  -5.290   4.611  1.00  0.00     0.004 C 
ENDBRANCH  23  25
ENDBRANCH  10  23
ENDBRANCH   7  10
ENDBRANCH   4   6
BRANCH   3  27
ATOM     27  C   UNL     1      -9.974  -0.185  10.640  1.00  0.00     0.171 C 
BRANCH  27  28
ATOM     28  N   UNL     1      -8.869   0.299  11.461  1.00  0.00    -0.342 N 
ATOM     29  C   UNL     1      -8.291  -0.458  12.456  1.00  0.00     0.245 C 
ATOM     30  O   UNL     1      -8.652  -1.604  12.715  1.00  0.00    -0.273 OA
ATOM     31  H   UNL     1      -8.442   1.194  11.229  1.00  0.00     0.164 HD
BRANCH  29  32
ATOM     32  C   UNL     1      -7.053   0.173  13.129  1.00  0.00     0.200 C 
BRANCH  32  33
ATOM     33  N   UNL     1      -5.851  -0.445  12.556  1.00  0.00    -0.340 N 
ATOM     34  C   UNL     1      -4.947  -1.121  13.349  1.00  0.00     0.243 CG0
ATOM     35  O   UNL     1      -5.071  -1.180  14.570  1.00  0.00    -0.273 OA
ATOM     36  H   UNL     1      -5.706  -0.387  11.555  1.00  0.00     0.164 HD
ATOM     37  G   UNL     1      -3.668  -1.599  12.642  1.00  0.00     0.000 G0
ENDBRANCH  32  33
BRANCH  32  38
ATOM     38  C   UNL     1      -7.061   1.714  12.994  1.00  0.00     0.143 C 
ATOM     39  C   UNL     1      -5.842   2.398  13.604  1.00  0.00     0.041 C 
BRANCH  38  40
ATOM     40  O   UNL     1      -7.161   2.087  11.606  1.00  0.00    -0.391 OA
ATOM     41  H   UNL     1      -6.774   1.354  11.091  1.00  0.00     0.211 HD
ENDBRANCH  38  40
ENDBRANCH  32  38
ENDBRANCH  29  32
ENDBRANCH  27  28
BRANCH  27  42
ATOM     42  C   UNL     1     -11.110   0.861  10.539  1.00  0.00     0.015 C 
ATOM     43  C   UNL     1     -12.535   0.295  10.567  1.00  0.00     0.010 C 
ATOM     44  C   UNL     1     -10.960   1.972  11.584  1.00  0.00     0.010 C 
ENDBRANCH  27  42
ENDBRANCH   3  27
TORSDOF 5
ENDMDL
MODEL 10
REMARK VINA RESULT:    -5.685      4.294      6.937
REMARK INTER + INTRA:         -12.560
REMARK INTER:                 -10.315
REMARK INTRA:                  -2.246
REMARK UNBOUND:                -2.388
REMARK SMILES CC[C@H](C)[C@H]1NC(=O)c2coc(n2)[C@H](C(C)C)NC(=O)[C@H]([C@@H](C)O)NC(=O)[C@H](C)NC(=O)c2csc1n2
REMARK SMILES IDX 11 1 13 2 12 3 9 4 10 5 7 6 6 7 8 8 5 10 36 11 35 12 34 13
REMARK SMILES IDX 37 14 33 15 31 16 32 17 30 18 28 20 29 21 3 23 4 24 2 25
REMARK SMILES IDX 1 26 14 27 18 28 19 29 20 30 21 32 25 33 26 34 27 35 22 38
REMARK SMILES IDX 23 39 24 40 15 42 16 43 17 44
REMARK H PARENT 6 9 30 19 18 31 25 36 24 41
REMARK Flexibility Score:   94.900
ROOT
ATOM      1  O   UNL     1      -9.348  -2.199   9.406  1.00  0.00    -0.446 OA
ATOM      2  N   UNL     1      -7.982  -0.420   9.175  1.00  0.00    -0.207 NA
ATOM      3  C   UNL     1      -9.000  -0.945   9.834  1.00  0.00     0.217 A 
ATOM      4  C   UNL     1      -7.619  -1.405   8.272  1.00  0.00     0.167 A 
ATOM      5  C   UNL     1      -8.455  -2.485   8.418  1.00  0.00     0.231 A 
ENDROOT
BRANCH   4   6
ATOM      6  C   UNL     1      -6.534  -1.246   7.319  1.00  0.00     0.273 C 
ATOM      7  N   UNL     1      -5.510  -2.127   7.562  1.00  0.00    -0.341 N 
ATOM      8  O   UNL     1      -6.533  -0.408   6.426  1.00  0.00    -0.267 OA
ATOM      9  H   UNL     1      -5.611  -2.701   8.394  1.00  0.00     0.164 HD
BRANCH   7  10
ATOM     10  C   UNL     1      -4.211  -2.024   6.928  1.00  0.00     0.145 C 
BRANCH  10  11
ATOM     11  C   UNL     1      -3.293  -1.267   7.877  1.00  0.00     0.116 A 
ATOM     12  S   UNL     1      -1.601  -1.202   7.559  1.00  0.00    -0.124 S 
ATOM     13  C   UNL     1      -1.385  -0.227   8.946  1.00  0.00     0.101 A 
ATOM     14  N   UNL     1      -3.691  -0.617   8.958  1.00  0.00    -0.234 NA
ATOM     15  C   UNL     1      -2.597  -0.000   9.570  1.00  0.00     0.139 A 
BRANCH  15  16
ATOM     16  C   UNL     1      -2.750   0.822  10.772  1.00  0.00     0.271 C 
ATOM     17  O   UNL     1      -1.820   1.442  11.277  1.00  0.00    -0.267 OA
ATOM     18  N   UNL     1      -4.035   0.831  11.273  1.00  0.00    -0.339 N 
ATOM     19  H   UNL     1      -4.688   0.190  10.831  1.00  0.00     0.164 HD
BRANCH  18  20
ATOM     20  C   UNL     1      -4.360   1.541  12.503  1.00  0.00     0.168 CG0
ATOM     21  C   UNL     1      -5.056   2.871  12.210  1.00  0.00     0.041 C 
ATOM     22  G   UNL     1      -5.274   0.728  13.434  1.00  0.00     0.000 G0
ENDBRANCH  18  20
ENDBRANCH  15  16
ENDBRANCH  10  11
BRANCH  10  23
ATOM     23  C   UNL     1      -3.640  -3.412   6.534  1.00  0.00     0.015 C 
ATOM     24  C   UNL     1      -3.452  -4.356   7.734  1.00  0.00     0.010 C 
BRANCH  23  25
ATOM     25  C   UNL     1      -4.497  -4.132   5.469  1.00  0.00     0.002 C 
ATOM     26  C   UNL     1      -5.047  -3.208   4.391  1.00  0.00     0.004 C 
ENDBRANCH  23  25
ENDBRANCH  10  23
ENDBRANCH   7  10
ENDBRANCH   4   6
BRANCH   3  27
ATOM     27  C   UNL     1      -9.807  -0.294  10.924  1.00  0.00     0.171 C 
BRANCH  27  28
ATOM     28  N   UNL     1      -8.875   0.222  11.921  1.00  0.00    -0.342 N 
ATOM     29  C   UNL     1      -8.793  -0.284  13.199  1.00  0.00     0.245 C 
ATOM     30  O   UNL     1      -9.488  -1.220  13.590  1.00  0.00    -0.273 OA
ATOM     31  H   UNL     1      -8.189   0.920  11.635  1.00  0.00     0.164 HD
BRANCH  29  32
ATOM     32  C   UNL     1      -7.661   0.303  14.068  1.00  0.00     0.200 C 
BRANCH  32  33
ATOM     33  N   UNL     1      -6.654   0.893  13.178  1.00  0.00    -0.340 N 
ATOM     34  C   UNL     1      -5.304   0.740  13.421  1.00  0.00     0.243 CG0
ATOM     35  O   UNL     1      -4.887   0.162  14.423  1.00  0.00    -0.273 OA
ATOM     36  H   UNL     1      -6.968   1.402  12.360  1.00  0.00     0.164 HD
ATOM     37  G   UNL     1      -4.366   1.523  12.489  1.00  0.00     0.000 G0
ENDBRANCH  32  33
BRANCH  32  38
ATOM     38  C   UNL     1      -8.209   1.308  15.108  1.00  0.00     0.143 C 
ATOM     39  C   UNL     1      -8.724   2.610  14.503  1.00  0.00     0.041 C 
BRANCH  38  40
ATOM     40  O   UNL     1      -9.266   0.698  15.873  1.00  0.00    -0.391 OA
ATOM     41  H   UNL     1      -9.678   0.027  15.296  1.00  0.00     0.211 HD
ENDBRANCH  38  40
ENDBRANCH  32  38
ENDBRANCH  29  32
ENDBRANCH  27  28
BRANCH  27  42
ATOM     42  C   UNL     1     -10.842   0.778  10.502  1.00  0.00     0.015 C 
ATOM     43  C   UNL     1     -12.277   0.273  10.313  1.00  0.00     0.010 C 
ATOM     44  C   UNL     1     -10.824   1.990  11.439  1.00  0.00     0.010 C 
ENDBRANCH  27  42
ENDBRANCH   3  27
TORSDOF 5
ENDMDL
MODEL 11
REMARK VINA RESULT:    -5.473      2.642      6.415
REMARK INTER + INTRA:         -12.180
REMARK INTER:                  -9.693
REMARK INTRA:                  -2.487
REMARK UNBOUND:                -2.388
REMARK SMILES CC[C@H](C)[C@H]1NC(=O)c2coc(n2)[C@H](C(C)C)NC(=O)[C@H]([C@@H](C)O)NC(=O)[C@H](C)NC(=O)c2csc1n2
REMARK SMILES IDX 11 1 13 2 12 3 9 4 10 5 7 6 6 7 8 8 5 10 36 11 35 12 34 13
REMARK SMILES IDX 37 14 33 15 31 16 32 17 30 18 28 20 29 21 3 23 4 24 2 25
REMARK SMILES IDX 1 26 14 27 18 28 19 29 20 30 21 32 25 33 26 34 27 35 22 38
REMARK SMILES IDX 23 39 24 40 15 42 16 43 17 44
REMARK H PARENT 6 9 30 19 18 31 25 36 24 41
REMARK Flexibility Score:   94.900
ROOT
ATOM      1  O   UNL     1      -3.331  -3.510   9.410  1.00  0.00    -0.446 OA
ATOM      2  N   UNL     1      -4.277  -1.465   9.501  1.00  0.00    -0.207 NA
ATOM      3  C   UNL     1      -3.795  -2.419   8.724  1.00  0.00     0.217 A 
ATOM      4  C   UNL     1      -4.145  -1.973  10.782  1.00  0.00     0.167 A 
ATOM      5  C   UNL     1      -3.569  -3.218  10.720  1.00  0.00     0.231 A 
ENDROOT
BRANCH   4   6
ATOM      6  C   UNL     1      -4.542  -1.239  11.971  1.00  0.00     0.273 C 
ATOM      7  N   UNL     1      -5.516  -0.312  11.697  1.00  0.00    -0.341 N 
ATOM      8  O   UNL     1      -4.043  -1.417  13.076  1.00  0.00    -0.267 OA
ATOM      9  H   UNL     1      -5.767  -0.214  10.717  1.00  0.00     0.164 HD
BRANCH   7  10
ATOM     10  C   UNL     1      -5.917   0.717  12.635  1.00  0.00     0.145 C 
BRANCH  10  11
ATOM     11  C   UNL     1      -5.016   1.923  12.408  1.00  0.00     0.116 A 
ATOM     12  S   UNL     1      -4.284   2.709  13.756  1.00  0.00    -0.124 S 
ATOM     13  C   UNL     1      -3.506   3.795  12.690  1.00  0.00     0.101 A 
ATOM     14  N   UNL     1      -4.720   2.436  11.225  1.00  0.00    -0.234 NA
ATOM     15  C   UNL     1      -3.835   3.506  11.380  1.00  0.00     0.139 A 
BRANCH  15  16
ATOM     16  C   UNL     1      -3.308   4.241  10.228  1.00  0.00     0.271 C 
ATOM     17  O   UNL     1      -3.538   5.429  10.035  1.00  0.00    -0.267 OA
ATOM     18  N   UNL     1      -2.530   3.468   9.391  1.00  0.00    -0.339 N 
ATOM     19  H   UNL     1      -2.506   2.473   9.599  1.00  0.00     0.164 HD
BRANCH  18  20
ATOM     20  C   UNL     1      -1.977   4.013   8.159  1.00  0.00     0.168 CG0
ATOM     21  C   UNL     1      -0.494   4.355   8.319  1.00  0.00     0.041 C 
ATOM     22  G   UNL     1      -2.112   3.049   6.969  1.00  0.00     0.000 G0
ENDBRANCH  18  20
ENDBRANCH  15  16
ENDBRANCH  10  11
BRANCH  10  23
ATOM     23  C   UNL     1      -7.422   1.071  12.509  1.00  0.00     0.015 C 
ATOM     24  C   UNL     1      -8.343  -0.160  12.555  1.00  0.00     0.010 C 
BRANCH  23  25
ATOM     25  C   UNL     1      -7.891   2.080  13.582  1.00  0.00     0.002 C 
ATOM     26  C   UNL     1      -8.485   1.431  14.824  1.00  0.00     0.004 C 
ENDBRANCH  23  25
ENDBRANCH  10  23
ENDBRANCH   7  10
ENDBRANCH   4   6
BRANCH   3  27
ATOM     27  C   UNL     1      -3.669  -2.390   7.226  1.00  0.00     0.171 C 
BRANCH  27  28
ATOM     28  N   UNL     1      -2.644  -1.409   6.883  1.00  0.00    -0.342 N 
ATOM     29  C   UNL     1      -2.935  -0.206   6.281  1.00  0.00     0.245 C 
ATOM     30  O   UNL     1      -4.082   0.139   6.000  1.00  0.00    -0.273 OA
ATOM     31  H   UNL     1      -1.686  -1.574   7.188  1.00  0.00     0.164 HD
BRANCH  29  32
ATOM     32  C   UNL     1      -1.738   0.754   6.114  1.00  0.00     0.200 C 
BRANCH  32  33
ATOM     33  N   UNL     1      -1.780   1.737   7.204  1.00  0.00    -0.340 N 
ATOM     34  C   UNL     1      -2.098   3.058   6.966  1.00  0.00     0.243 CG0
ATOM     35  O   UNL     1      -2.296   3.483   5.830  1.00  0.00    -0.273 OA
ATOM     36  H   UNL     1      -1.590   1.422   8.149  1.00  0.00     0.164 HD
ATOM     37  G   UNL     1      -1.970   4.002   8.172  1.00  0.00     0.000 G0
ENDBRANCH  32  33
BRANCH  32  38
ATOM     38  C   UNL     1      -0.399  -0.017   6.049  1.00  0.00     0.143 C 
ATOM     39  C   UNL     1       0.755   0.787   5.462  1.00  0.00     0.041 C 
BRANCH  38  40
ATOM     40  O   UNL     1      -0.029  -0.473   7.365  1.00  0.00    -0.391 OA
ATOM     41  H   UNL     1      -0.848  -0.785   7.793  1.00  0.00     0.211 HD
ENDBRANCH  38  40
ENDBRANCH  32  38
ENDBRANCH  29  32
ENDBRANCH  27  28
BRANCH  27  42
ATOM     42  C   UNL     1      -3.429  -3.739   6.504  1.00  0.00     0.015 C 
ATOM     43  C   UNL     1      -4.436  -4.087   5.402  1.00  0.00     0.010 C 
ATOM     44  C   UNL     1      -1.997  -3.858   5.972  1.00  0.00     0.010 C 
ENDBRANCH  27  42
ENDBRANCH   3  27
TORSDOF 5
ENDMDL
MODEL 12
REMARK VINA RESULT:    -5.469      2.712      6.919
REMARK INTER + INTRA:         -12.174
REMARK INTER:                 -10.134
REMARK INTRA:                  -2.041
REMARK UNBOUND:                -2.388
REMARK SMILES CC[C@H](C)[C@H]1NC(=O)c2coc(n2)[C@H](C(C)C)NC(=O)[C@H]([C@@H](C)O)NC(=O)[C@H](C)NC(=O)c2csc1n2
REMARK SMILES IDX 11 1 13 2 12 3 9 4 10 5 7 6 6 7 8 8 5 10 36 11 35 12 34 13
REMARK SMILES IDX 37 14 33 15 31 16 32 17 30 18 28 20 29 21 3 23 4 24 2 25
REMARK SMILES IDX 1 26 14 27 18 28 19 29 20 30 21 32 25 33 26 34 27 35 22 38
REMARK SMILES IDX 23 39 24 40 15 42 16 43 17 44
REMARK H PARENT 6 9 30 19 18 31 25 36 24 41
REMARK Flexibility Score:   94.900
ROOT
ATOM      1  O   UNL     1      -1.780   2.393   5.491  1.00  0.00    -0.446 OA
ATOM      2  N   UNL     1      -0.879   2.204   7.549  1.00  0.00    -0.207 NA
ATOM      3  C   UNL     1      -1.250   3.027   6.583  1.00  0.00     0.217 A 
ATOM      4  C   UNL     1      -1.211   0.949   7.071  1.00  0.00     0.167 A 
ATOM      5  C   UNL     1      -1.760   1.070   5.818  1.00  0.00     0.231 A 
ENDROOT
BRANCH   4   6
ATOM      6  C   UNL     1      -0.962  -0.274   7.814  1.00  0.00     0.273 C 
ATOM      7  N   UNL     1      -2.126  -0.941   8.103  1.00  0.00    -0.341 N 
ATOM      8  O   UNL     1       0.154  -0.643   8.158  1.00  0.00    -0.267 OA
ATOM      9  H   UNL     1      -2.984  -0.468   7.834  1.00  0.00     0.164 HD
BRANCH   7  10
ATOM     10  C   UNL     1      -2.193  -2.048   9.037  1.00  0.00     0.145 C 
BRANCH  10  11
ATOM     11  C   UNL     1      -2.827  -1.530  10.320  1.00  0.00     0.116 A 
ATOM     12  S   UNL     1      -2.492  -2.316  11.817  1.00  0.00    -0.124 S 
ATOM     13  C   UNL     1      -3.471  -1.173  12.627  1.00  0.00     0.101 A 
ATOM     14  N   UNL     1      -3.631  -0.482  10.399  1.00  0.00    -0.234 NA
ATOM     15  C   UNL     1      -3.993  -0.261  11.730  1.00  0.00     0.139 A 
BRANCH  15  16
ATOM     16  C   UNL     1      -4.851   0.861  12.118  1.00  0.00     0.271 C 
ATOM     17  O   UNL     1      -6.024   0.718  12.448  1.00  0.00    -0.267 OA
ATOM     18  N   UNL     1      -4.213   2.082  12.077  1.00  0.00    -0.339 N 
ATOM     19  H   UNL     1      -3.277   2.082  11.681  1.00  0.00     0.164 HD
BRANCH  18  20
ATOM     20  C   UNL     1      -4.929   3.318  12.365  1.00  0.00     0.168 CG0
ATOM     21  C   UNL     1      -4.732   3.748  13.820  1.00  0.00     0.041 C 
ATOM     22  G   UNL     1      -4.488   4.484  11.466  1.00  0.00     0.000 G0
ENDBRANCH  18  20
ENDBRANCH  15  16
ENDBRANCH  10  11
BRANCH  10  23
ATOM     23  C   UNL     1      -2.957  -3.265   8.450  1.00  0.00     0.015 C 
ATOM     24  C   UNL     1      -2.448  -4.616   8.979  1.00  0.00     0.010 C 
BRANCH  23  25
ATOM     25  C   UNL     1      -4.482  -3.184   8.685  1.00  0.00     0.002 C 
ATOM     26  C   UNL     1      -5.241  -2.467   7.577  1.00  0.00     0.004 C 
ENDBRANCH  23  25
ENDBRANCH  10  23
ENDBRANCH   7  10
ENDBRANCH   4   6
BRANCH   3  27
ATOM     27  C   UNL     1      -1.098   4.523   6.558  1.00  0.00     0.171 C 
BRANCH  27  28
ATOM     28  N   UNL     1      -1.467   5.031   7.875  1.00  0.00    -0.342 N 
ATOM     29  C   UNL     1      -2.755   4.985   8.359  1.00  0.00     0.245 C 
ATOM     30  O   UNL     1      -3.688   4.497   7.724  1.00  0.00    -0.273 OA
ATOM     31  H   UNL     1      -0.729   5.345   8.503  1.00  0.00     0.164 HD
BRANCH  29  32
ATOM     32  C   UNL     1      -2.927   5.452   9.820  1.00  0.00     0.200 C 
BRANCH  32  33
ATOM     33  N   UNL     1      -3.477   4.335  10.599  1.00  0.00    -0.340 N 
ATOM     34  C   UNL     1      -4.514   4.525  11.489  1.00  0.00     0.243 CG0
ATOM     35  O   UNL     1      -4.979   5.640  11.716  1.00  0.00    -0.273 OA
ATOM     36  H   UNL     1      -3.093   3.409  10.456  1.00  0.00     0.164 HD
ATOM     37  G   UNL     1      -4.898   3.301  12.335  1.00  0.00     0.000 G0
ENDBRANCH  32  33
BRANCH  32  38
ATOM     38  C   UNL     1      -1.601   5.996  10.400  1.00  0.00     0.143 C 
ATOM     39  C   UNL     1      -1.775   7.170  11.357  1.00  0.00     0.041 C 
BRANCH  38  40
ATOM     40  O   UNL     1      -0.890   4.942  11.078  1.00  0.00    -0.391 OA
ATOM     41  H   UNL     1       0.007   5.281  11.259  1.00  0.00     0.211 HD
ENDBRANCH  38  40
ENDBRANCH  32  38
ENDBRANCH  29  32
ENDBRANCH  27  28
BRANCH  27  42
ATOM     42  C   UNL     1       0.262   5.094   6.088  1.00  0.00     0.015 C 
ATOM     43  C   UNL     1       0.832   4.473   4.807  1.00  0.00     0.010 C 
ATOM     44  C   UNL     1       0.233   6.621   5.970  1.00  0.00     0.010 C 
ENDBRANCH  27  42
ENDBRANCH   3  27
TORSDOF 5
ENDMDL
MODEL 13
REMARK VINA RESULT:    -5.450      3.750      7.617
REMARK INTER + INTRA:         -12.140
REMARK INTER:                  -9.668
REMARK INTRA:                  -2.473
REMARK UNBOUND:                -2.388
REMARK SMILES CC[C@H](C)[C@H]1NC(=O)c2coc(n2)[C@H](C(C)C)NC(=O)[C@H]([C@@H](C)O)NC(=O)[C@H](C)NC(=O)c2csc1n2
REMARK SMILES IDX 11 1 13 2 12 3 9 4 10 5 7 6 6 7 8 8 5 10 36 11 35 12 34 13
REMARK SMILES IDX 37 14 33 15 31 16 32 17 30 18 28 20 29 21 3 23 4 24 2 25
REMARK SMILES IDX 1 26 14 27 18 28 19 29 20 30 21 32 25 33 26 34 27 35 22 38
REMARK SMILES IDX 23 39 24 40 15 42 16 43 17 44
REMARK H PARENT 6 9 30 19 18 31 25 36 24 41
REMARK Flexibility Score:   94.900
ROOT
ATOM      1  O   UNL     1      -1.021   3.064   7.799  1.00  0.00    -0.446 OA
ATOM      2  N   UNL     1      -2.307   2.391   9.524  1.00  0.00    -0.207 NA
ATOM      3  C   UNL     1      -1.845   3.419   8.834  1.00  0.00     0.217 A 
ATOM      4  C   UNL     1      -1.772   1.286   8.885  1.00  0.00     0.167 A 
ATOM      5  C   UNL     1      -0.991   1.703   7.835  1.00  0.00     0.231 A 
ENDROOT
BRANCH   4   6
ATOM      6  C   UNL     1      -2.010  -0.078   9.325  1.00  0.00     0.273 C 
ATOM      7  N   UNL     1      -2.966  -0.700   8.562  1.00  0.00    -0.341 N 
ATOM      8  O   UNL     1      -1.440  -0.591  10.280  1.00  0.00    -0.267 OA
ATOM      9  H   UNL     1      -3.418  -0.119   7.863  1.00  0.00     0.164 HD
BRANCH   7  10
ATOM     10  C   UNL     1      -3.572  -1.965   8.929  1.00  0.00     0.145 C 
BRANCH  10  11
ATOM     11  C   UNL     1      -4.827  -1.658   9.732  1.00  0.00     0.116 A 
ATOM     12  S   UNL     1      -5.231  -2.636  11.093  1.00  0.00    -0.124 S 
ATOM     13  C   UNL     1      -6.603  -1.657  11.380  1.00  0.00     0.101 A 
ATOM     14  N   UNL     1      -5.663  -0.664   9.483  1.00  0.00    -0.234 NA
ATOM     15  C   UNL     1      -6.681  -0.648  10.440  1.00  0.00     0.139 A 
BRANCH  15  16
ATOM     16  C   UNL     1      -7.730   0.374  10.430  1.00  0.00     0.271 C 
ATOM     17  O   UNL     1      -8.840   0.183   9.947  1.00  0.00    -0.267 OA
ATOM     18  N   UNL     1      -7.346   1.563  11.015  1.00  0.00    -0.339 N 
ATOM     19  H   UNL     1      -6.367   1.633  11.278  1.00  0.00     0.164 HD
BRANCH  18  20
ATOM     20  C   UNL     1      -8.237   2.715  11.037  1.00  0.00     0.168 CG0
ATOM     21  C   UNL     1      -9.085   2.739  12.310  1.00  0.00     0.041 C 
ATOM     22  G   UNL     1      -7.482   4.051  10.949  1.00  0.00     0.000 G0
ENDBRANCH  18  20
ENDBRANCH  15  16
ENDBRANCH  10  11
BRANCH  10  23
ATOM     23  C   UNL     1      -3.864  -2.855   7.692  1.00  0.00     0.015 C 
ATOM     24  C   UNL     1      -3.413  -2.221   6.365  1.00  0.00     0.010 C 
BRANCH  23  25
ATOM     25  C   UNL     1      -3.235  -4.263   7.806  1.00  0.00     0.002 C 
ATOM     26  C   UNL     1      -2.144  -4.369   8.863  1.00  0.00     0.004 C 
ENDBRANCH  23  25
ENDBRANCH  10  23
ENDBRANCH   7  10
ENDBRANCH   4   6
BRANCH   3  27
ATOM     27  C   UNL     1      -2.091   4.877   9.106  1.00  0.00     0.171 C 
BRANCH  27  28
ATOM     28  N   UNL     1      -3.052   4.972  10.199  1.00  0.00    -0.342 N 
ATOM     29  C   UNL     1      -4.389   5.237   9.999  1.00  0.00     0.245 C 
ATOM     30  O   UNL     1      -4.874   5.399   8.881  1.00  0.00    -0.273 OA
ATOM     31  H   UNL     1      -2.746   4.737  11.143  1.00  0.00     0.164 HD
BRANCH  29  32
ATOM     32  C   UNL     1      -5.271   5.170  11.263  1.00  0.00     0.200 C 
BRANCH  32  33
ATOM     33  N   UNL     1      -6.106   3.965  11.179  1.00  0.00    -0.340 N 
ATOM     34  C   UNL     1      -7.465   4.050  10.959  1.00  0.00     0.243 CG0
ATOM     35  O   UNL     1      -8.046   5.132  10.888  1.00  0.00    -0.273 OA
ATOM     36  H   UNL     1      -5.661   3.059  11.264  1.00  0.00     0.164 HD
ATOM     37  G   UNL     1      -8.236   2.722  11.030  1.00  0.00     0.000 G0
ENDBRANCH  32  33
BRANCH  32  38
ATOM     38  C   UNL     1      -4.418   5.223  12.552  1.00  0.00     0.143 C 
ATOM     39  C   UNL     1      -5.153   5.786  13.762  1.00  0.00     0.041 C 
BRANCH  38  40
ATOM     40  O   UNL     1      -3.928   3.906  12.873  1.00  0.00    -0.391 OA
ATOM     41  H   UNL     1      -4.323   3.664  13.732  1.00  0.00     0.211 HD
ENDBRANCH  38  40
ENDBRANCH  32  38
ENDBRANCH  29  32
ENDBRANCH  27  28
BRANCH  27  42
ATOM     42  C   UNL     1      -0.854   5.775   9.355  1.00  0.00     0.015 C 
ATOM     43  C   UNL     1       0.199   5.198  10.308  1.00  0.00     0.010 C 
ATOM     44  C   UNL     1      -0.198   6.222   8.045  1.00  0.00     0.010 C 
ENDBRANCH  27  42
ENDBRANCH   3  27
TORSDOF 5
ENDMDL
MODEL 14
REMARK VINA RESULT:    -5.434      3.476      7.327
REMARK INTER + INTRA:         -12.112
REMARK INTER:                  -9.834
REMARK INTRA:                  -2.278
REMARK UNBOUND:                -2.388
REMARK SMILES CC[C@H](C)[C@H]1NC(=O)c2coc(n2)[C@H](C(C)C)NC(=O)[C@H]([C@@H](C)O)NC(=O)[C@H](C)NC(=O)c2csc1n2
REMARK SMILES IDX 11 1 13 2 12 3 9 4 10 5 7 6 6 7 8 8 5 10 36 11 35 12 34 13
REMARK SMILES IDX 37 14 33 15 31 16 32 17 30 18 28 20 29 21 3 23 4 24 2 25
REMARK SMILES IDX 1 26 14 27 18 28 19 29 20 30 21 32 25 33 26 34 27 35 22 38
REMARK SMILES IDX 23 39 24 40 15 42 16 43 17 44
REMARK H PARENT 6 9 30 19 18 31 25 36 24 41
REMARK Flexibility Score:   94.900
ROOT
ATOM      1  O   UNL     1      -0.129   1.402   6.778  1.00  0.00    -0.446 OA
ATOM      2  N   UNL     1      -2.322   0.886   6.704  1.00  0.00    -0.207 NA
ATOM      3  C   UNL     1      -1.421   1.852   6.716  1.00  0.00     0.217 A 
ATOM      4  C   UNL     1      -1.573  -0.277   6.734  1.00  0.00     0.167 A 
ATOM      5  C   UNL     1      -0.238   0.044   6.778  1.00  0.00     0.231 A 
ENDROOT
BRANCH   4   6
ATOM      6  C   UNL     1      -2.166  -1.603   6.748  1.00  0.00     0.273 C 
ATOM      7  N   UNL     1      -3.534  -1.550   6.658  1.00  0.00    -0.341 N 
ATOM      8  O   UNL     1      -1.515  -2.635   6.854  1.00  0.00    -0.267 OA
ATOM      9  H   UNL     1      -3.941  -0.619   6.670  1.00  0.00     0.164 HD
BRANCH   7  10
ATOM     10  C   UNL     1      -4.388  -2.697   6.896  1.00  0.00     0.145 C 
BRANCH  10  11
ATOM     11  C   UNL     1      -5.407  -2.301   7.955  1.00  0.00     0.116 A 
ATOM     12  S   UNL     1      -5.803  -3.407   9.216  1.00  0.00    -0.124 S 
ATOM     13  C   UNL     1      -6.865  -2.248   9.889  1.00  0.00     0.101 A 
ATOM     14  N   UNL     1      -6.031  -1.135   8.008  1.00  0.00    -0.234 NA
ATOM     15  C   UNL     1      -6.861  -1.092   9.131  1.00  0.00     0.139 A 
BRANCH  15  16
ATOM     16  C   UNL     1      -7.647   0.098   9.462  1.00  0.00     0.271 C 
ATOM     17  O   UNL     1      -8.870   0.133   9.375  1.00  0.00    -0.267 OA
ATOM     18  N   UNL     1      -6.880   1.167   9.877  1.00  0.00    -0.339 N 
ATOM     19  H   UNL     1      -5.874   1.048   9.799  1.00  0.00     0.164 HD
BRANCH  18  20
ATOM     20  C   UNL     1      -7.486   2.456  10.183  1.00  0.00     0.168 CG0
ATOM     21  C   UNL     1      -7.883   2.548  11.658  1.00  0.00     0.041 C 
ATOM     22  G   UNL     1      -6.554   3.638   9.873  1.00  0.00     0.000 G0
ENDBRANCH  18  20
ENDBRANCH  15  16
ENDBRANCH  10  11
BRANCH  10  23
ATOM     23  C   UNL     1      -5.058  -3.210   5.594  1.00  0.00     0.015 C 
ATOM     24  C   UNL     1      -5.597  -2.080   4.701  1.00  0.00     0.010 C 
BRANCH  23  25
ATOM     25  C   UNL     1      -4.120  -4.103   4.750  1.00  0.00     0.002 C 
ATOM     26  C   UNL     1      -4.844  -4.972   3.732  1.00  0.00     0.004 C 
ENDBRANCH  23  25
ENDBRANCH  10  23
ENDBRANCH   7  10
ENDBRANCH   4   6
BRANCH   3  27
ATOM     27  C   UNL     1      -1.680   3.334   6.722  1.00  0.00     0.171 C 
BRANCH  27  28
ATOM     28  N   UNL     1      -2.362   3.663   7.970  1.00  0.00    -0.342 N 
ATOM     29  C   UNL     1      -3.623   4.213   8.009  1.00  0.00     0.245 C 
ATOM     30  O   UNL     1      -4.276   4.454   6.994  1.00  0.00    -0.273 OA
ATOM     31  H   UNL     1      -1.931   3.386   8.851  1.00  0.00     0.164 HD
BRANCH  29  32
ATOM     32  C   UNL     1      -4.231   4.371   9.419  1.00  0.00     0.200 C 
BRANCH  32  33
ATOM     33  N   UNL     1      -5.242   3.323   9.604  1.00  0.00    -0.340 N 
ATOM     34  C   UNL     1      -6.557   3.638   9.881  1.00  0.00     0.243 CG0
ATOM     35  O   UNL     1      -6.925   4.799  10.047  1.00  0.00    -0.273 OA
ATOM     36  H   UNL     1      -4.962   2.355   9.504  1.00  0.00     0.164 HD
ATOM     37  G   UNL     1      -7.478   2.446  10.187  1.00  0.00     0.000 G0
ENDBRANCH  32  33
BRANCH  32  38
ATOM     38  C   UNL     1      -3.136   4.352  10.511  1.00  0.00     0.143 C 
ATOM     39  C   UNL     1      -2.737   5.734  11.016  1.00  0.00     0.041 C 
BRANCH  38  40
ATOM     40  O   UNL     1      -3.569   3.553  11.629  1.00  0.00    -0.391 OA
ATOM     41  H   UNL     1      -3.951   2.735  11.257  1.00  0.00     0.211 HD
ENDBRANCH  38  40
ENDBRANCH  32  38
ENDBRANCH  29  32
ENDBRANCH  27  28
BRANCH  27  42
ATOM     42  C   UNL     1      -0.473   4.270   6.469  1.00  0.00     0.015 C 
ATOM     43  C   UNL     1      -0.757   5.490   5.585  1.00  0.00     0.010 C 
ATOM     44  C   UNL     1       0.198   4.705   7.776  1.00  0.00     0.010 C 
ENDBRANCH  27  42
ENDBRANCH   3  27
TORSDOF 5
ENDMDL
MODEL 15
REMARK VINA RESULT:    -5.429      5.508      8.386
REMARK INTER + INTRA:         -12.102
REMARK INTER:                  -9.496
REMARK INTRA:                  -2.606
REMARK UNBOUND:                -2.388
REMARK SMILES CC[C@H](C)[C@H]1NC(=O)c2coc(n2)[C@H](C(C)C)NC(=O)[C@H]([C@@H](C)O)NC(=O)[C@H](C)NC(=O)c2csc1n2
REMARK SMILES IDX 11 1 13 2 12 3 9 4 10 5 7 6 6 7 8 8 5 10 36 11 35 12 34 13
REMARK SMILES IDX 37 14 33 15 31 16 32 17 30 18 28 20 29 21 3 23 4 24 2 25
REMARK SMILES IDX 1 26 14 27 18 28 19 29 20 30 21 32 25 33 26 34 27 35 22 38
REMARK SMILES IDX 23 39 24 40 15 42 16 43 17 44
REMARK H PARENT 6 9 30 19 18 31 25 36 24 41
REMARK Flexibility Score:   94.900
ROOT
ATOM      1  O   UNL     1      -3.756   2.640  12.203  1.00  0.00    -0.446 OA
ATOM      2  N   UNL     1      -5.888   2.106  12.701  1.00  0.00    -0.207 NA
ATOM      3  C   UNL     1      -4.661   1.658  12.505  1.00  0.00     0.217 A 
ATOM      4  C   UNL     1      -5.778   3.477  12.543  1.00  0.00     0.167 A 
ATOM      5  C   UNL     1      -4.477   3.796  12.240  1.00  0.00     0.231 A 
ENDROOT
BRANCH   4   6
ATOM      6  C   UNL     1      -6.908   4.382  12.659  1.00  0.00     0.273 C 
ATOM      7  N   UNL     1      -7.889   3.872  13.472  1.00  0.00    -0.341 N 
ATOM      8  O   UNL     1      -6.978   5.457  12.076  1.00  0.00    -0.267 OA
ATOM      9  H   UNL     1      -7.732   2.928  13.812  1.00  0.00     0.164 HD
BRANCH   7  10
ATOM     10  C   UNL     1      -9.217   4.445  13.566  1.00  0.00     0.145 C 
BRANCH  10  11
ATOM     11  C   UNL     1     -10.186   3.471  12.911  1.00  0.00     0.116 A 
ATOM     12  S   UNL     1     -11.841   3.458  13.393  1.00  0.00    -0.124 S 
ATOM     13  C   UNL     1     -12.158   2.234  12.243  1.00  0.00     0.101 A 
ATOM     14  N   UNL     1      -9.867   2.609  11.960  1.00  0.00    -0.234 NA
ATOM     15  C   UNL     1     -11.004   1.904  11.558  1.00  0.00     0.139 A 
BRANCH  15  16
ATOM     16  C   UNL     1     -10.952   0.906  10.487  1.00  0.00     0.271 C 
ATOM     17  O   UNL     1     -11.958   0.423   9.979  1.00  0.00    -0.267 OA
ATOM     18  N   UNL     1      -9.669   0.568  10.111  1.00  0.00    -0.339 N 
ATOM     19  H   UNL     1      -8.922   0.954  10.683  1.00  0.00     0.164 HD
BRANCH  18  20
ATOM     20  C   UNL     1      -9.423  -0.458   9.107  1.00  0.00     0.168 CG0
ATOM     21  C   UNL     1      -8.785   0.135   7.849  1.00  0.00     0.041 C 
ATOM     22  G   UNL     1      -8.502  -1.579   9.617  1.00  0.00     0.000 G0
ENDBRANCH  18  20
ENDBRANCH  15  16
ENDBRANCH  10  11
BRANCH  10  23
ATOM     23  C   UNL     1      -9.610   4.776  15.031  1.00  0.00     0.015 C 
ATOM     24  C   UNL     1      -8.889   3.899  16.068  1.00  0.00     0.010 C 
BRANCH  23  25
ATOM     25  C   UNL     1      -9.378   6.260  15.391  1.00  0.00     0.002 C 
ATOM     26  C   UNL     1      -9.619   7.222  14.236  1.00  0.00     0.004 C 
ENDBRANCH  23  25
ENDBRANCH  10  23
ENDBRANCH   7  10
ENDBRANCH   4   6
BRANCH   3  27
ATOM     27  C   UNL     1      -4.203   0.226  12.531  1.00  0.00     0.171 C 
BRANCH  27  28
ATOM     28  N   UNL     1      -4.852  -0.470  11.424  1.00  0.00    -0.342 N 
ATOM     29  C   UNL     1      -5.461  -1.697  11.567  1.00  0.00     0.245 C 
ATOM     30  O   UNL     1      -5.517  -2.291  12.642  1.00  0.00    -0.273 OA
ATOM     31  H   UNL     1      -4.946   0.012  10.530  1.00  0.00     0.164 HD
BRANCH  29  32
ATOM     32  C   UNL     1      -6.204  -2.213  10.316  1.00  0.00     0.200 C 
BRANCH  32  33
ATOM     33  N   UNL     1      -7.208  -1.214   9.932  1.00  0.00    -0.340 N 
ATOM     34  C   UNL     1      -8.506  -1.580   9.639  1.00  0.00     0.243 CG0
ATOM     35  O   UNL     1      -8.862  -2.757   9.624  1.00  0.00    -0.273 OA
ATOM     36  H   UNL     1      -6.937  -0.239   9.905  1.00  0.00     0.164 HD
ATOM     37  G   UNL     1      -9.414  -0.455   9.119  1.00  0.00     0.000 G0
ENDBRANCH  32  33
BRANCH  32  38
ATOM     38  C   UNL     1      -5.219  -2.550   9.172  1.00  0.00     0.143 C 
ATOM     39  C   UNL     1      -4.994  -1.407   8.189  1.00  0.00     0.041 C 
BRANCH  38  40
ATOM     40  O   UNL     1      -3.948  -2.953   9.719  1.00  0.00    -0.391 OA
ATOM     41  H   UNL     1      -3.330  -2.214   9.562  1.00  0.00     0.211 HD
ENDBRANCH  38  40
ENDBRANCH  32  38
ENDBRANCH  29  32
ENDBRANCH  27  28
BRANCH  27  42
ATOM     42  C   UNL     1      -2.677  -0.036  12.552  1.00  0.00     0.015 C 
ATOM     43  C   UNL     1      -2.222  -1.222  13.410  1.00  0.00     0.010 C 
ATOM     44  C   UNL     1      -2.096  -0.148  11.139  1.00  0.00     0.010 C 
ENDBRANCH  27  42
ENDBRANCH   3  27
TORSDOF 5
ENDMDL
MODEL 16
REMARK VINA RESULT:    -5.427      2.601      6.756
REMARK INTER + INTRA:         -12.098
REMARK INTER:                 -10.036
REMARK INTRA:                  -2.061
REMARK UNBOUND:                -2.388
REMARK SMILES CC[C@H](C)[C@H]1NC(=O)c2coc(n2)[C@H](C(C)C)NC(=O)[C@H]([C@@H](C)O)NC(=O)[C@H](C)NC(=O)c2csc1n2
REMARK SMILES IDX 11 1 13 2 12 3 9 4 10 5 7 6 6 7 8 8 5 10 36 11 35 12 34 13
REMARK SMILES IDX 37 14 33 15 31 16 32 17 30 18 28 20 29 21 3 23 4 24 2 25
REMARK SMILES IDX 1 26 14 27 18 28 19 29 20 30 21 32 25 33 26 34 27 35 22 38
REMARK SMILES IDX 23 39 24 40 15 42 16 43 17 44
REMARK H PARENT 6 9 30 19 18 31 25 36 24 41
REMARK Flexibility Score:   94.900
ROOT
ATOM      1  O   UNL     1      -3.664   2.939   5.752  1.00  0.00    -0.446 OA
ATOM      2  N   UNL     1      -3.317   1.691   7.597  1.00  0.00    -0.207 NA
ATOM      3  C   UNL     1      -3.733   2.849   7.117  1.00  0.00     0.217 A 
ATOM      4  C   UNL     1      -2.975   0.961   6.472  1.00  0.00     0.167 A 
ATOM      5  C   UNL     1      -3.189   1.726   5.352  1.00  0.00     0.231 A 
ENDROOT
BRANCH   4   6
ATOM      6  C   UNL     1      -2.446  -0.391   6.533  1.00  0.00     0.273 C 
ATOM      7  N   UNL     1      -3.446  -1.330   6.550  1.00  0.00    -0.341 N 
ATOM      8  O   UNL     1      -1.249  -0.648   6.589  1.00  0.00    -0.267 OA
ATOM      9  H   UNL     1      -4.393  -0.964   6.593  1.00  0.00     0.164 HD
BRANCH   7  10
ATOM     10  C   UNL     1      -3.214  -2.728   6.855  1.00  0.00     0.145 C 
BRANCH  10  11
ATOM     11  C   UNL     1      -3.227  -2.877   8.370  1.00  0.00     0.116 A 
ATOM     12  S   UNL     1      -1.975  -3.767   9.151  1.00  0.00    -0.124 S 
ATOM     13  C   UNL     1      -2.683  -3.418  10.667  1.00  0.00     0.101 A 
ATOM     14  N   UNL     1      -4.136  -2.354   9.176  1.00  0.00    -0.234 NA
ATOM     15  C   UNL     1      -3.819  -2.648  10.504  1.00  0.00     0.139 A 
BRANCH  15  16
ATOM     16  C   UNL     1      -4.637  -2.161  11.617  1.00  0.00     0.271 C 
ATOM     17  O   UNL     1      -5.517  -2.835  12.140  1.00  0.00    -0.267 OA
ATOM     18  N   UNL     1      -4.319  -0.879  12.014  1.00  0.00    -0.339 N 
ATOM     19  H   UNL     1      -3.649  -0.386  11.429  1.00  0.00     0.164 HD
BRANCH  18  20
ATOM     20  C   UNL     1      -5.073  -0.205  13.062  1.00  0.00     0.168 CG0
ATOM     21  C   UNL     1      -4.461  -0.461  14.440  1.00  0.00     0.041 C 
ATOM     22  G   UNL     1      -5.147   1.317  12.856  1.00  0.00     0.000 G0
ENDBRANCH  18  20
ENDBRANCH  15  16
ENDBRANCH  10  11
BRANCH  10  23
ATOM     23  C   UNL     1      -4.245  -3.658   6.161  1.00  0.00     0.015 C 
ATOM     24  C   UNL     1      -5.435  -2.899   5.551  1.00  0.00     0.010 C 
BRANCH  23  25
ATOM     25  C   UNL     1      -3.609  -4.543   5.066  1.00  0.00     0.002 C 
ATOM     26  C   UNL     1      -2.113  -4.767   5.243  1.00  0.00     0.004 C 
ENDBRANCH  23  25
ENDBRANCH  10  23
ENDBRANCH   7  10
ENDBRANCH   4   6
BRANCH   3  27
ATOM     27  C   UNL     1      -4.204   4.041   7.905  1.00  0.00     0.171 C 
BRANCH  27  28
ATOM     28  N   UNL     1      -3.857   3.815   9.304  1.00  0.00    -0.342 N 
ATOM     29  C   UNL     1      -4.804   3.654  10.291  1.00  0.00     0.245 C 
ATOM     30  O   UNL     1      -6.012   3.672  10.064  1.00  0.00    -0.273 OA
ATOM     31  H   UNL     1      -2.878   3.674   9.550  1.00  0.00     0.164 HD
BRANCH  29  32
ATOM     32  C   UNL     1      -4.247   3.297  11.686  1.00  0.00     0.200 C 
BRANCH  32  33
ATOM     33  N   UNL     1      -4.366   1.846  11.872  1.00  0.00    -0.340 N 
ATOM     34  C   UNL     1      -5.149   1.314  12.876  1.00  0.00     0.243 CG0
ATOM     35  O   UNL     1      -5.727   2.026  13.695  1.00  0.00    -0.273 OA
ATOM     36  H   UNL     1      -3.876   1.233  11.231  1.00  0.00     0.164 HD
ATOM     37  G   UNL     1      -5.073  -0.212  13.043  1.00  0.00     0.000 G0
ENDBRANCH  32  33
BRANCH  32  38
ATOM     38  C   UNL     1      -2.800   3.811  11.866  1.00  0.00     0.143 C 
ATOM     39  C   UNL     1      -1.748   2.974  11.148  1.00  0.00     0.041 C 
BRANCH  38  40
ATOM     40  O   UNL     1      -2.702   5.175  11.412  1.00  0.00    -0.391 OA
ATOM     41  H   UNL     1      -3.089   5.200  10.516  1.00  0.00     0.211 HD
ENDBRANCH  38  40
ENDBRANCH  32  38
ENDBRANCH  29  32
ENDBRANCH  27  28
BRANCH  27  42
ATOM     42  C   UNL     1      -3.747   5.440   7.423  1.00  0.00     0.015 C 
ATOM     43  C   UNL     1      -4.431   6.629   8.106  1.00  0.00     0.010 C 
ATOM     44  C   UNL     1      -2.224   5.597   7.482  1.00  0.00     0.010 C 
ENDBRANCH  27  42
ENDBRANCH   3  27
TORSDOF 5
ENDMDL
MODEL 17
REMARK VINA RESULT:    -5.396      2.654      5.666
REMARK INTER + INTRA:         -12.043
REMARK INTER:                  -9.637
REMARK INTRA:                  -2.406
REMARK UNBOUND:                -2.388
REMARK SMILES CC[C@H](C)[C@H]1NC(=O)c2coc(n2)[C@H](C(C)C)NC(=O)[C@H]([C@@H](C)O)NC(=O)[C@H](C)NC(=O)c2csc1n2
REMARK SMILES IDX 11 1 13 2 12 3 9 4 10 5 7 6 6 7 8 8 5 10 36 11 35 12 34 13
REMARK SMILES IDX 37 14 33 15 31 16 32 17 30 18 28 20 29 21 3 23 4 24 2 25
REMARK SMILES IDX 1 26 14 27 18 28 19 29 20 30 21 32 25 33 26 34 27 35 22 38
REMARK SMILES IDX 23 39 24 40 15 42 16 43 17 44
REMARK H PARENT 6 9 30 19 18 31 25 36 24 41
REMARK Flexibility Score:   94.900
ROOT
ATOM      1  O   UNL     1      -3.941   3.036  12.706  1.00  0.00    -0.446 OA
ATOM      2  N   UNL     1      -4.012   3.071  10.453  1.00  0.00    -0.207 NA
ATOM      3  C   UNL     1      -4.676   2.829  11.569  1.00  0.00     0.217 A 
ATOM      4  C   UNL     1      -2.765   3.491  10.885  1.00  0.00     0.167 A 
ATOM      5  C   UNL     1      -2.729   3.467  12.258  1.00  0.00     0.231 A 
ENDROOT
BRANCH   4   6
ATOM      6  C   UNL     1      -1.692   3.854   9.977  1.00  0.00     0.273 C 
ATOM      7  N   UNL     1      -1.931   3.409   8.701  1.00  0.00    -0.341 N 
ATOM      8  O   UNL     1      -0.687   4.463  10.324  1.00  0.00    -0.267 OA
ATOM      9  H   UNL     1      -2.762   2.838   8.583  1.00  0.00     0.164 HD
BRANCH   7  10
ATOM     10  C   UNL     1      -0.923   3.415   7.659  1.00  0.00     0.145 C 
BRANCH  10  11
ATOM     11  C   UNL     1      -0.715   1.975   7.211  1.00  0.00     0.116 A 
ATOM     12  S   UNL     1       0.564   1.596   6.121  1.00  0.00    -0.124 S 
ATOM     13  C   UNL     1       0.128  -0.055   6.196  1.00  0.00     0.101 A 
ATOM     14  N   UNL     1      -1.445   0.945   7.608  1.00  0.00    -0.234 NA
ATOM     15  C   UNL     1      -0.953  -0.232   7.039  1.00  0.00     0.139 A 
BRANCH  15  16
ATOM     16  C   UNL     1      -1.547  -1.537   7.334  1.00  0.00     0.271 C 
ATOM     17  O   UNL     1      -1.392  -2.517   6.614  1.00  0.00    -0.267 OA
ATOM     18  N   UNL     1      -2.292  -1.553   8.495  1.00  0.00    -0.339 N 
ATOM     19  H   UNL     1      -2.436  -0.651   8.943  1.00  0.00     0.164 HD
BRANCH  18  20
ATOM     20  C   UNL     1      -3.013  -2.747   8.913  1.00  0.00     0.168 CG0
ATOM     21  C   UNL     1      -2.427  -3.329  10.201  1.00  0.00     0.041 C 
ATOM     22  G   UNL     1      -4.509  -2.485   9.153  1.00  0.00     0.000 G0
ENDBRANCH  18  20
ENDBRANCH  15  16
ENDBRANCH  10  11
BRANCH  10  23
ATOM     23  C   UNL     1      -1.304   4.351   6.481  1.00  0.00     0.015 C 
ATOM     24  C   UNL     1      -2.692   4.052   5.890  1.00  0.00     0.010 C 
BRANCH  23  25
ATOM     25  C   UNL     1      -1.241   5.848   6.862  1.00  0.00     0.002 C 
ATOM     26  C   UNL     1       0.112   6.496   6.599  1.00  0.00     0.004 C 
ENDBRANCH  23  25
ENDBRANCH  10  23
ENDBRANCH   7  10
ENDBRANCH   4   6
BRANCH   3  27
ATOM     27  C   UNL     1      -6.085   2.318  11.693  1.00  0.00     0.171 C 
BRANCH  27  28
ATOM     28  N   UNL     1      -6.039   0.861  11.629  1.00  0.00    -0.342 N 
ATOM     29  C   UNL     1      -6.432   0.148  10.519  1.00  0.00     0.245 C 
ATOM     30  O   UNL     1      -6.838   0.688   9.491  1.00  0.00    -0.273 OA
ATOM     31  H   UNL     1      -5.607   0.350  12.399  1.00  0.00     0.164 HD
BRANCH  29  32
ATOM     32  C   UNL     1      -6.189  -1.374  10.592  1.00  0.00     0.200 C 
BRANCH  32  33
ATOM     33  N   UNL     1      -4.801  -1.639  10.192  1.00  0.00    -0.340 N 
ATOM     34  C   UNL     1      -4.508  -2.478   9.137  1.00  0.00     0.243 CG0
ATOM     35  O   UNL     1      -5.385  -3.088   8.529  1.00  0.00    -0.273 OA
ATOM     36  H   UNL     1      -4.055  -1.174  10.695  1.00  0.00     0.164 HD
ATOM     37  G   UNL     1      -3.016  -2.774   8.916  1.00  0.00     0.000 G0
ENDBRANCH  32  33
BRANCH  32  38
ATOM     38  C   UNL     1      -6.531  -1.935  11.992  1.00  0.00     0.143 C 
ATOM     39  C   UNL     1      -8.004  -2.276  12.183  1.00  0.00     0.041 C 
BRANCH  38  40
ATOM     40  O   UNL     1      -5.740  -3.110  12.259  1.00  0.00    -0.391 OA
ATOM     41  H   UNL     1      -6.312  -3.879  12.075  1.00  0.00     0.211 HD
ENDBRANCH  38  40
ENDBRANCH  32  38
ENDBRANCH  29  32
ENDBRANCH  27  28
BRANCH  27  42
ATOM     42  C   UNL     1      -6.919   2.809  12.901  1.00  0.00     0.015 C 
ATOM     43  C   UNL     1      -8.273   3.441  12.558  1.00  0.00     0.010 C 
ATOM     44  C   UNL     1      -7.097   1.713  13.957  1.00  0.00     0.010 C 
ENDBRANCH  27  42
ENDBRANCH   3  27
TORSDOF 5
ENDMDL
MODEL 18
REMARK VINA RESULT:    -5.394      5.907      8.196
REMARK INTER + INTRA:         -12.038
REMARK INTER:                  -9.864
REMARK INTRA:                  -2.174
REMARK UNBOUND:                -2.388
REMARK SMILES CC[C@H](C)[C@H]1NC(=O)c2coc(n2)[C@H](C(C)C)NC(=O)[C@H]([C@@H](C)O)NC(=O)[C@H](C)NC(=O)c2csc1n2
REMARK SMILES IDX 11 1 13 2 12 3 9 4 10 5 7 6 6 7 8 8 5 10 36 11 35 12 34 13
REMARK SMILES IDX 37 14 33 15 31 16 32 17 30 18 28 20 29 21 3 23 4 24 2 25
REMARK SMILES IDX 1 26 14 27 18 28 19 29 20 30 21 32 25 33 26 34 27 35 22 38
REMARK SMILES IDX 23 39 24 40 15 42 16 43 17 44
REMARK H PARENT 6 9 30 19 18 31 25 36 24 41
REMARK Flexibility Score:   94.900
ROOT
ATOM      1  O   UNL     1     -11.365   0.863  13.529  1.00  0.00    -0.446 OA
ATOM      2  N   UNL     1      -9.855   2.440  12.969  1.00  0.00    -0.207 NA
ATOM      3  C   UNL     1     -10.502   1.353  12.586  1.00  0.00     0.217 A 
ATOM      4  C   UNL     1     -10.345   2.696  14.238  1.00  0.00     0.167 A 
ATOM      5  C   UNL     1     -11.264   1.733  14.573  1.00  0.00     0.231 A 
ENDROOT
BRANCH   4   6
ATOM      6  C   UNL     1      -9.892   3.810  15.052  1.00  0.00     0.273 C 
ATOM      7  N   UNL     1      -9.263   4.770  14.300  1.00  0.00    -0.341 N 
ATOM      8  O   UNL     1     -10.036   3.864  16.268  1.00  0.00    -0.267 OA
ATOM      9  H   UNL     1      -9.134   4.545  13.317  1.00  0.00     0.164 HD
BRANCH   7  10
ATOM     10  C   UNL     1      -8.502   5.859  14.880  1.00  0.00     0.145 C 
BRANCH  10  11
ATOM     11  C   UNL     1      -7.046   5.420  14.945  1.00  0.00     0.116 A 
ATOM     12  S   UNL     1      -5.941   6.270  15.959  1.00  0.00    -0.124 S 
ATOM     13  C   UNL     1      -4.698   5.193  15.495  1.00  0.00     0.101 A 
ATOM     14  N   UNL     1      -6.532   4.398  14.281  1.00  0.00    -0.234 NA
ATOM     15  C   UNL     1      -5.181   4.251  14.607  1.00  0.00     0.139 A 
BRANCH  15  16
ATOM     16  C   UNL     1      -4.367   3.172  14.044  1.00  0.00     0.271 C 
ATOM     17  O   UNL     1      -3.247   3.356  13.579  1.00  0.00    -0.267 OA
ATOM     18  N   UNL     1      -4.980   1.937  14.092  1.00  0.00    -0.339 N 
ATOM     19  H   UNL     1      -5.949   1.934  14.399  1.00  0.00     0.164 HD
BRANCH  18  20
ATOM     20  C   UNL     1      -4.347   0.758  13.518  1.00  0.00     0.168 CG0
ATOM     21  C   UNL     1      -4.476  -0.451  14.446  1.00  0.00     0.041 C 
ATOM     22  G   UNL     1      -4.941   0.370  12.154  1.00  0.00     0.000 G0
ENDBRANCH  18  20
ENDBRANCH  15  16
ENDBRANCH  10  11
BRANCH  10  23
ATOM     23  C   UNL     1      -8.685   7.185  14.096  1.00  0.00     0.015 C 
ATOM     24  C   UNL     1      -8.747   8.425  15.004  1.00  0.00     0.010 C 
BRANCH  23  25
ATOM     25  C   UNL     1      -7.589   7.406  13.030  1.00  0.00     0.002 C 
ATOM     26  C   UNL     1      -8.049   8.222  11.830  1.00  0.00     0.004 C 
ENDBRANCH  23  25
ENDBRANCH  10  23
ENDBRANCH   7  10
ENDBRANCH   4   6
BRANCH   3  27
ATOM     27  C   UNL     1     -10.340   0.611  11.288  1.00  0.00     0.171 C 
BRANCH  27  28
ATOM     28  N   UNL     1      -9.137  -0.208  11.388  1.00  0.00    -0.342 N 
ATOM     29  C   UNL     1      -7.994   0.050  10.665  1.00  0.00     0.245 C 
ATOM     30  O   UNL     1      -7.897   1.002   9.892  1.00  0.00    -0.273 OA
ATOM     31  H   UNL     1      -9.103  -0.944  12.093  1.00  0.00     0.164 HD
BRANCH  29  32
ATOM     32  C   UNL     1      -6.784  -0.847  11.001  1.00  0.00     0.200 C 
BRANCH  32  33
ATOM     33  N   UNL     1      -6.147  -0.325  12.216  1.00  0.00    -0.340 N 
ATOM     34  C   UNL     1      -4.951   0.360  12.159  1.00  0.00     0.243 CG0
ATOM     35  O   UNL     1      -4.336   0.508  11.105  1.00  0.00    -0.273 OA
ATOM     36  H   UNL     1      -6.614  -0.458  13.105  1.00  0.00     0.164 HD
ATOM     37  G   UNL     1      -4.329   0.729  13.516  1.00  0.00     0.000 G0
ENDBRANCH  32  33
BRANCH  32  38
ATOM     38  C   UNL     1      -7.199  -2.331  11.129  1.00  0.00     0.143 C 
ATOM     39  C   UNL     1      -6.110  -3.319  10.727  1.00  0.00     0.041 C 
BRANCH  38  40
ATOM     40  O   UNL     1      -7.611  -2.614  12.480  1.00  0.00    -0.391 OA
ATOM     41  H   UNL     1      -8.515  -2.260  12.577  1.00  0.00     0.211 HD
ENDBRANCH  38  40
ENDBRANCH  32  38
ENDBRANCH  29  32
ENDBRANCH  27  28
BRANCH  27  42
ATOM     42  C   UNL     1     -11.549  -0.212  10.781  1.00  0.00     0.015 C 
ATOM     43  C   UNL     1     -12.750   0.608  10.294  1.00  0.00     0.010 C 
ATOM     44  C   UNL     1     -11.140  -1.236   9.718  1.00  0.00     0.010 C 
ENDBRANCH  27  42
ENDBRANCH   3  27
TORSDOF 5
ENDMDL
MODEL 19
REMARK VINA RESULT:    -5.380      3.358      6.895
REMARK INTER + INTRA:         -12.015
REMARK INTER:                  -9.937
REMARK INTRA:                  -2.078
REMARK UNBOUND:                -2.388
REMARK SMILES CC[C@H](C)[C@H]1NC(=O)c2coc(n2)[C@H](C(C)C)NC(=O)[C@H]([C@@H](C)O)NC(=O)[C@H](C)NC(=O)c2csc1n2
REMARK SMILES IDX 11 1 13 2 12 3 9 4 10 5 7 6 6 7 8 8 5 10 36 11 35 12 34 13
REMARK SMILES IDX 37 14 33 15 31 16 32 17 30 18 28 20 29 21 3 23 4 24 2 25
REMARK SMILES IDX 1 26 14 27 18 28 19 29 20 30 21 32 25 33 26 34 27 35 22 38
REMARK SMILES IDX 23 39 24 40 15 42 16 43 17 44
REMARK H PARENT 6 9 30 19 18 31 25 36 24 41
REMARK Flexibility Score:   94.900
ROOT
ATOM      1  O   UNL     1      -3.876   0.378   5.390  1.00  0.00    -0.446 OA
ATOM      2  N   UNL     1      -3.405  -0.174   7.524  1.00  0.00    -0.207 NA
ATOM      3  C   UNL     1      -2.983   0.429   6.427  1.00  0.00     0.217 A 
ATOM      4  C   UNL     1      -4.669  -0.630   7.196  1.00  0.00     0.167 A 
ATOM      5  C   UNL     1      -4.951  -0.290   5.895  1.00  0.00     0.231 A 
ENDROOT
BRANCH   4   6
ATOM      6  C   UNL     1      -5.508  -1.376   8.118  1.00  0.00     0.273 C 
ATOM      7  N   UNL     1      -6.663  -0.699   8.418  1.00  0.00    -0.341 N 
ATOM      8  O   UNL     1      -5.200  -2.466   8.584  1.00  0.00    -0.267 OA
ATOM      9  H   UNL     1      -6.740   0.236   8.028  1.00  0.00     0.164 HD
BRANCH   7  10
ATOM     10  C   UNL     1      -7.555  -1.092   9.491  1.00  0.00     0.145 C 
BRANCH  10  11
ATOM     11  C   UNL     1      -7.327  -0.135  10.653  1.00  0.00     0.116 A 
ATOM     12  S   UNL     1      -8.472  -0.065  11.939  1.00  0.00    -0.124 S 
ATOM     13  C   UNL     1      -7.503   1.102  12.727  1.00  0.00     0.101 A 
ATOM     14  N   UNL     1      -6.284   0.668  10.780  1.00  0.00    -0.234 NA
ATOM     15  C   UNL     1      -6.371   1.373  11.983  1.00  0.00     0.139 A 
BRANCH  15  16
ATOM     16  C   UNL     1      -5.328   2.312  12.402  1.00  0.00     0.271 C 
ATOM     17  O   UNL     1      -5.238   2.736  13.549  1.00  0.00    -0.267 OA
ATOM     18  N   UNL     1      -4.464   2.665  11.387  1.00  0.00    -0.339 N 
ATOM     19  H   UNL     1      -4.711   2.333  10.458  1.00  0.00     0.164 HD
BRANCH  18  20
ATOM     20  C   UNL     1      -3.405   3.641  11.603  1.00  0.00     0.168 CG0
ATOM     21  C   UNL     1      -2.122   2.970  12.097  1.00  0.00     0.041 C 
ATOM     22  G   UNL     1      -3.061   4.436  10.333  1.00  0.00     0.000 G0
ENDBRANCH  18  20
ENDBRANCH  15  16
ENDBRANCH  10  11
BRANCH  10  23
ATOM     23  C   UNL     1      -9.038  -1.127   9.037  1.00  0.00     0.015 C 
ATOM     24  C   UNL     1      -9.496   0.171   8.350  1.00  0.00     0.010 C 
BRANCH  23  25
ATOM     25  C   UNL     1      -9.349  -2.317   8.101  1.00  0.00     0.002 C 
ATOM     26  C   UNL     1      -9.992  -1.915   6.781  1.00  0.00     0.004 C 
ENDBRANCH  23  25
ENDBRANCH  10  23
ENDBRANCH   7  10
ENDBRANCH   4   6
BRANCH   3  27
ATOM     27  C   UNL     1      -1.649   1.089   6.210  1.00  0.00     0.171 C 
BRANCH  27  28
ATOM     28  N   UNL     1      -1.523   2.172   7.181  1.00  0.00    -0.342 N 
ATOM     29  C   UNL     1      -2.019   3.436   6.957  1.00  0.00     0.245 C 
ATOM     30  O   UNL     1      -2.619   3.744   5.928  1.00  0.00    -0.273 OA
ATOM     31  H   UNL     1      -1.141   1.962   8.102  1.00  0.00     0.164 HD
BRANCH  29  32
ATOM     32  C   UNL     1      -1.906   4.410   8.149  1.00  0.00     0.200 C 
BRANCH  32  33
ATOM     33  N   UNL     1      -2.421   3.734   9.347  1.00  0.00    -0.340 N 
ATOM     34  C   UNL     1      -3.065   4.437  10.344  1.00  0.00     0.243 CG0
ATOM     35  O   UNL     1      -3.179   5.660  10.307  1.00  0.00    -0.273 OA
ATOM     36  H   UNL     1      -2.314   2.729   9.420  1.00  0.00     0.164 HD
ATOM     37  G   UNL     1      -3.429   3.628  11.600  1.00  0.00     0.000 G0
ENDBRANCH  32  33
BRANCH  32  38
ATOM     38  C   UNL     1      -0.458   4.924   8.323  1.00  0.00     0.143 C 
ATOM     39  C   UNL     1       0.202   5.376   7.026  1.00  0.00     0.041 C 
BRANCH  38  40
ATOM     40  O   UNL     1      -0.432   6.014   9.265  1.00  0.00    -0.391 OA
ATOM     41  H   UNL     1      -0.148   5.637  10.120  1.00  0.00     0.211 HD
ENDBRANCH  38  40
ENDBRANCH  32  38
ENDBRANCH  29  32
ENDBRANCH  27  28
BRANCH  27  42
ATOM     42  C   UNL     1      -0.396   0.180   6.207  1.00  0.00     0.015 C 
ATOM     43  C   UNL     1       0.861   0.788   5.573  1.00  0.00     0.010 C 
ATOM     44  C   UNL     1      -0.077  -0.362   7.604  1.00  0.00     0.010 C 
ENDBRANCH  27  42
ENDBRANCH   3  27
TORSDOF 5
ENDMDL
MODEL 20
REMARK VINA RESULT:    -5.333      4.849      8.142
REMARK INTER + INTRA:         -11.931
REMARK INTER:                  -9.822
REMARK INTRA:                  -2.109
REMARK UNBOUND:                -2.388
REMARK SMILES CC[C@H](C)[C@H]1NC(=O)c2coc(n2)[C@H](C(C)C)NC(=O)[C@H]([C@@H](C)O)NC(=O)[C@H](C)NC(=O)c2csc1n2
REMARK SMILES IDX 11 1 13 2 12 3 9 4 10 5 7 6 6 7 8 8 5 10 36 11 35 12 34 13
REMARK SMILES IDX 37 14 33 15 31 16 32 17 30 18 28 20 29 21 3 23 4 24 2 25
REMARK SMILES IDX 1 26 14 27 18 28 19 29 20 30 21 32 25 33 26 34 27 35 22 38
REMARK SMILES IDX 23 39 24 40 15 42 16 43 17 44
REMARK H PARENT 6 9 30 19 18 31 25 36 24 41
REMARK Flexibility Score:   94.900
ROOT
ATOM      1  O   UNL     1      -4.405   1.997  13.467  1.00  0.00    -0.446 OA
ATOM      2  N   UNL     1      -5.407   1.451  11.523  1.00  0.00    -0.207 NA
ATOM      3  C   UNL     1      -4.362   1.266  12.310  1.00  0.00     0.217 A 
ATOM      4  C   UNL     1      -6.203   2.344  12.221  1.00  0.00     0.167 A 
ATOM      5  C   UNL     1      -5.586   2.672  13.403  1.00  0.00     0.231 A 
ENDROOT
BRANCH   4   6
ATOM      6  C   UNL     1      -7.468   2.845  11.712  1.00  0.00     0.273 C 
ATOM      7  N   UNL     1      -8.534   2.339  12.410  1.00  0.00    -0.341 N 
ATOM      8  O   UNL     1      -7.560   3.607  10.757  1.00  0.00    -0.267 OA
ATOM      9  H   UNL     1      -8.309   1.645  13.118  1.00  0.00     0.164 HD
BRANCH   7  10
ATOM     10  C   UNL     1      -9.908   2.474  11.966  1.00  0.00     0.145 C 
BRANCH  10  11
ATOM     11  C   UNL     1     -10.250   1.236  11.149  1.00  0.00     0.116 A 
ATOM     12  S   UNL     1     -11.901   0.806  10.901  1.00  0.00    -0.124 S 
ATOM     13  C   UNL     1     -11.403  -0.526   9.953  1.00  0.00     0.101 A 
ATOM     14  N   UNL     1      -9.366   0.436  10.578  1.00  0.00    -0.234 NA
ATOM     15  C   UNL     1     -10.025  -0.574   9.872  1.00  0.00     0.139 A 
BRANCH  15  16
ATOM     16  C   UNL     1      -9.290  -1.584   9.107  1.00  0.00     0.271 C 
ATOM     17  O   UNL     1      -9.843  -2.515   8.533  1.00  0.00    -0.267 OA
ATOM     18  N   UNL     1      -7.926  -1.384   9.098  1.00  0.00    -0.339 N 
ATOM     19  H   UNL     1      -7.582  -0.642   9.703  1.00  0.00     0.164 HD
BRANCH  18  20
ATOM     20  C   UNL     1      -7.029  -2.327   8.445  1.00  0.00     0.168 CG0
ATOM     21  C   UNL     1      -6.112  -1.621   7.444  1.00  0.00     0.041 C 
ATOM     22  G   UNL     1      -6.140  -3.089   9.441  1.00  0.00     0.000 G0
ENDBRANCH  18  20
ENDBRANCH  15  16
ENDBRANCH  10  11
BRANCH  10  23
ATOM     23  C   UNL     1     -10.888   2.692  13.149  1.00  0.00     0.015 C 
ATOM     24  C   UNL     1     -10.387   2.091  14.473  1.00  0.00     0.010 C 
BRANCH  23  25
ATOM     25  C   UNL     1     -11.226   4.182  13.378  1.00  0.00     0.002 C 
ATOM     26  C   UNL     1     -12.628   4.574  12.931  1.00  0.00     0.004 C 
ENDBRANCH  23  25
ENDBRANCH  10  23
ENDBRANCH   7  10
ENDBRANCH   4   6
BRANCH   3  27
ATOM     27  C   UNL     1      -3.161   0.403  12.033  1.00  0.00     0.171 C 
BRANCH  27  28
ATOM     28  N   UNL     1      -3.601  -0.729  11.226  1.00  0.00    -0.342 N 
ATOM     29  C   UNL     1      -3.331  -2.037  11.562  1.00  0.00     0.245 C 
ATOM     30  O   UNL     1      -2.711  -2.348  12.578  1.00  0.00    -0.273 OA
ATOM     31  H   UNL     1      -4.217  -0.556  10.432  1.00  0.00     0.164 HD
BRANCH  29  32
ATOM     32  C   UNL     1      -3.987  -3.100  10.657  1.00  0.00     0.200 C 
BRANCH  32  33
ATOM     33  N   UNL     1      -4.993  -2.435   9.820  1.00  0.00    -0.340 N 
ATOM     34  C   UNL     1      -6.151  -3.083   9.441  1.00  0.00     0.243 CG0
ATOM     35  O   UNL     1      -6.363  -4.258   9.731  1.00  0.00    -0.273 OA
ATOM     36  H   UNL     1      -4.832  -1.475   9.539  1.00  0.00     0.164 HD
ATOM     37  G   UNL     1      -7.049  -2.320   8.454  1.00  0.00     0.000 G0
ENDBRANCH  32  33
BRANCH  32  38
ATOM     38  C   UNL     1      -2.931  -3.871   9.833  1.00  0.00     0.143 C 
ATOM     39  C   UNL     1      -2.535  -3.185   8.530  1.00  0.00     0.041 C 
BRANCH  38  40
ATOM     40  O   UNL     1      -1.747  -4.086  10.626  1.00  0.00    -0.391 OA
ATOM     41  H   UNL     1      -1.020  -3.616  10.175  1.00  0.00     0.211 HD
ENDBRANCH  38  40
ENDBRANCH  32  38
ENDBRANCH  29  32
ENDBRANCH  27  28
BRANCH  27  42
ATOM     42  C   UNL     1      -1.916   1.090  11.421  1.00  0.00     0.015 C 
ATOM     43  C   UNL     1      -1.165   0.275  10.362  1.00  0.00     0.010 C 
ATOM     44  C   UNL     1      -2.239   2.489  10.884  1.00  0.00     0.010 C 
ENDBRANCH  27  42
ENDBRANCH   3  27
TORSDOF 5
ENDMDL
MODEL 21
REMARK VINA RESULT:    -5.268      3.019      6.695
REMARK INTER + INTRA:         -11.815
REMARK INTER:                  -9.442
REMARK INTRA:                  -2.373
REMARK UNBOUND:                -2.388
REMARK SMILES CC[C@H](C)[C@H]1NC(=O)c2coc(n2)[C@H](C(C)C)NC(=O)[C@H]([C@@H](C)O)NC(=O)[C@H](C)NC(=O)c2csc1n2
REMARK SMILES IDX 11 1 13 2 12 3 9 4 10 5 7 6 6 7 8 8 5 10 36 11 35 12 34 13
REMARK SMILES IDX 37 14 33 15 31 16 32 17 30 18 28 20 29 21 3 23 4 24 2 25
REMARK SMILES IDX 1 26 14 27 18 28 19 29 20 30 21 32 25 33 26 34 27 35 22 38
REMARK SMILES IDX 23 39 24 40 15 42 16 43 17 44
REMARK H PARENT 6 9 30 19 18 31 25 36 24 41
REMARK Flexibility Score:   94.900
ROOT
ATOM      1  O   UNL     1      -4.212   4.341   7.387  1.00  0.00    -0.446 OA
ATOM      2  N   UNL     1      -4.938   2.248   7.806  1.00  0.00    -0.207 NA
ATOM      3  C   UNL     1      -5.049   3.530   8.107  1.00  0.00     0.217 A 
ATOM      4  C   UNL     1      -3.983   2.216   6.804  1.00  0.00     0.167 A 
ATOM      5  C   UNL     1      -3.546   3.493   6.553  1.00  0.00     0.231 A 
ENDROOT
BRANCH   4   6
ATOM      6  C   UNL     1      -3.532   0.986   6.177  1.00  0.00     0.273 C 
ATOM      7  N   UNL     1      -4.295  -0.090   6.558  1.00  0.00    -0.341 N 
ATOM      8  O   UNL     1      -2.569   0.923   5.422  1.00  0.00    -0.267 OA
ATOM      9  H   UNL     1      -5.002   0.099   7.262  1.00  0.00     0.164 HD
BRANCH   7  10
ATOM     10  C   UNL     1      -3.920  -1.463   6.283  1.00  0.00     0.145 C 
BRANCH  10  11
ATOM     11  C   UNL     1      -3.148  -1.980   7.488  1.00  0.00     0.116 A 
ATOM     12  S   UNL     1      -1.601  -2.706   7.266  1.00  0.00    -0.124 S 
ATOM     13  C   UNL     1      -1.469  -2.924   8.956  1.00  0.00     0.101 A 
ATOM     14  N   UNL     1      -3.564  -1.908   8.742  1.00  0.00    -0.234 NA
ATOM     15  C   UNL     1      -2.592  -2.436   9.596  1.00  0.00     0.139 A 
BRANCH  15  16
ATOM     16  C   UNL     1      -2.771  -2.451  11.049  1.00  0.00     0.271 C 
ATOM     17  O   UNL     1      -2.500  -3.426  11.742  1.00  0.00    -0.267 OA
ATOM     18  N   UNL     1      -3.267  -1.269  11.556  1.00  0.00    -0.339 N 
ATOM     19  H   UNL     1      -3.555  -0.577  10.868  1.00  0.00     0.164 HD
BRANCH  18  20
ATOM     20  C   UNL     1      -3.572  -1.124  12.973  1.00  0.00     0.168 CG0
ATOM     21  C   UNL     1      -2.296  -0.992  13.806  1.00  0.00     0.041 C 
ATOM     22  G   UNL     1      -4.456   0.099  13.268  1.00  0.00     0.000 G0
ENDBRANCH  18  20
ENDBRANCH  15  16
ENDBRANCH  10  11
BRANCH  10  23
ATOM     23  C   UNL     1      -5.148  -2.348   5.942  1.00  0.00     0.015 C 
ATOM     24  C   UNL     1      -5.848  -1.942   4.635  1.00  0.00     0.010 C 
BRANCH  23  25
ATOM     25  C   UNL     1      -4.799  -3.852   5.870  1.00  0.00     0.002 C 
ATOM     26  C   UNL     1      -5.128  -4.500   4.531  1.00  0.00     0.004 C 
ENDBRANCH  23  25
ENDBRANCH  10  23
ENDBRANCH   7  10
ENDBRANCH   4   6
BRANCH   3  27
ATOM     27  C   UNL     1      -5.933   4.141   9.158  1.00  0.00     0.171 C 
BRANCH  27  28
ATOM     28  N   UNL     1      -5.407   3.756  10.464  1.00  0.00    -0.342 N 
ATOM     29  C   UNL     1      -5.912   2.702  11.192  1.00  0.00     0.245 C 
ATOM     30  O   UNL     1      -6.835   1.997  10.788  1.00  0.00    -0.273 OA
ATOM     31  H   UNL     1      -4.568   4.221  10.810  1.00  0.00     0.164 HD
BRANCH  29  32
ATOM     32  C   UNL     1      -5.143   2.367  12.487  1.00  0.00     0.200 C 
BRANCH  32  33
ATOM     33  N   UNL     1      -4.435   1.096  12.287  1.00  0.00    -0.340 N 
ATOM     34  C   UNL     1      -4.467   0.101  13.242  1.00  0.00     0.243 CG0
ATOM     35  O   UNL     1      -5.031   0.256  14.323  1.00  0.00    -0.273 OA
ATOM     36  H   UNL     1      -3.935   0.951  11.418  1.00  0.00     0.164 HD
ATOM     37  G   UNL     1      -3.572  -1.118  12.964  1.00  0.00     0.000 G0
ENDBRANCH  32  33
BRANCH  32  38
ATOM     38  C   UNL     1      -4.202   3.522  12.901  1.00  0.00     0.143 C 
ATOM     39  C   UNL     1      -3.997   3.649  14.406  1.00  0.00     0.041 C 
BRANCH  38  40
ATOM     40  O   UNL     1      -2.918   3.364  12.266  1.00  0.00    -0.391 OA
ATOM     41  H   UNL     1      -2.662   4.244  11.932  1.00  0.00     0.211 HD
ENDBRANCH  38  40
ENDBRANCH  32  38
ENDBRANCH  29  32
ENDBRANCH  27  28
BRANCH  27  42
ATOM     42  C   UNL     1      -6.191   5.666   9.075  1.00  0.00     0.015 C 
ATOM     43  C   UNL     1      -7.664   6.084   8.998  1.00  0.00     0.010 C 
ATOM     44  C   UNL     1      -5.480   6.429  10.199  1.00  0.00     0.010 C 
ENDBRANCH  27  42
ENDBRANCH   3  27
TORSDOF 5
ENDMDL
MODEL 22
REMARK VINA RESULT:    -5.235      4.030      7.133
REMARK INTER + INTRA:         -11.755
REMARK INTER:                  -9.266
REMARK INTRA:                  -2.488
REMARK UNBOUND:                -2.388
REMARK SMILES CC[C@H](C)[C@H]1NC(=O)c2coc(n2)[C@H](C(C)C)NC(=O)[C@H]([C@@H](C)O)NC(=O)[C@H](C)NC(=O)c2csc1n2
REMARK SMILES IDX 11 1 13 2 12 3 9 4 10 5 7 6 6 7 8 8 5 10 36 11 35 12 34 13
REMARK SMILES IDX 37 14 33 15 31 16 32 17 30 18 28 20 29 21 3 23 4 24 2 25
REMARK SMILES IDX 1 26 14 27 18 28 19 29 20 30 21 32 25 33 26 34 27 35 22 38
REMARK SMILES IDX 23 39 24 40 15 42 16 43 17 44
REMARK H PARENT 6 9 30 19 18 31 25 36 24 41
REMARK Flexibility Score:   94.900
ROOT
ATOM      1  O   UNL     1      -2.939   3.510  10.874  1.00  0.00    -0.446 OA
ATOM      2  N   UNL     1      -4.426   2.762   9.354  1.00  0.00    -0.207 NA
ATOM      3  C   UNL     1      -3.153   2.844   9.697  1.00  0.00     0.217 A 
ATOM      4  C   UNL     1      -5.097   3.393  10.388  1.00  0.00     0.167 A 
ATOM      5  C   UNL     1      -4.186   3.846  11.310  1.00  0.00     0.231 A 
ENDROOT
BRANCH   4   6
ATOM      6  C   UNL     1      -6.541   3.550  10.418  1.00  0.00     0.273 C 
ATOM      7  N   UNL     1      -7.093   2.975  11.534  1.00  0.00    -0.341 N 
ATOM      8  O   UNL     1      -7.181   4.108   9.535  1.00  0.00    -0.267 OA
ATOM      9  H   UNL     1      -6.448   2.466  12.133  1.00  0.00     0.164 HD
BRANCH   7  10
ATOM     10  C   UNL     1      -8.518   2.767  11.696  1.00  0.00     0.145 C 
BRANCH  10  11
ATOM     11  C   UNL     1      -8.824   1.334  11.284  1.00  0.00     0.116 A 
ATOM     12  S   UNL     1     -10.452   0.769  11.303  1.00  0.00    -0.124 S 
ATOM     13  C   UNL     1      -9.924  -0.749  10.721  1.00  0.00     0.101 A 
ATOM     14  N   UNL     1      -7.924   0.452  10.884  1.00  0.00    -0.234 NA
ATOM     15  C   UNL     1      -8.554  -0.748  10.542  1.00  0.00     0.139 A 
BRANCH  15  16
ATOM     16  C   UNL     1      -7.801  -1.893  10.027  1.00  0.00     0.271 C 
ATOM     17  O   UNL     1      -8.289  -3.012   9.910  1.00  0.00    -0.267 OA
ATOM     18  N   UNL     1      -6.498  -1.590   9.691  1.00  0.00    -0.339 N 
ATOM     19  H   UNL     1      -6.181  -0.657   9.939  1.00  0.00     0.164 HD
BRANCH  18  20
ATOM     20  C   UNL     1      -5.579  -2.620   9.226  1.00  0.00     0.168 CG0
ATOM     21  C   UNL     1      -5.427  -2.583   7.704  1.00  0.00     0.041 C 
ATOM     22  G   UNL     1      -4.178  -2.489   9.842  1.00  0.00     0.000 G0
ENDBRANCH  18  20
ENDBRANCH  15  16
ENDBRANCH  10  11
BRANCH  10  23
ATOM     23  C   UNL     1      -8.997   3.083  13.138  1.00  0.00     0.015 C 
ATOM     24  C   UNL     1      -7.851   3.135  14.162  1.00  0.00     0.010 C 
BRANCH  23  25
ATOM     25  C   UNL     1      -9.800   4.401  13.226  1.00  0.00     0.002 C 
ATOM     26  C   UNL     1      -9.706   5.092  14.579  1.00  0.00     0.004 C 
ENDBRANCH  23  25
ENDBRANCH  10  23
ENDBRANCH   7  10
ENDBRANCH   4   6
BRANCH   3  27
ATOM     27  C   UNL     1      -1.970   2.341   8.917  1.00  0.00     0.171 C 
BRANCH  27  28
ATOM     28  N   UNL     1      -2.072   0.887   8.839  1.00  0.00    -0.342 N 
ATOM     29  C   UNL     1      -1.616   0.052   9.834  1.00  0.00     0.245 C 
ATOM     30  O   UNL     1      -1.103   0.470  10.871  1.00  0.00    -0.273 OA
ATOM     31  H   UNL     1      -2.588   0.473   8.063  1.00  0.00     0.164 HD
BRANCH  29  32
ATOM     32  C   UNL     1      -1.928  -1.446   9.632  1.00  0.00     0.200 C 
BRANCH  32  33
ATOM     33  N   UNL     1      -3.335  -1.574   9.233  1.00  0.00    -0.340 N 
ATOM     34  C   UNL     1      -4.171  -2.486   9.843  1.00  0.00     0.243 CG0
ATOM     35  O   UNL     1      -3.765  -3.271  10.697  1.00  0.00    -0.273 OA
ATOM     36  H   UNL     1      -3.691  -0.961   8.509  1.00  0.00     0.164 HD
ATOM     37  G   UNL     1      -5.578  -2.610   9.235  1.00  0.00     0.000 G0
ENDBRANCH  32  33
BRANCH  32  38
ATOM     38  C   UNL     1      -0.953  -2.095   8.622  1.00  0.00     0.143 C 
ATOM     39  C   UNL     1      -1.583  -2.429   7.275  1.00  0.00     0.041 C 
BRANCH  38  40
ATOM     40  O   UNL     1       0.180  -1.231   8.406  1.00  0.00    -0.391 OA
ATOM     41  H   UNL     1       0.789  -1.376   9.156  1.00  0.00     0.211 HD
ENDBRANCH  38  40
ENDBRANCH  32  38
ENDBRANCH  29  32
ENDBRANCH  27  28
BRANCH  27  42
ATOM     42  C   UNL     1      -1.714   2.969   7.525  1.00  0.00     0.015 C 
ATOM     43  C   UNL     1      -0.351   3.646   7.346  1.00  0.00     0.010 C 
ATOM     44  C   UNL     1      -1.964   1.970   6.391  1.00  0.00     0.010 C 
ENDBRANCH  27  42
ENDBRANCH   3  27
TORSDOF 5
ENDMDL
MODEL 23
REMARK VINA RESULT:    -5.235      2.765      6.902
REMARK INTER + INTRA:         -11.754
REMARK INTER:                  -9.716
REMARK INTRA:                  -2.039
REMARK UNBOUND:                -2.388
REMARK SMILES CC[C@H](C)[C@H]1NC(=O)c2coc(n2)[C@H](C(C)C)NC(=O)[C@H]([C@@H](C)O)NC(=O)[C@H](C)NC(=O)c2csc1n2
REMARK SMILES IDX 11 1 13 2 12 3 9 4 10 5 7 6 6 7 8 8 5 10 36 11 35 12 34 13
REMARK SMILES IDX 37 14 33 15 31 16 32 17 30 18 28 20 29 21 3 23 4 24 2 25
REMARK SMILES IDX 1 26 14 27 18 28 19 29 20 30 21 32 25 33 26 34 27 35 22 38
REMARK SMILES IDX 23 39 24 40 15 42 16 43 17 44
REMARK H PARENT 6 9 30 19 18 31 25 36 24 41
REMARK Flexibility Score:   94.900
ROOT
ATOM      1  O   UNL     1      -2.088   3.116   6.256  1.00  0.00    -0.446 OA
ATOM      2  N   UNL     1      -2.087   1.575   7.901  1.00  0.00    -0.207 NA
ATOM      3  C   UNL     1      -2.129   2.861   7.601  1.00  0.00     0.217 A 
ATOM      4  C   UNL     1      -2.041   0.941   6.671  1.00  0.00     0.167 A 
ATOM      5  C   UNL     1      -2.043   1.885   5.674  1.00  0.00     0.231 A 
ENDROOT
BRANCH   4   6
ATOM      6  C   UNL     1      -1.971  -0.503   6.525  1.00  0.00     0.273 C 
ATOM      7  N   UNL     1      -3.206  -1.053   6.293  1.00  0.00    -0.341 N 
ATOM      8  O   UNL     1      -0.931  -1.143   6.623  1.00  0.00    -0.267 OA
ATOM      9  H   UNL     1      -3.990  -0.407   6.330  1.00  0.00     0.164 HD
BRANCH   7  10
ATOM     10  C   UNL     1      -3.462  -2.478   6.354  1.00  0.00     0.145 C 
BRANCH  10  11
ATOM     11  C   UNL     1      -3.600  -2.859   7.821  1.00  0.00     0.116 A 
ATOM     12  S   UNL     1      -3.144  -4.438   8.341  1.00  0.00    -0.124 S 
ATOM     13  C   UNL     1      -3.545  -4.016   9.948  1.00  0.00     0.101 A 
ATOM     14  N   UNL     1      -4.041  -2.055   8.775  1.00  0.00    -0.234 NA
ATOM     15  C   UNL     1      -3.995  -2.712  10.007  1.00  0.00     0.139 A 
BRANCH  15  16
ATOM     16  C   UNL     1      -4.392  -2.045  11.249  1.00  0.00     0.271 C 
ATOM     17  O   UNL     1      -4.895  -2.643  12.194  1.00  0.00    -0.267 OA
ATOM     18  N   UNL     1      -4.143  -0.688  11.250  1.00  0.00    -0.339 N 
ATOM     19  H   UNL     1      -3.827  -0.294  10.368  1.00  0.00     0.164 HD
BRANCH  18  20
ATOM     20  C   UNL     1      -4.533   0.150  12.375  1.00  0.00     0.168 CG0
ATOM     21  C   UNL     1      -3.326   0.517  13.241  1.00  0.00     0.041 C 
ATOM     22  G   UNL     1      -5.211   1.458  11.935  1.00  0.00     0.000 G0
ENDBRANCH  18  20
ENDBRANCH  15  16
ENDBRANCH  10  11
BRANCH  10  23
ATOM     23  C   UNL     1      -4.704  -2.887   5.518  1.00  0.00     0.015 C 
ATOM     24  C   UNL     1      -5.489  -1.685   4.967  1.00  0.00     0.010 C 
BRANCH  23  25
ATOM     25  C   UNL     1      -4.351  -3.827   4.343  1.00  0.00     0.002 C 
ATOM     26  C   UNL     1      -5.394  -3.851   3.235  1.00  0.00     0.004 C 
ENDBRANCH  23  25
ENDBRANCH  10  23
ENDBRANCH   7  10
ENDBRANCH   4   6
BRANCH   3  27
ATOM     27  C   UNL     1      -2.162   4.016   8.564  1.00  0.00     0.171 C 
BRANCH  27  28
ATOM     28  N   UNL     1      -3.024   3.642   9.680  1.00  0.00    -0.342 N 
ATOM     29  C   UNL     1      -3.995   4.477  10.187  1.00  0.00     0.245 C 
ATOM     30  O   UNL     1      -4.218   5.595   9.725  1.00  0.00    -0.273 OA
ATOM     31  H   UNL     1      -2.975   2.689  10.040  1.00  0.00     0.164 HD
BRANCH  29  32
ATOM     32  C   UNL     1      -4.891   3.859  11.280  1.00  0.00     0.200 C 
BRANCH  32  33
ATOM     33  N   UNL     1      -4.372   2.524  11.602  1.00  0.00    -0.340 N 
ATOM     34  C   UNL     1      -5.220   1.479  11.907  1.00  0.00     0.243 CG0
ATOM     35  O   UNL     1      -6.437   1.633  11.985  1.00  0.00    -0.273 OA
ATOM     36  H   UNL     1      -3.370   2.374  11.576  1.00  0.00     0.164 HD
ATOM     37  G   UNL     1      -4.539   0.177  12.357  1.00  0.00     0.000 G0
ENDBRANCH  32  33
BRANCH  32  38
ATOM     38  C   UNL     1      -4.991   4.781  12.518  1.00  0.00     0.143 C 
ATOM     39  C   UNL     1      -6.418   5.043  12.986  1.00  0.00     0.041 C 
BRANCH  38  40
ATOM     40  O   UNL     1      -4.236   4.223  13.610  1.00  0.00    -0.391 OA
ATOM     41  H   UNL     1      -4.766   3.487  13.969  1.00  0.00     0.211 HD
ENDBRANCH  38  40
ENDBRANCH  32  38
ENDBRANCH  29  32
ENDBRANCH  27  28
BRANCH  27  42
ATOM     42  C   UNL     1      -0.804   4.574   9.055  1.00  0.00     0.015 C 
ATOM     43  C   UNL     1      -0.508   6.027   8.669  1.00  0.00     0.010 C 
ATOM     44  C   UNL     1      -0.615   4.376  10.563  1.00  0.00     0.010 C 
ENDBRANCH  27  42
ENDBRANCH   3  27
TORSDOF 5
ENDMDL
MODEL 24
REMARK VINA RESULT:    -5.227      3.911      6.855
REMARK INTER + INTRA:         -11.740
REMARK INTER:                  -9.808
REMARK INTRA:                  -1.933
REMARK UNBOUND:                -2.388
REMARK SMILES CC[C@H](C)[C@H]1NC(=O)c2coc(n2)[C@H](C(C)C)NC(=O)[C@H]([C@@H](C)O)NC(=O)[C@H](C)NC(=O)c2csc1n2
REMARK SMILES IDX 11 1 13 2 12 3 9 4 10 5 7 6 6 7 8 8 5 10 36 11 35 12 34 13
REMARK SMILES IDX 37 14 33 15 31 16 32 17 30 18 28 20 29 21 3 23 4 24 2 25
REMARK SMILES IDX 1 26 14 27 18 28 19 29 20 30 21 32 25 33 26 34 27 35 22 38
REMARK SMILES IDX 23 39 24 40 15 42 16 43 17 44
REMARK H PARENT 6 9 30 19 18 31 25 36 24 41
REMARK Flexibility Score:   94.900
ROOT
ATOM      1  O   UNL     1      -8.082  -2.821  10.227  1.00  0.00    -0.446 OA
ATOM      2  N   UNL     1      -7.728  -0.959   9.005  1.00  0.00    -0.207 NA
ATOM      3  C   UNL     1      -8.346  -1.489  10.046  1.00  0.00     0.217 A 
ATOM      4  C   UNL     1      -6.988  -2.005   8.481  1.00  0.00     0.167 A 
ATOM      5  C   UNL     1      -7.208  -3.136   9.230  1.00  0.00     0.231 A 
ENDROOT
BRANCH   4   6
ATOM      6  C   UNL     1      -6.153  -1.873   7.300  1.00  0.00     0.273 C 
ATOM      7  N   UNL     1      -4.898  -2.388   7.503  1.00  0.00    -0.341 N 
ATOM      8  O   UNL     1      -6.528  -1.342   6.262  1.00  0.00    -0.267 OA
ATOM      9  H   UNL     1      -4.702  -2.713   8.446  1.00  0.00     0.164 HD
BRANCH   7  10
ATOM     10  C   UNL     1      -3.795  -2.169   6.588  1.00  0.00     0.145 C 
BRANCH  10  11
ATOM     11  C   UNL     1      -2.870  -1.139   7.221  1.00  0.00     0.116 A 
ATOM     12  S   UNL     1      -1.162  -1.316   7.066  1.00  0.00    -0.124 S 
ATOM     13  C   UNL     1      -0.941   0.138   7.938  1.00  0.00     0.101 A 
ATOM     14  N   UNL     1      -3.269  -0.072   7.892  1.00  0.00    -0.234 NA
ATOM     15  C   UNL     1      -2.162   0.678   8.294  1.00  0.00     0.139 A 
BRANCH  15  16
ATOM     16  C   UNL     1      -2.310   1.938   9.026  1.00  0.00     0.271 C 
ATOM     17  O   UNL     1      -1.477   2.837   8.979  1.00  0.00    -0.267 OA
ATOM     18  N   UNL     1      -3.471   2.012   9.766  1.00  0.00    -0.339 N 
ATOM     19  H   UNL     1      -4.024   1.160   9.811  1.00  0.00     0.164 HD
BRANCH  18  20
ATOM     20  C   UNL     1      -3.755   3.163  10.611  1.00  0.00     0.168 CG0
ATOM     21  C   UNL     1      -4.307   4.332   9.793  1.00  0.00     0.041 C 
ATOM     22  G   UNL     1      -4.769   2.848  11.723  1.00  0.00     0.000 G0
ENDBRANCH  18  20
ENDBRANCH  15  16
ENDBRANCH  10  11
BRANCH  10  23
ATOM     23  C   UNL     1      -3.058  -3.488   6.233  1.00  0.00     0.015 C 
ATOM     24  C   UNL     1      -3.000  -4.486   7.401  1.00  0.00     0.010 C 
BRANCH  23  25
ATOM     25  C   UNL     1      -3.665  -4.200   5.003  1.00  0.00     0.002 C 
ATOM     26  C   UNL     1      -3.035  -5.552   4.698  1.00  0.00     0.004 C 
ENDBRANCH  23  25
ENDBRANCH  10  23
ENDBRANCH   7  10
ENDBRANCH   4   6
BRANCH   3  27
ATOM     27  C   UNL     1      -9.310  -0.803  10.974  1.00  0.00     0.171 C 
BRANCH  27  28
ATOM     28  N   UNL     1      -8.744   0.495  11.326  1.00  0.00    -0.342 N 
ATOM     29  C   UNL     1      -7.590   0.632  12.065  1.00  0.00     0.245 C 
ATOM     30  O   UNL     1      -6.942  -0.332  12.470  1.00  0.00    -0.273 OA
ATOM     31  H   UNL     1      -9.162   1.336  10.929  1.00  0.00     0.164 HD
BRANCH  29  32
ATOM     32  C   UNL     1      -7.078   2.078  12.226  1.00  0.00     0.200 C 
BRANCH  32  33
ATOM     33  N   UNL     1      -5.954   2.275  11.301  1.00  0.00    -0.340 N 
ATOM     34  C   UNL     1      -4.781   2.870  11.716  1.00  0.00     0.243 CG0
ATOM     35  O   UNL     1      -4.647   3.318  12.853  1.00  0.00    -0.273 OA
ATOM     36  H   UNL     1      -6.047   1.943  10.348  1.00  0.00     0.164 HD
ATOM     37  G   UNL     1      -3.743   3.137  10.614  1.00  0.00     0.000 G0
ENDBRANCH  32  33
BRANCH  32  38
ATOM     38  C   UNL     1      -8.214   3.107  12.021  1.00  0.00     0.143 C 
ATOM     39  C   UNL     1      -8.233   4.227  13.055  1.00  0.00     0.041 C 
BRANCH  38  40
ATOM     40  O   UNL     1      -8.122   3.688  10.705  1.00  0.00    -0.391 OA
ATOM     41  H   UNL     1      -9.036   3.778  10.376  1.00  0.00     0.211 HD
ENDBRANCH  38  40
ENDBRANCH  32  38
ENDBRANCH  29  32
ENDBRANCH  27  28
BRANCH  27  42
ATOM     42  C   UNL     1     -10.781  -0.675  10.507  1.00  0.00     0.015 C 
ATOM     43  C   UNL     1     -11.286   0.757  10.297  1.00  0.00     0.010 C 
ATOM     44  C   UNL     1     -11.063  -1.525   9.264  1.00  0.00     0.010 C 
ENDBRANCH  27  42
ENDBRANCH   3  27
TORSDOF 5
ENDMDL
MODEL 25
REMARK VINA RESULT:    -5.217      4.666      6.815
REMARK INTER + INTRA:         -11.722
REMARK INTER:                  -9.476
REMARK INTRA:                  -2.246
REMARK UNBOUND:                -2.388
REMARK SMILES CC[C@H](C)[C@H]1NC(=O)c2coc(n2)[C@H](C(C)C)NC(=O)[C@H]([C@@H](C)O)NC(=O)[C@H](C)NC(=O)c2csc1n2
REMARK SMILES IDX 11 1 13 2 12 3 9 4 10 5 7 6 6 7 8 8 5 10 36 11 35 12 34 13
REMARK SMILES IDX 37 14 33 15 31 16 32 17 30 18 28 20 29 21 3 23 4 24 2 25
REMARK SMILES IDX 1 26 14 27 18 28 19 29 20 30 21 32 25 33 26 34 27 35 22 38
REMARK SMILES IDX 23 39 24 40 15 42 16 43 17 44
REMARK H PARENT 6 9 30 19 18 31 25 36 24 41
REMARK Flexibility Score:   94.900
ROOT
ATOM      1  O   UNL     1      -8.141  -3.059  10.032  1.00  0.00    -0.446 OA
ATOM      2  N   UNL     1      -7.314  -0.980   9.751  1.00  0.00    -0.207 NA
ATOM      3  C   UNL     1      -8.325  -1.710  10.186  1.00  0.00     0.217 A 
ATOM      4  C   UNL     1      -6.391  -1.911   9.305  1.00  0.00     0.167 A 
ATOM      5  C   UNL     1      -6.901  -3.174   9.479  1.00  0.00     0.231 A 
ENDROOT
BRANCH   4   6
ATOM      6  C   UNL     1      -5.113  -1.544   8.722  1.00  0.00     0.273 C 
ATOM      7  N   UNL     1      -4.270  -0.987   9.650  1.00  0.00    -0.341 N 
ATOM      8  O   UNL     1      -4.840  -1.693   7.537  1.00  0.00    -0.267 OA
ATOM      9  H   UNL     1      -4.667  -0.841  10.574  1.00  0.00     0.164 HD
BRANCH   7  10
ATOM     10  C   UNL     1      -3.037  -0.311   9.297  1.00  0.00     0.145 C 
BRANCH  10  11
ATOM     11  C   UNL     1      -3.202   1.160   9.648  1.00  0.00     0.116 A 
ATOM     12  S   UNL     1      -2.267   2.347   8.818  1.00  0.00    -0.124 S 
ATOM     13  C   UNL     1      -3.043   3.576   9.718  1.00  0.00     0.101 A 
ATOM     14  N   UNL     1      -4.039   1.634  10.556  1.00  0.00    -0.234 NA
ATOM     15  C   UNL     1      -3.964   3.028  10.590  1.00  0.00     0.139 A 
BRANCH  15  16
ATOM     16  C   UNL     1      -4.812   3.824  11.481  1.00  0.00     0.271 C 
ATOM     17  O   UNL     1      -4.454   4.895  11.958  1.00  0.00    -0.267 OA
ATOM     18  N   UNL     1      -6.043   3.252  11.726  1.00  0.00    -0.339 N 
ATOM     19  H   UNL     1      -6.176   2.311  11.362  1.00  0.00     0.164 HD
BRANCH  18  20
ATOM     20  C   UNL     1      -6.992   3.868  12.643  1.00  0.00     0.168 CG0
ATOM     21  C   UNL     1      -8.129   4.558  11.886  1.00  0.00     0.041 C 
ATOM     22  G   UNL     1      -7.620   2.856  13.615  1.00  0.00     0.000 G0
ENDBRANCH  18  20
ENDBRANCH  15  16
ENDBRANCH  10  11
BRANCH  10  23
ATOM     23  C   UNL     1      -1.801  -0.948   9.984  1.00  0.00     0.015 C 
ATOM     24  C   UNL     1      -2.118  -2.271  10.703  1.00  0.00     0.010 C 
BRANCH  23  25
ATOM     25  C   UNL     1      -0.628  -1.186   9.006  1.00  0.00     0.002 C 
ATOM     26  C   UNL     1      -1.049  -1.780   7.669  1.00  0.00     0.004 C 
ENDBRANCH  23  25
ENDBRANCH  10  23
ENDBRANCH   7  10
ENDBRANCH   4   6
BRANCH   3  27
ATOM     27  C   UNL     1      -9.624  -1.211  10.759  1.00  0.00     0.171 C 
BRANCH  27  28
ATOM     28  N   UNL     1      -9.312  -0.163  11.724  1.00  0.00    -0.342 N 
ATOM     29  C   UNL     1      -9.584  -0.281  13.069  1.00  0.00     0.245 C 
ATOM     30  O   UNL     1     -10.096  -1.287  13.558  1.00  0.00    -0.273 OA
ATOM     31  H   UNL     1      -8.783   0.650  11.411  1.00  0.00     0.164 HD
BRANCH  29  32
ATOM     32  C   UNL     1      -9.065   0.874  13.951  1.00  0.00     0.200 C 
BRANCH  32  33
ATOM     33  N   UNL     1      -8.340   1.819  13.093  1.00  0.00    -0.340 N 
ATOM     34  C   UNL     1      -7.606   2.856  13.630  1.00  0.00     0.243 CG0
ATOM     35  O   UNL     1      -7.579   3.074  14.840  1.00  0.00    -0.273 OA
ATOM     36  H   UNL     1      -8.369   1.683  12.089  1.00  0.00     0.164 HD
ATOM     37  G   UNL     1      -7.012   3.848  12.617  1.00  0.00     0.000 G0
ENDBRANCH  32  33
BRANCH  32  38
ATOM     38  C   UNL     1     -10.214   1.540  14.744  1.00  0.00     0.143 C 
ATOM     39  C   UNL     1     -11.344   2.075  13.872  1.00  0.00     0.041 C 
BRANCH  38  40
ATOM     40  O   UNL     1     -10.761   0.607  15.696  1.00  0.00    -0.391 OA
ATOM     41  H   UNL     1     -11.590   1.000  16.028  1.00  0.00     0.211 HD
ENDBRANCH  38  40
ENDBRANCH  32  38
ENDBRANCH  29  32
ENDBRANCH  27  28
BRANCH  27  42
ATOM     42  C   UNL     1     -10.717  -0.758   9.760  1.00  0.00     0.015 C 
ATOM     43  C   UNL     1     -11.113   0.720   9.839  1.00  0.00     0.010 C 
ATOM     44  C   UNL     1     -10.367  -1.138   8.317  1.00  0.00     0.010 C 
ENDBRANCH  27  42
ENDBRANCH   3  27
TORSDOF 5
ENDMDL
MODEL 26
REMARK VINA RESULT:    -5.160      4.191      7.408
REMARK INTER + INTRA:         -11.620
REMARK INTER:                  -9.298
REMARK INTRA:                  -2.322
REMARK UNBOUND:                -2.388
REMARK SMILES CC[C@H](C)[C@H]1NC(=O)c2coc(n2)[C@H](C(C)C)NC(=O)[C@H]([C@@H](C)O)NC(=O)[C@H](C)NC(=O)c2csc1n2
REMARK SMILES IDX 11 1 13 2 12 3 9 4 10 5 7 6 6 7 8 8 5 10 36 11 35 12 34 13
REMARK SMILES IDX 37 14 33 15 31 16 32 17 30 18 28 20 29 21 3 23 4 24 2 25
REMARK SMILES IDX 1 26 14 27 18 28 19 29 20 30 21 32 25 33 26 34 27 35 22 38
REMARK SMILES IDX 23 39 24 40 15 42 16 43 17 44
REMARK H PARENT 6 9 30 19 18 31 25 36 24 41
REMARK Flexibility Score:   94.900
ROOT
ATOM      1  O   UNL     1      -6.382  -0.462  14.332  1.00  0.00    -0.446 OA
ATOM      2  N   UNL     1      -5.721   0.884  12.649  1.00  0.00    -0.207 NA
ATOM      3  C   UNL     1      -6.734   0.461  13.383  1.00  0.00     0.217 A 
ATOM      4  C   UNL     1      -4.625   0.215  13.165  1.00  0.00     0.167 A 
ATOM      5  C   UNL     1      -5.034  -0.603  14.190  1.00  0.00     0.231 A 
ENDROOT
BRANCH   4   6
ATOM      6  C   UNL     1      -3.280   0.370  12.639  1.00  0.00     0.273 C 
ATOM      7  N   UNL     1      -3.199   1.409  11.746  1.00  0.00    -0.341 N 
ATOM      8  O   UNL     1      -2.344  -0.360  12.943  1.00  0.00    -0.267 OA
ATOM      9  H   UNL     1      -4.077   1.867  11.522  1.00  0.00     0.164 HD
BRANCH   7  10
ATOM     10  C   UNL     1      -2.049   1.631  10.892  1.00  0.00     0.145 C 
BRANCH  10  11
ATOM     11  C   UNL     1      -2.274   0.850   9.605  1.00  0.00     0.116 A 
ATOM     12  S   UNL     1      -1.044  -0.205   9.018  1.00  0.00    -0.124 S 
ATOM     13  C   UNL     1      -2.053  -0.642   7.710  1.00  0.00     0.101 A 
ATOM     14  N   UNL     1      -3.375   0.898   8.872  1.00  0.00    -0.234 NA
ATOM     15  C   UNL     1      -3.260   0.026   7.787  1.00  0.00     0.139 A 
BRANCH  15  16
ATOM     16  C   UNL     1      -4.351  -0.154   6.826  1.00  0.00     0.271 C 
ATOM     17  O   UNL     1      -4.179  -0.123   5.612  1.00  0.00    -0.267 OA
ATOM     18  N   UNL     1      -5.579  -0.360   7.418  1.00  0.00    -0.339 N 
ATOM     19  H   UNL     1      -5.608  -0.252   8.429  1.00  0.00     0.164 HD
BRANCH  18  20
ATOM     20  C   UNL     1      -6.790  -0.491   6.619  1.00  0.00     0.168 CG0
ATOM     21  C   UNL     1      -6.990  -1.932   6.145  1.00  0.00     0.041 C 
ATOM     22  G   UNL     1      -8.055  -0.068   7.384  1.00  0.00     0.000 G0
ENDBRANCH  18  20
ENDBRANCH  15  16
ENDBRANCH  10  11
BRANCH  10  23
ATOM     23  C   UNL     1      -1.794   3.139  10.632  1.00  0.00     0.015 C 
ATOM     24  C   UNL     1      -1.280   3.434   9.213  1.00  0.00     0.010 C 
BRANCH  23  25
ATOM     25  C   UNL     1      -3.041   4.011  10.898  1.00  0.00     0.002 C 
ATOM     26  C   UNL     1      -3.687   4.568   9.636  1.00  0.00     0.004 C 
ENDBRANCH  23  25
ENDBRANCH  10  23
ENDBRANCH   7  10
ENDBRANCH   4   6
BRANCH   3  27
ATOM     27  C   UNL     1      -8.181   0.846  13.240  1.00  0.00     0.171 C 
BRANCH  27  28
ATOM     28  N   UNL     1      -8.680   0.252  12.004  1.00  0.00    -0.342 N 
ATOM     29  C   UNL     1      -8.736   0.941  10.813  1.00  0.00     0.245 C 
ATOM     30  O   UNL     1      -8.354   2.105  10.699  1.00  0.00    -0.273 OA
ATOM     31  H   UNL     1      -8.907  -0.741  11.995  1.00  0.00     0.164 HD
BRANCH  29  32
ATOM     32  C   UNL     1      -9.172   0.108   9.589  1.00  0.00     0.200 C 
BRANCH  32  33
ATOM     33  N   UNL     1      -7.992  -0.124   8.747  1.00  0.00    -0.340 N 
ATOM     34  C   UNL     1      -8.077  -0.085   7.370  1.00  0.00     0.243 CG0
ATOM     35  O   UNL     1      -9.147   0.081   6.790  1.00  0.00    -0.273 OA
ATOM     36  H   UNL     1      -7.101  -0.295   9.197  1.00  0.00     0.164 HD
ATOM     37  G   UNL     1      -6.799  -0.482   6.613  1.00  0.00     0.000 G0
ENDBRANCH  32  33
BRANCH  32  38
ATOM     38  C   UNL     1      -9.875  -1.201  10.017  1.00  0.00     0.143 C 
ATOM     39  C   UNL     1     -11.293  -1.351   9.480  1.00  0.00     0.041 C 
BRANCH  38  40
ATOM     40  O   UNL     1      -9.094  -2.338   9.600  1.00  0.00    -0.391 OA
ATOM     41  H   UNL     1      -9.659  -3.124   9.723  1.00  0.00     0.211 HD
ENDBRANCH  38  40
ENDBRANCH  32  38
ENDBRANCH  29  32
ENDBRANCH  27  28
BRANCH  27  42
ATOM     42  C   UNL     1      -9.120   0.549  14.435  1.00  0.00     0.015 C 
ATOM     43  C   UNL     1      -9.202   1.649  15.500  1.00  0.00     0.010 C 
ATOM     44  C   UNL     1     -10.525   0.150  13.973  1.00  0.00     0.010 C 
ENDBRANCH  27  42
ENDBRANCH   3  27
TORSDOF 5
ENDMDL
MODEL 27
REMARK VINA RESULT:    -5.114      3.954      7.245
REMARK INTER + INTRA:         -11.539
REMARK INTER:                  -9.239
REMARK INTRA:                  -2.300
REMARK UNBOUND:                -2.388
REMARK SMILES CC[C@H](C)[C@H]1NC(=O)c2coc(n2)[C@H](C(C)C)NC(=O)[C@H]([C@@H](C)O)NC(=O)[C@H](C)NC(=O)c2csc1n2
REMARK SMILES IDX 11 1 13 2 12 3 9 4 10 5 7 6 6 7 8 8 5 10 36 11 35 12 34 13
REMARK SMILES IDX 37 14 33 15 31 16 32 17 30 18 28 20 29 21 3 23 4 24 2 25
REMARK SMILES IDX 1 26 14 27 18 28 19 29 20 30 21 32 25 33 26 34 27 35 22 38
REMARK SMILES IDX 23 39 24 40 15 42 16 43 17 44
REMARK H PARENT 6 9 30 19 18 31 25 36 24 41
REMARK Flexibility Score:   94.900
ROOT
ATOM      1  O   UNL     1      -4.915   5.928  11.292  1.00  0.00    -0.446 OA
ATOM      2  N   UNL     1      -3.951   4.116  12.225  1.00  0.00    -0.207 NA
ATOM      3  C   UNL     1      -4.932   4.999  12.298  1.00  0.00     0.217 A 
ATOM      4  C   UNL     1      -3.258   4.473  11.081  1.00  0.00     0.167 A 
ATOM      5  C   UNL     1      -3.850   5.576  10.517  1.00  0.00     0.231 A 
ENDROOT
BRANCH   4   6
ATOM      6  C   UNL     1      -2.075   3.769  10.619  1.00  0.00     0.273 C 
ATOM      7  N   UNL     1      -2.314   3.077   9.458  1.00  0.00    -0.341 N 
ATOM      8  O   UNL     1      -1.005   3.778  11.215  1.00  0.00    -0.267 OA
ATOM      9  H   UNL     1      -3.275   3.088   9.129  1.00  0.00     0.164 HD
BRANCH   7  10
ATOM     10  C   UNL     1      -1.392   2.099   8.915  1.00  0.00     0.145 C 
BRANCH  10  11
ATOM     11  C   UNL     1      -1.843   0.727   9.393  1.00  0.00     0.116 A 
ATOM     12  S   UNL     1      -0.951  -0.674   8.933  1.00  0.00    -0.124 S 
ATOM     13  C   UNL     1      -2.020  -1.646   9.846  1.00  0.00     0.101 A 
ATOM     14  N   UNL     1      -2.889   0.500  10.171  1.00  0.00    -0.234 NA
ATOM     15  C   UNL     1      -2.987  -0.865  10.450  1.00  0.00     0.139 A 
BRANCH  15  16
ATOM     16  C   UNL     1      -4.035  -1.399  11.322  1.00  0.00     0.271 C 
ATOM     17  O   UNL     1      -4.005  -2.537  11.777  1.00  0.00    -0.267 OA
ATOM     18  N   UNL     1      -5.048  -0.500  11.580  1.00  0.00    -0.339 N 
ATOM     19  H   UNL     1      -5.014   0.370  11.056  1.00  0.00     0.164 HD
BRANCH  18  20
ATOM     20  C   UNL     1      -6.209  -0.879  12.373  1.00  0.00     0.168 CG0
ATOM     21  C   UNL     1      -5.890  -0.863  13.870  1.00  0.00     0.041 C 
ATOM     22  G   UNL     1      -7.416   0.045  12.140  1.00  0.00     0.000 G0
ENDBRANCH  18  20
ENDBRANCH  15  16
ENDBRANCH  10  11
BRANCH  10  23
ATOM     23  C   UNL     1      -1.292   2.184   7.369  1.00  0.00     0.015 C 
ATOM     24  C   UNL     1      -2.485   2.904   6.720  1.00  0.00     0.010 C 
BRANCH  23  25
ATOM     25  C   UNL     1       0.013   2.859   6.890  1.00  0.00     0.002 C 
ATOM     26  C   UNL     1       0.808   2.031   5.890  1.00  0.00     0.004 C 
ENDBRANCH  23  25
ENDBRANCH  10  23
ENDBRANCH   7  10
ENDBRANCH   4   6
BRANCH   3  27
ATOM     27  C   UNL     1      -5.984   5.099  13.368  1.00  0.00     0.171 C 
BRANCH  27  28
ATOM     28  N   UNL     1      -6.722   3.841  13.388  1.00  0.00    -0.342 N 
ATOM     29  C   UNL     1      -7.881   3.643  12.672  1.00  0.00     0.245 C 
ATOM     30  O   UNL     1      -8.372   4.508  11.948  1.00  0.00    -0.273 OA
ATOM     31  H   UNL     1      -6.316   3.042  13.874  1.00  0.00     0.164 HD
BRANCH  29  32
ATOM     32  C   UNL     1      -8.447   2.208  12.717  1.00  0.00     0.200 C 
BRANCH  32  33
ATOM     33  N   UNL     1      -7.320   1.269  12.745  1.00  0.00    -0.340 N 
ATOM     34  C   UNL     1      -7.401   0.034  12.135  1.00  0.00     0.243 CG0
ATOM     35  O   UNL     1      -8.435  -0.359  11.598  1.00  0.00    -0.273 OA
ATOM     36  H   UNL     1      -6.464   1.552  13.207  1.00  0.00     0.164 HD
ATOM     37  G   UNL     1      -6.202  -0.901  12.360  1.00  0.00     0.000 G0
ENDBRANCH  32  33
BRANCH  32  38
ATOM     38  C   UNL     1      -9.419   2.021  13.905  1.00  0.00     0.143 C 
ATOM     39  C   UNL     1      -8.740   1.605  15.205  1.00  0.00     0.041 C 
BRANCH  38  40
ATOM     40  O   UNL     1     -10.159   3.236  14.133  1.00  0.00    -0.391 OA
ATOM     41  H   UNL     1     -10.918   2.999  14.699  1.00  0.00     0.211 HD
ENDBRANCH  38  40
ENDBRANCH  32  38
ENDBRANCH  29  32
ENDBRANCH  27  28
BRANCH  27  42
ATOM     42  C   UNL     1      -5.520   5.511  14.787  1.00  0.00     0.015 C 
ATOM     43  C   UNL     1      -4.857   6.889  14.892  1.00  0.00     0.010 C 
ATOM     44  C   UNL     1      -6.647   5.384  15.817  1.00  0.00     0.010 C 
ENDBRANCH  27  42
ENDBRANCH   3  27
TORSDOF 5
ENDMDL
MODEL 28
REMARK VINA RESULT:    -5.091      3.315      5.950
REMARK INTER + INTRA:         -11.497
REMARK INTER:                  -8.895
REMARK INTRA:                  -2.602
REMARK UNBOUND:                -2.388
REMARK SMILES CC[C@H](C)[C@H]1NC(=O)c2coc(n2)[C@H](C(C)C)NC(=O)[C@H]([C@@H](C)O)NC(=O)[C@H](C)NC(=O)c2csc1n2
REMARK SMILES IDX 11 1 13 2 12 3 9 4 10 5 7 6 6 7 8 8 5 10 36 11 35 12 34 13
REMARK SMILES IDX 37 14 33 15 31 16 32 17 30 18 28 20 29 21 3 23 4 24 2 25
REMARK SMILES IDX 1 26 14 27 18 28 19 29 20 30 21 32 25 33 26 34 27 35 22 38
REMARK SMILES IDX 23 39 24 40 15 42 16 43 17 44
REMARK H PARENT 6 9 30 19 18 31 25 36 24 41
REMARK Flexibility Score:   94.900
ROOT
ATOM      1  O   UNL     1      -7.277  -0.628  11.259  1.00  0.00    -0.446 OA
ATOM      2  N   UNL     1      -6.253   1.201  10.428  1.00  0.00    -0.207 NA
ATOM      3  C   UNL     1      -6.963   0.121  10.155  1.00  0.00     0.217 A 
ATOM      4  C   UNL     1      -6.113   1.176  11.805  1.00  0.00     0.167 A 
ATOM      5  C   UNL     1      -6.739   0.060  12.304  1.00  0.00     0.231 A 
ENDROOT
BRANCH   4   6
ATOM      6  C   UNL     1      -5.377   2.185  12.546  1.00  0.00     0.273 C 
ATOM      7  N   UNL     1      -5.357   3.388  11.886  1.00  0.00    -0.341 N 
ATOM      8  O   UNL     1      -4.823   1.970  13.617  1.00  0.00    -0.267 OA
ATOM      9  H   UNL     1      -5.780   3.392  10.963  1.00  0.00     0.164 HD
BRANCH   7  10
ATOM     10  C   UNL     1      -4.495   4.489  12.272  1.00  0.00     0.145 C 
BRANCH  10  11
ATOM     11  C   UNL     1      -3.394   4.599  11.228  1.00  0.00     0.116 A 
ATOM     12  S   UNL     1      -2.490   6.059  11.090  1.00  0.00    -0.124 S 
ATOM     13  C   UNL     1      -1.554   5.354   9.845  1.00  0.00     0.101 A 
ATOM     14  N   UNL     1      -3.042   3.635  10.393  1.00  0.00    -0.234 NA
ATOM     15  C   UNL     1      -1.970   4.059   9.604  1.00  0.00     0.139 A 
BRANCH  15  16
ATOM     16  C   UNL     1      -1.348   3.178   8.613  1.00  0.00     0.271 C 
ATOM     17  O   UNL     1      -0.410   3.530   7.905  1.00  0.00    -0.267 OA
ATOM     18  N   UNL     1      -1.917   1.923   8.557  1.00  0.00    -0.339 N 
ATOM     19  H   UNL     1      -2.758   1.791   9.114  1.00  0.00     0.164 HD
BRANCH  18  20
ATOM     20  C   UNL     1      -1.473   0.935   7.583  1.00  0.00     0.168 CG0
ATOM     21  C   UNL     1      -0.915  -0.312   8.271  1.00  0.00     0.041 C 
ATOM     22  G   UNL     1      -2.598   0.487   6.636  1.00  0.00     0.000 G0
ENDBRANCH  18  20
ENDBRANCH  15  16
ENDBRANCH  10  11
BRANCH  10  23
ATOM     23  C   UNL     1      -5.281   5.816  12.445  1.00  0.00     0.015 C 
ATOM     24  C   UNL     1      -6.659   5.801  11.762  1.00  0.00     0.010 C 
BRANCH  23  25
ATOM     25  C   UNL     1      -5.468   6.211  13.927  1.00  0.00     0.002 C 
ATOM     26  C   UNL     1      -4.682   5.346  14.902  1.00  0.00     0.004 C 
ENDBRANCH  23  25
ENDBRANCH  10  23
ENDBRANCH   7  10
ENDBRANCH   4   6
BRANCH   3  27
ATOM     27  C   UNL     1      -7.390  -0.364   8.797  1.00  0.00     0.171 C 
BRANCH  27  28
ATOM     28  N   UNL     1      -6.202  -0.848   8.102  1.00  0.00    -0.342 N 
ATOM     29  C   UNL     1      -5.901  -0.497   6.805  1.00  0.00     0.245 C 
ATOM     30  O   UNL     1      -6.605   0.263   6.141  1.00  0.00    -0.273 OA
ATOM     31  H   UNL     1      -5.514  -1.388   8.625  1.00  0.00     0.164 HD
BRANCH  29  32
ATOM     32  C   UNL     1      -4.539  -1.002   6.284  1.00  0.00     0.200 C 
BRANCH  32  33
ATOM     33  N   UNL     1      -3.483  -0.431   7.129  1.00  0.00    -0.340 N 
ATOM     34  C   UNL     1      -2.600   0.507   6.635  1.00  0.00     0.243 CG0
ATOM     35  O   UNL     1      -2.616   0.857   5.457  1.00  0.00    -0.273 OA
ATOM     36  H   UNL     1      -3.425  -0.724   8.097  1.00  0.00     0.164 HD
ATOM     37  G   UNL     1      -1.462   0.916   7.585  1.00  0.00     0.000 G0
ENDBRANCH  32  33
BRANCH  32  38
ATOM     38  C   UNL     1      -4.494  -2.546   6.224  1.00  0.00     0.143 C 
ATOM     39  C   UNL     1      -3.696  -3.190   7.351  1.00  0.00     0.041 C 
BRANCH  38  40
ATOM     40  O   UNL     1      -5.833  -3.079   6.235  1.00  0.00    -0.391 OA
ATOM     41  H   UNL     1      -6.273  -2.746   5.430  1.00  0.00     0.211 HD
ENDBRANCH  38  40
ENDBRANCH  32  38
ENDBRANCH  29  32
ENDBRANCH  27  28
BRANCH  27  42
ATOM     42  C   UNL     1      -8.544  -1.396   8.739  1.00  0.00     0.015 C 
ATOM     43  C   UNL     1      -9.463  -1.291   7.516  1.00  0.00     0.010 C 
ATOM     44  C   UNL     1      -8.036  -2.833   8.900  1.00  0.00     0.010 C 
ENDBRANCH  27  42
ENDBRANCH   3  27
TORSDOF 5
ENDMDL
MODEL 29
REMARK VINA RESULT:    -5.072      5.022      7.760
REMARK INTER + INTRA:         -11.464
REMARK INTER:                  -9.305
REMARK INTRA:                  -2.159
REMARK UNBOUND:                -2.388
REMARK SMILES CC[C@H](C)[C@H]1NC(=O)c2coc(n2)[C@H](C(C)C)NC(=O)[C@H]([C@@H](C)O)NC(=O)[C@H](C)NC(=O)c2csc1n2
REMARK SMILES IDX 11 1 13 2 12 3 9 4 10 5 7 6 6 7 8 8 5 10 36 11 35 12 34 13
REMARK SMILES IDX 37 14 33 15 31 16 32 17 30 18 28 20 29 21 3 23 4 24 2 25
REMARK SMILES IDX 1 26 14 27 18 28 19 29 20 30 21 32 25 33 26 34 27 35 22 38
REMARK SMILES IDX 23 39 24 40 15 42 16 43 17 44
REMARK H PARENT 6 9 30 19 18 31 25 36 24 41
REMARK Flexibility Score:   94.900
ROOT
ATOM      1  O   UNL     1      -3.807   4.494  11.985  1.00  0.00    -0.446 OA
ATOM      2  N   UNL     1      -5.458   3.596  10.739  1.00  0.00    -0.207 NA
ATOM      3  C   UNL     1      -4.163   3.610  11.001  1.00  0.00     0.217 A 
ATOM      4  C   UNL     1      -5.993   4.513  11.627  1.00  0.00     0.167 A 
ATOM      5  C   UNL     1      -4.983   5.055  12.383  1.00  0.00     0.231 A 
ENDROOT
BRANCH   4   6
ATOM      6  C   UNL     1      -7.409   4.833  11.680  1.00  0.00     0.273 C 
ATOM      7  N   UNL     1      -7.883   4.837  12.968  1.00  0.00    -0.341 N 
ATOM      8  O   UNL     1      -8.093   5.047  10.687  1.00  0.00    -0.267 OA
ATOM      9  H   UNL     1      -7.220   4.550  13.682  1.00  0.00     0.164 HD
BRANCH   7  10
ATOM     10  C   UNL     1      -9.295   4.880  13.291  1.00  0.00     0.145 C 
BRANCH  10  11
ATOM     11  C   UNL     1      -9.809   3.447  13.300  1.00  0.00     0.116 A 
ATOM     12  S   UNL     1     -11.503   3.148  13.405  1.00  0.00    -0.124 S 
ATOM     13  C   UNL     1     -11.204   1.467  13.316  1.00  0.00     0.101 A 
ATOM     14  N   UNL     1      -9.048   2.368  13.217  1.00  0.00    -0.234 NA
ATOM     15  C   UNL     1      -9.848   1.223  13.209  1.00  0.00     0.139 A 
BRANCH  15  16
ATOM     16  C   UNL     1      -9.271  -0.118  13.087  1.00  0.00     0.271 C 
ATOM     17  O   UNL     1      -9.891  -1.137  13.371  1.00  0.00    -0.267 OA
ATOM     18  N   UNL     1      -7.973  -0.118  12.623  1.00  0.00    -0.339 N 
ATOM     19  H   UNL     1      -7.534   0.794  12.530  1.00  0.00     0.164 HD
BRANCH  18  20
ATOM     20  C   UNL     1      -7.215  -1.357  12.502  1.00  0.00     0.168 CG0
ATOM     21  C   UNL     1      -7.306  -1.928  11.086  1.00  0.00     0.041 C 
ATOM     22  G   UNL     1      -5.727  -1.179  12.843  1.00  0.00     0.000 G0
ENDBRANCH  18  20
ENDBRANCH  15  16
ENDBRANCH  10  11
BRANCH  10  23
ATOM     23  C   UNL     1      -9.568   5.614  14.631  1.00  0.00     0.015 C 
ATOM     24  C   UNL     1      -9.459   4.697  15.861  1.00  0.00     0.010 C 
BRANCH  23  25
ATOM     25  C   UNL     1      -8.645   6.836  14.842  1.00  0.00     0.002 C 
ATOM     26  C   UNL     1      -9.301   8.170  14.516  1.00  0.00     0.004 C 
ENDBRANCH  23  25
ENDBRANCH  10  23
ENDBRANCH   7  10
ENDBRANCH   4   6
BRANCH   3  27
ATOM     27  C   UNL     1      -3.089   2.816  10.309  1.00  0.00     0.171 C 
BRANCH  27  28
ATOM     28  N   UNL     1      -3.321   1.404  10.598  1.00  0.00    -0.342 N 
ATOM     29  C   UNL     1      -3.004   0.827  11.806  1.00  0.00     0.245 C 
ATOM     30  O   UNL     1      -2.514   1.462  12.739  1.00  0.00    -0.273 OA
ATOM     31  H   UNL     1      -3.828   0.841   9.915  1.00  0.00     0.164 HD
BRANCH  29  32
ATOM     32  C   UNL     1      -3.441  -0.644  11.970  1.00  0.00     0.200 C 
BRANCH  32  33
ATOM     33  N   UNL     1      -4.900  -0.710  11.820  1.00  0.00    -0.340 N 
ATOM     34  C   UNL     1      -5.705  -1.161  12.846  1.00  0.00     0.243 CG0
ATOM     35  O   UNL     1      -5.237  -1.585  13.901  1.00  0.00    -0.273 OA
ATOM     36  H   UNL     1      -5.313  -0.396  10.950  1.00  0.00     0.164 HD
ATOM     37  G   UNL     1      -7.197  -1.308  12.507  1.00  0.00     0.000 G0
ENDBRANCH  32  33
BRANCH  32  38
ATOM     38  C   UNL     1      -2.691  -1.570  10.984  1.00  0.00     0.143 C 
ATOM     39  C   UNL     1      -2.519  -3.000  11.481  1.00  0.00     0.041 C 
BRANCH  38  40
ATOM     40  O   UNL     1      -3.374  -1.595   9.715  1.00  0.00    -0.391 OA
ATOM     41  H   UNL     1      -2.769  -2.025   9.081  1.00  0.00     0.211 HD
ENDBRANCH  38  40
ENDBRANCH  32  38
ENDBRANCH  29  32
ENDBRANCH  27  28
BRANCH  27  42
ATOM     42  C   UNL     1      -2.886   3.061   8.794  1.00  0.00     0.015 C 
ATOM     43  C   UNL     1      -1.475   3.493   8.378  1.00  0.00     0.010 C 
ATOM     44  C   UNL     1      -3.345   1.865   7.953  1.00  0.00     0.010 C 
ENDBRANCH  27  42
ENDBRANCH   3  27
TORSDOF 5
ENDMDL
MODEL 30
REMARK VINA RESULT:    -5.063      4.006      7.284
REMARK INTER + INTRA:         -11.447
REMARK INTER:                  -9.253
REMARK INTRA:                  -2.194
REMARK UNBOUND:                -2.388
REMARK SMILES CC[C@H](C)[C@H]1NC(=O)c2coc(n2)[C@H](C(C)C)NC(=O)[C@H]([C@@H](C)O)NC(=O)[C@H](C)NC(=O)c2csc1n2
REMARK SMILES IDX 11 1 13 2 12 3 9 4 10 5 7 6 6 7 8 8 5 10 36 11 35 12 34 13
REMARK SMILES IDX 37 14 33 15 31 16 32 17 30 18 28 20 29 21 3 23 4 24 2 25
REMARK SMILES IDX 1 26 14 27 18 28 19 29 20 30 21 32 25 33 26 34 27 35 22 38
REMARK SMILES IDX 23 39 24 40 15 42 16 43 17 44
REMARK H PARENT 6 9 30 19 18 31 25 36 24 41
REMARK Flexibility Score:   94.900
ROOT
ATOM      1  O   UNL     1      -1.957  -0.531   9.089  1.00  0.00    -0.446 OA
ATOM      2  N   UNL     1      -3.862   0.402   8.326  1.00  0.00    -0.207 NA
ATOM      3  C   UNL     1      -2.548   0.340   8.213  1.00  0.00     0.217 A 
ATOM      4  C   UNL     1      -4.159  -0.509   9.325  1.00  0.00     0.167 A 
ATOM      5  C   UNL     1      -2.995  -1.074   9.785  1.00  0.00     0.231 A 
ENDROOT
BRANCH   4   6
ATOM      6  C   UNL     1      -5.511  -0.760   9.794  1.00  0.00     0.273 C 
ATOM      7  N   UNL     1      -6.444  -0.094   9.040  1.00  0.00    -0.341 N 
ATOM      8  O   UNL     1      -5.773  -1.464  10.762  1.00  0.00    -0.267 OA
ATOM      9  H   UNL     1      -6.072   0.526   8.326  1.00  0.00     0.164 HD
BRANCH   7  10
ATOM     10  C   UNL     1      -7.834   0.033   9.431  1.00  0.00     0.145 C 
BRANCH  10  11
ATOM     11  C   UNL     1      -7.972   1.321  10.231  1.00  0.00     0.116 A 
ATOM     12  S   UNL     1      -9.304   1.521  11.305  1.00  0.00    -0.124 S 
ATOM     13  C   UNL     1      -8.701   3.056  11.755  1.00  0.00     0.101 A 
ATOM     14  N   UNL     1      -7.124   2.335  10.186  1.00  0.00    -0.234 NA
ATOM     15  C   UNL     1      -7.529   3.332  11.077  1.00  0.00     0.139 A 
BRANCH  15  16
ATOM     16  C   UNL     1      -6.753   4.560  11.263  1.00  0.00     0.271 C 
ATOM     17  O   UNL     1      -7.193   5.543  11.849  1.00  0.00    -0.267 OA
ATOM     18  N   UNL     1      -5.487   4.499  10.719  1.00  0.00    -0.339 N 
ATOM     19  H   UNL     1      -5.282   3.673  10.164  1.00  0.00     0.164 HD
BRANCH  18  20
ATOM     20  C   UNL     1      -4.596   5.651  10.750  1.00  0.00     0.168 CG0
ATOM     21  C   UNL     1      -3.591   5.547  11.898  1.00  0.00     0.041 C 
ATOM     22  G   UNL     1      -3.803   5.823   9.444  1.00  0.00     0.000 G0
ENDBRANCH  18  20
ENDBRANCH  15  16
ENDBRANCH  10  11
BRANCH  10  23
ATOM     23  C   UNL     1      -8.792  -0.011   8.212  1.00  0.00     0.015 C 
ATOM     24  C   UNL     1      -8.059  -0.128   6.865  1.00  0.00     0.010 C 
BRANCH  23  25
ATOM     25  C   UNL     1      -9.832  -1.151   8.309  1.00  0.00     0.002 C 
ATOM     26  C   UNL     1      -9.834  -2.090   7.111  1.00  0.00     0.004 C 
ENDBRANCH  23  25
ENDBRANCH  10  23
ENDBRANCH   7  10
ENDBRANCH   4   6
BRANCH   3  27
ATOM     27  C   UNL     1      -1.679   1.146   7.287  1.00  0.00     0.171 C 
BRANCH  27  28
ATOM     28  N   UNL     1      -1.563   2.491   7.841  1.00  0.00    -0.342 N 
ATOM     29  C   UNL     1      -2.081   3.604   7.216  1.00  0.00     0.245 C 
ATOM     30  O   UNL     1      -2.694   3.544   6.151  1.00  0.00    -0.273 OA
ATOM     31  H   UNL     1      -1.170   2.605   8.774  1.00  0.00     0.164 HD
BRANCH  29  32
ATOM     32  C   UNL     1      -1.974   4.919   8.016  1.00  0.00     0.200 C 
BRANCH  32  33
ATOM     33  N   UNL     1      -2.865   4.826   9.178  1.00  0.00    -0.340 N 
ATOM     34  C   UNL     1      -3.815   5.793   9.432  1.00  0.00     0.243 CG0
ATOM     35  O   UNL     1      -3.916   6.803   8.737  1.00  0.00    -0.273 OA
ATOM     36  H   UNL     1      -2.785   4.020   9.787  1.00  0.00     0.164 HD
ATOM     37  G   UNL     1      -4.585   5.642  10.754  1.00  0.00     0.000 G0
ENDBRANCH  32  33
BRANCH  32  38
ATOM     38  C   UNL     1      -0.509   5.228   8.403  1.00  0.00     0.143 C 
ATOM     39  C   UNL     1       0.441   5.330   7.214  1.00  0.00     0.041 C 
BRANCH  38  40
ATOM     40  O   UNL     1      -0.446   6.453   9.158  1.00  0.00    -0.391 OA
ATOM     41  H   UNL     1      -0.822   6.259  10.037  1.00  0.00     0.211 HD
ENDBRANCH  38  40
ENDBRANCH  32  38
ENDBRANCH  29  32
ENDBRANCH  27  28
BRANCH  27  42
ATOM     42  C   UNL     1      -0.293   0.561   6.919  1.00  0.00     0.015 C 
ATOM     43  C   UNL     1      -0.314  -0.827   6.268  1.00  0.00     0.010 C 
ATOM     44  C   UNL     1       0.532   1.534   6.070  1.00  0.00     0.010 C 
ENDBRANCH  27  42
ENDBRANCH   3  27
TORSDOF 5
ENDMDL
MODEL 31
REMARK VINA RESULT:    -5.030      4.431      7.532
REMARK INTER + INTRA:         -11.388
REMARK INTER:                  -8.909
REMARK INTRA:                  -2.478
REMARK UNBOUND:                -2.388
REMARK SMILES CC[C@H](C)[C@H]1NC(=O)c2coc(n2)[C@H](C(C)C)NC(=O)[C@H]([C@@H](C)O)NC(=O)[C@H](C)NC(=O)c2csc1n2
REMARK SMILES IDX 11 1 13 2 12 3 9 4 10 5 7 6 6 7 8 8 5 10 36 11 35 12 34 13
REMARK SMILES IDX 37 14 33 15 31 16 32 17 30 18 28 20 29 21 3 23 4 24 2 25
REMARK SMILES IDX 1 26 14 27 18 28 19 29 20 30 21 32 25 33 26 34 27 35 22 38
REMARK SMILES IDX 23 39 24 40 15 42 16 43 17 44
REMARK H PARENT 6 9 30 19 18 31 25 36 24 41
REMARK Flexibility Score:   94.900
ROOT
ATOM      1  O   UNL     1      -6.628  -2.896  11.351  1.00  0.00    -0.446 OA
ATOM      2  N   UNL     1      -6.084  -0.814  12.022  1.00  0.00    -0.207 NA
ATOM      3  C   UNL     1      -5.681  -1.909  11.402  1.00  0.00     0.217 A 
ATOM      4  C   UNL     1      -7.393  -1.089  12.380  1.00  0.00     0.167 A 
ATOM      5  C   UNL     1      -7.718  -2.358  11.967  1.00  0.00     0.231 A 
ENDROOT
BRANCH   4   6
ATOM      6  C   UNL     1      -8.231  -0.151  13.107  1.00  0.00     0.273 C 
ATOM      7  N   UNL     1      -8.932   0.669  12.259  1.00  0.00    -0.341 N 
ATOM      8  O   UNL     1      -8.278  -0.092  14.329  1.00  0.00    -0.267 OA
ATOM      9  H   UNL     1      -8.720   0.565  11.271  1.00  0.00     0.164 HD
BRANCH   7  10
ATOM     10  C   UNL     1      -9.646   1.847  12.709  1.00  0.00     0.145 C 
BRANCH  10  11
ATOM     11  C   UNL     1      -8.753   3.053  12.452  1.00  0.00     0.116 A 
ATOM     12  S   UNL     1      -8.999   4.504  13.348  1.00  0.00    -0.124 S 
ATOM     13  C   UNL     1      -7.678   5.222  12.534  1.00  0.00     0.101 A 
ATOM     14  N   UNL     1      -7.758   3.087  11.582  1.00  0.00    -0.234 NA
ATOM     15  C   UNL     1      -7.123   4.330  11.636  1.00  0.00     0.139 A 
BRANCH  15  16
ATOM     16  C   UNL     1      -5.957   4.636  10.803  1.00  0.00     0.271 C 
ATOM     17  O   UNL     1      -5.644   5.781  10.492  1.00  0.00    -0.267 OA
ATOM     18  N   UNL     1      -5.254   3.518  10.408  1.00  0.00    -0.339 N 
ATOM     19  H   UNL     1      -5.677   2.623  10.637  1.00  0.00     0.164 HD
BRANCH  18  20
ATOM     20  C   UNL     1      -4.104   3.625   9.519  1.00  0.00     0.168 CG0
ATOM     21  C   UNL     1      -2.790   3.559  10.300  1.00  0.00     0.041 C 
ATOM     22  G   UNL     1      -4.073   2.518   8.453  1.00  0.00     0.000 G0
ENDBRANCH  18  20
ENDBRANCH  15  16
ENDBRANCH  10  11
BRANCH  10  23
ATOM     23  C   UNL     1     -11.035   1.985  12.030  1.00  0.00     0.015 C 
ATOM     24  C   UNL     1     -11.065   1.446  10.590  1.00  0.00     0.010 C 
BRANCH  23  25
ATOM     25  C   UNL     1     -12.164   1.306  12.837  1.00  0.00     0.002 C 
ATOM     26  C   UNL     1     -12.589   2.079  14.078  1.00  0.00     0.004 C 
ENDBRANCH  23  25
ENDBRANCH  10  23
ENDBRANCH   7  10
ENDBRANCH   4   6
BRANCH   3  27
ATOM     27  C   UNL     1      -4.318  -2.173  10.824  1.00  0.00     0.171 C 
BRANCH  27  28
ATOM     28  N   UNL     1      -3.953  -1.027   9.998  1.00  0.00    -0.342 N 
ATOM     29  C   UNL     1      -3.651  -1.136   8.659  1.00  0.00     0.245 C 
ATOM     30  O   UNL     1      -3.682  -2.208   8.056  1.00  0.00    -0.273 OA
ATOM     31  H   UNL     1      -4.018  -0.093  10.400  1.00  0.00     0.164 HD
BRANCH  29  32
ATOM     32  C   UNL     1      -3.417   0.200   7.924  1.00  0.00     0.200 C 
BRANCH  32  33
ATOM     33  N   UNL     1      -3.642   1.295   8.876  1.00  0.00    -0.340 N 
ATOM     34  C   UNL     1      -4.072   2.535   8.452  1.00  0.00     0.243 CG0
ATOM     35  O   UNL     1      -4.223   2.798   7.261  1.00  0.00    -0.273 OA
ATOM     36  H   UNL     1      -3.496   1.117   9.863  1.00  0.00     0.164 HD
ATOM     37  G   UNL     1      -4.134   3.625   9.534  1.00  0.00     0.000 G0
ENDBRANCH  32  33
BRANCH  32  38
ATOM     38  C   UNL     1      -2.016   0.248   7.271  1.00  0.00     0.143 C 
ATOM     39  C   UNL     1      -0.869  -0.032   8.236  1.00  0.00     0.041 C 
BRANCH  38  40
ATOM     40  O   UNL     1      -1.948  -0.691   6.180  1.00  0.00    -0.391 OA
ATOM     41  H   UNL     1      -2.360  -0.255   5.410  1.00  0.00     0.211 HD
ENDBRANCH  38  40
ENDBRANCH  32  38
ENDBRANCH  29  32
ENDBRANCH  27  28
BRANCH  27  42
ATOM     42  C   UNL     1      -3.185  -2.548  11.810  1.00  0.00     0.015 C 
ATOM     43  C   UNL     1      -2.057  -3.408  11.226  1.00  0.00     0.010 C 
ATOM     44  C   UNL     1      -2.604  -1.315  12.510  1.00  0.00     0.010 C 
ENDBRANCH  27  42
ENDBRANCH   3  27
TORSDOF 5
ENDMDL
MODEL 32
REMARK VINA RESULT:    -5.004      3.183      6.973
REMARK INTER + INTRA:         -11.341
REMARK INTER:                  -9.515
REMARK INTRA:                  -1.827
REMARK UNBOUND:                -2.388
REMARK SMILES CC[C@H](C)[C@H]1NC(=O)c2coc(n2)[C@H](C(C)C)NC(=O)[C@H]([C@@H](C)O)NC(=O)[C@H](C)NC(=O)c2csc1n2
REMARK SMILES IDX 11 1 13 2 12 3 9 4 10 5 7 6 6 7 8 8 5 10 36 11 35 12 34 13
REMARK SMILES IDX 37 14 33 15 31 16 32 17 30 18 28 20 29 21 3 23 4 24 2 25
REMARK SMILES IDX 1 26 14 27 18 28 19 29 20 30 21 32 25 33 26 34 27 35 22 38
REMARK SMILES IDX 23 39 24 40 15 42 16 43 17 44
REMARK H PARENT 6 9 30 19 18 31 25 36 24 41
REMARK Flexibility Score:   94.900
ROOT
ATOM      1  O   UNL     1      -3.321   2.361   5.487  1.00  0.00    -0.446 OA
ATOM      2  N   UNL     1      -2.819   1.150   7.321  1.00  0.00    -0.207 NA
ATOM      3  C   UNL     1      -2.502   2.190   6.571  1.00  0.00     0.217 A 
ATOM      4  C   UNL     1      -3.937   0.615   6.704  1.00  0.00     0.167 A 
ATOM      5  C   UNL     1      -4.238   1.358   5.589  1.00  0.00     0.231 A 
ENDROOT
BRANCH   4   6
ATOM      6  C   UNL     1      -4.622  -0.569   7.191  1.00  0.00     0.273 C 
ATOM      7  N   UNL     1      -5.960  -0.339   7.389  1.00  0.00    -0.341 N 
ATOM      8  O   UNL     1      -4.058  -1.633   7.419  1.00  0.00    -0.267 OA
ATOM      9  H   UNL     1      -6.268   0.618   7.246  1.00  0.00     0.164 HD
BRANCH   7  10
ATOM     10  C   UNL     1      -6.825  -1.262   8.097  1.00  0.00     0.145 C 
BRANCH  10  11
ATOM     11  C   UNL     1      -6.558  -1.094   9.586  1.00  0.00     0.116 A 
ATOM     12  S   UNL     1      -6.609  -2.469  10.624  1.00  0.00    -0.124 S 
ATOM     13  C   UNL     1      -6.195  -1.473  11.950  1.00  0.00     0.101 A 
ATOM     14  N   UNL     1      -6.265   0.052  10.179  1.00  0.00    -0.234 NA
ATOM     15  C   UNL     1      -6.037  -0.163  11.540  1.00  0.00     0.139 A 
BRANCH  15  16
ATOM     16  C   UNL     1      -5.655   0.929  12.439  1.00  0.00     0.271 C 
ATOM     17  O   UNL     1      -5.978   0.960  13.621  1.00  0.00    -0.267 OA
ATOM     18  N   UNL     1      -4.902   1.908  11.826  1.00  0.00    -0.339 N 
ATOM     19  H   UNL     1      -4.796   1.822  10.818  1.00  0.00     0.164 HD
BRANCH  18  20
ATOM     20  C   UNL     1      -4.489   3.104  12.547  1.00  0.00     0.168 CG0
ATOM     21  C   UNL     1      -3.282   2.823  13.445  1.00  0.00     0.041 C 
ATOM     22  G   UNL     1      -4.118   4.264  11.610  1.00  0.00     0.000 G0
ENDBRANCH  18  20
ENDBRANCH  15  16
ENDBRANCH  10  11
BRANCH  10  23
ATOM     23  C   UNL     1      -8.321  -1.055   7.737  1.00  0.00     0.015 C 
ATOM     24  C   UNL     1      -8.618   0.332   7.143  1.00  0.00     0.010 C 
BRANCH  23  25
ATOM     25  C   UNL     1      -8.858  -2.134   6.770  1.00  0.00     0.002 C 
ATOM     26  C   UNL     1     -10.360  -2.060   6.534  1.00  0.00     0.004 C 
ENDBRANCH  23  25
ENDBRANCH  10  23
ENDBRANCH   7  10
ENDBRANCH   4   6
BRANCH   3  27
ATOM     27  C   UNL     1      -1.341   3.127   6.765  1.00  0.00     0.171 C 
BRANCH  27  28
ATOM     28  N   UNL     1      -1.517   3.796   8.050  1.00  0.00    -0.342 N 
ATOM     29  C   UNL     1      -2.596   4.604   8.330  1.00  0.00     0.245 C 
ATOM     30  O   UNL     1      -3.500   4.810   7.523  1.00  0.00    -0.273 OA
ATOM     31  H   UNL     1      -0.868   3.581   8.806  1.00  0.00     0.164 HD
BRANCH  29  32
ATOM     32  C   UNL     1      -2.674   5.118   9.783  1.00  0.00     0.200 C 
BRANCH  32  33
ATOM     33  N   UNL     1      -3.200   4.038  10.627  1.00  0.00    -0.340 N 
ATOM     34  C   UNL     1      -4.123   4.290  11.621  1.00  0.00     0.243 CG0
ATOM     35  O   UNL     1      -4.496   5.431  11.886  1.00  0.00    -0.273 OA
ATOM     36  H   UNL     1      -2.888   3.090  10.451  1.00  0.00     0.164 HD
ATOM     37  G   UNL     1      -4.483   3.093  12.515  1.00  0.00     0.000 G0
ENDBRANCH  32  33
BRANCH  32  38
ATOM     38  C   UNL     1      -1.306   5.651  10.269  1.00  0.00     0.143 C 
ATOM     39  C   UNL     1      -1.392   6.938  11.082  1.00  0.00     0.041 C 
BRANCH  38  40
ATOM     40  O   UNL     1      -0.637   4.646  11.056  1.00  0.00    -0.391 OA
ATOM     41  H   UNL     1      -1.100   3.804  10.885  1.00  0.00     0.211 HD
ENDBRANCH  38  40
ENDBRANCH  32  38
ENDBRANCH  29  32
ENDBRANCH  27  28
BRANCH  27  42
ATOM     42  C   UNL     1       0.083   2.538   6.619  1.00  0.00     0.015 C 
ATOM     43  C   UNL     1       0.187   1.259   5.781  1.00  0.00     0.010 C 
ATOM     44  C   UNL     1       1.087   3.583   6.119  1.00  0.00     0.010 C 
ENDBRANCH  27  42
ENDBRANCH   3  27
TORSDOF 5
ENDMDL
MODEL 33
REMARK VINA RESULT:    -4.978      4.289      7.833
REMARK INTER + INTRA:         -11.295
REMARK INTER:                  -8.896
REMARK INTRA:                  -2.399
REMARK UNBOUND:                -2.388
REMARK SMILES CC[C@H](C)[C@H]1NC(=O)c2coc(n2)[C@H](C(C)C)NC(=O)[C@H]([C@@H](C)O)NC(=O)[C@H](C)NC(=O)c2csc1n2
REMARK SMILES IDX 11 1 13 2 12 3 9 4 10 5 7 6 6 7 8 8 5 10 36 11 35 12 34 13
REMARK SMILES IDX 37 14 33 15 31 16 32 17 30 18 28 20 29 21 3 23 4 24 2 25
REMARK SMILES IDX 1 26 14 27 18 28 19 29 20 30 21 32 25 33 26 34 27 35 22 38
REMARK SMILES IDX 23 39 24 40 15 42 16 43 17 44
REMARK H PARENT 6 9 30 19 18 31 25 36 24 41
REMARK Flexibility Score:   94.900
ROOT
ATOM      1  O   UNL     1      -3.416   2.297  12.953  1.00  0.00    -0.446 OA
ATOM      2  N   UNL     1      -4.398   2.852  11.002  1.00  0.00    -0.207 NA
ATOM      3  C   UNL     1      -3.295   2.434  11.596  1.00  0.00     0.217 A 
ATOM      4  C   UNL     1      -5.314   2.973  12.033  1.00  0.00     0.167 A 
ATOM      5  C   UNL     1      -4.710   2.633  13.218  1.00  0.00     0.231 A 
ENDROOT
BRANCH   4   6
ATOM      6  C   UNL     1      -6.679   3.427  11.832  1.00  0.00     0.273 C 
ATOM      7  N   UNL     1      -7.588   2.586  12.425  1.00  0.00    -0.341 N 
ATOM      8  O   UNL     1      -6.973   4.427  11.189  1.00  0.00    -0.267 OA
ATOM      9  H   UNL     1      -7.202   1.746  12.845  1.00  0.00     0.164 HD
BRANCH   7  10
ATOM     10  C   UNL     1      -9.014   2.660  12.176  1.00  0.00     0.145 C 
BRANCH  10  11
ATOM     11  C   UNL     1      -9.344   1.653  11.084  1.00  0.00     0.116 A 
ATOM     12  S   UNL     1     -10.990   1.305  10.712  1.00  0.00    -0.124 S 
ATOM     13  C   UNL     1     -10.478   0.230   9.486  1.00  0.00     0.101 A 
ATOM     14  N   UNL     1      -8.450   1.004  10.357  1.00  0.00    -0.234 NA
ATOM     15  C   UNL     1      -9.098   0.194   9.421  1.00  0.00     0.139 A 
BRANCH  15  16
ATOM     16  C   UNL     1      -8.352  -0.613   8.453  1.00  0.00     0.271 C 
ATOM     17  O   UNL     1      -8.898  -1.349   7.638  1.00  0.00    -0.267 OA
ATOM     18  N   UNL     1      -6.984  -0.463   8.549  1.00  0.00    -0.339 N 
ATOM     19  H   UNL     1      -6.652   0.088   9.337  1.00  0.00     0.164 HD
BRANCH  18  20
ATOM     20  C   UNL     1      -6.079  -1.239   7.712  1.00  0.00     0.168 CG0
ATOM     21  C   UNL     1      -5.587  -0.420   6.517  1.00  0.00     0.041 C 
ATOM     22  G   UNL     1      -4.845  -1.741   8.479  1.00  0.00     0.000 G0
ENDBRANCH  18  20
ENDBRANCH  15  16
ENDBRANCH  10  11
BRANCH  10  23
ATOM     23  C   UNL     1      -9.846   2.430  13.465  1.00  0.00     0.015 C 
ATOM     24  C   UNL     1      -8.986   2.082  14.691  1.00  0.00     0.010 C 
BRANCH  23  25
ATOM     25  C   UNL     1     -10.747   3.635  13.819  1.00  0.00     0.002 C 
ATOM     26  C   UNL     1     -10.155   4.984  13.435  1.00  0.00     0.004 C 
ENDBRANCH  23  25
ENDBRANCH  10  23
ENDBRANCH   7  10
ENDBRANCH   4   6
BRANCH   3  27
ATOM     27  C   UNL     1      -1.965   2.160  10.949  1.00  0.00     0.171 C 
BRANCH  27  28
ATOM     28  N   UNL     1      -2.147   1.071   9.996  1.00  0.00    -0.342 N 
ATOM     29  C   UNL     1      -2.204  -0.252  10.376  1.00  0.00     0.245 C 
ATOM     30  O   UNL     1      -2.122  -0.612  11.549  1.00  0.00    -0.273 OA
ATOM     31  H   UNL     1      -2.338   1.299   9.021  1.00  0.00     0.164 HD
BRANCH  29  32
ATOM     32  C   UNL     1      -2.531  -1.249   9.244  1.00  0.00     0.200 C 
BRANCH  32  33
ATOM     33  N   UNL     1      -3.804  -0.850   8.631  1.00  0.00    -0.340 N 
ATOM     34  C   UNL     1      -4.846  -1.744   8.497  1.00  0.00     0.243 CG0
ATOM     35  O   UNL     1      -4.735  -2.924   8.822  1.00  0.00    -0.273 OA
ATOM     36  H   UNL     1      -3.915   0.110   8.324  1.00  0.00     0.164 HD
ATOM     37  G   UNL     1      -6.066  -1.233   7.715  1.00  0.00     0.000 G0
ENDBRANCH  32  33
BRANCH  32  38
ATOM     38  C   UNL     1      -1.374  -1.344   8.223  1.00  0.00     0.143 C 
ATOM     39  C   UNL     1      -1.597  -0.532   6.952  1.00  0.00     0.041 C 
BRANCH  38  40
ATOM     40  O   UNL     1      -0.140  -0.922   8.836  1.00  0.00    -0.391 OA
ATOM     41  H   UNL     1       0.446  -1.703   8.850  1.00  0.00     0.211 HD
ENDBRANCH  38  40
ENDBRANCH  32  38
ENDBRANCH  29  32
ENDBRANCH  27  28
BRANCH  27  42
ATOM     42  C   UNL     1      -1.223   3.359  10.309  1.00  0.00     0.015 C 
ATOM     43  C   UNL     1      -1.387   3.503   8.791  1.00  0.00     0.010 C 
ATOM     44  C   UNL     1      -1.560   4.681  11.007  1.00  0.00     0.010 C 
ENDBRANCH  27  42
ENDBRANCH   3  27
TORSDOF 5
ENDMDL
MODEL 34
REMARK VINA RESULT:    -4.977      6.225      8.259
REMARK INTER + INTRA:         -11.293
REMARK INTER:                  -9.083
REMARK INTRA:                  -2.210
REMARK UNBOUND:                -2.388
REMARK SMILES CC[C@H](C)[C@H]1NC(=O)c2coc(n2)[C@H](C(C)C)NC(=O)[C@H]([C@@H](C)O)NC(=O)[C@H](C)NC(=O)c2csc1n2
REMARK SMILES IDX 11 1 13 2 12 3 9 4 10 5 7 6 6 7 8 8 5 10 36 11 35 12 34 13
REMARK SMILES IDX 37 14 33 15 31 16 32 17 30 18 28 20 29 21 3 23 4 24 2 25
REMARK SMILES IDX 1 26 14 27 18 28 19 29 20 30 21 32 25 33 26 34 27 35 22 38
REMARK SMILES IDX 23 39 24 40 15 42 16 43 17 44
REMARK H PARENT 6 9 30 19 18 31 25 36 24 41
REMARK Flexibility Score:   94.900
ROOT
ATOM      1  O   UNL     1      -9.926   0.706  11.798  1.00  0.00    -0.446 OA
ATOM      2  N   UNL     1      -9.383   2.876  11.519  1.00  0.00    -0.207 NA
ATOM      3  C   UNL     1      -9.317   1.654  11.020  1.00  0.00     0.217 A 
ATOM      4  C   UNL     1     -10.108   2.725  12.689  1.00  0.00     0.167 A 
ATOM      5  C   UNL     1     -10.436   1.401  12.852  1.00  0.00     0.231 A 
ENDROOT
BRANCH   4   6
ATOM      6  C   UNL     1     -10.413   3.830  13.581  1.00  0.00     0.273 C 
ATOM      7  N   UNL     1     -10.394   5.035  12.925  1.00  0.00    -0.341 N 
ATOM      8  O   UNL     1     -10.634   3.694  14.778  1.00  0.00    -0.267 OA
ATOM      9  H   UNL     1     -10.104   5.002  11.951  1.00  0.00     0.164 HD
BRANCH   7  10
ATOM     10  C   UNL     1     -10.419   6.311  13.612  1.00  0.00     0.145 C 
BRANCH  10  11
ATOM     11  C   UNL     1      -9.014   6.582  14.131  1.00  0.00     0.116 A 
ATOM     12  S   UNL     1      -8.790   7.616  15.491  1.00  0.00    -0.124 S 
ATOM     13  C   UNL     1      -7.105   7.344  15.411  1.00  0.00     0.101 A 
ATOM     14  N   UNL     1      -7.906   6.065  13.625  1.00  0.00    -0.234 NA
ATOM     15  C   UNL     1      -6.802   6.488  14.370  1.00  0.00     0.139 A 
BRANCH  15  16
ATOM     16  C   UNL     1      -5.445   6.037  14.056  1.00  0.00     0.271 C 
ATOM     17  O   UNL     1      -4.442   6.609  14.470  1.00  0.00    -0.267 OA
ATOM     18  N   UNL     1      -5.408   4.915  13.256  1.00  0.00    -0.339 N 
ATOM     19  H   UNL     1      -6.302   4.601  12.888  1.00  0.00     0.164 HD
BRANCH  18  20
ATOM     20  C   UNL     1      -4.143   4.364  12.787  1.00  0.00     0.168 CG0
ATOM     21  C   UNL     1      -3.746   3.122  13.587  1.00  0.00     0.041 C 
ATOM     22  G   UNL     1      -4.180   3.974  11.300  1.00  0.00     0.000 G0
ENDBRANCH  18  20
ENDBRANCH  15  16
ENDBRANCH  10  11
BRANCH  10  23
ATOM     23  C   UNL     1     -10.944   7.455  12.704  1.00  0.00     0.015 C 
ATOM     24  C   UNL     1      -9.991   7.803  11.550  1.00  0.00     0.010 C 
BRANCH  23  25
ATOM     25  C   UNL     1     -12.344   7.159  12.118  1.00  0.00     0.002 C 
ATOM     26  C   UNL     1     -12.651   7.922  10.837  1.00  0.00     0.004 C 
ENDBRANCH  23  25
ENDBRANCH  10  23
ENDBRANCH   7  10
ENDBRANCH   4   6
BRANCH   3  27
ATOM     27  C   UNL     1      -8.615   1.226   9.760  1.00  0.00     0.171 C 
BRANCH  27  28
ATOM     28  N   UNL     1      -7.180   1.374   9.976  1.00  0.00    -0.342 N 
ATOM     29  C   UNL     1      -6.379   2.151   9.170  1.00  0.00     0.245 C 
ATOM     30  O   UNL     1      -6.817   2.791   8.215  1.00  0.00    -0.273 OA
ATOM     31  H   UNL     1      -6.766   0.966  10.814  1.00  0.00     0.164 HD
BRANCH  29  32
ATOM     32  C   UNL     1      -4.912   2.287   9.631  1.00  0.00     0.200 C 
BRANCH  32  33
ATOM     33  N   UNL     1      -4.907   2.843  10.990  1.00  0.00    -0.340 N 
ATOM     34  C   UNL     1      -4.180   3.974  11.297  1.00  0.00     0.243 CG0
ATOM     35  O   UNL     1      -3.458   4.527  10.470  1.00  0.00    -0.273 OA
ATOM     36  H   UNL     1      -5.469   2.391  11.701  1.00  0.00     0.164 HD
ATOM     37  G   UNL     1      -4.153   4.366  12.784  1.00  0.00     0.000 G0
ENDBRANCH  32  33
BRANCH  32  38
ATOM     38  C   UNL     1      -4.160   0.940   9.527  1.00  0.00     0.143 C 
ATOM     39  C   UNL     1      -2.959   0.969   8.588  1.00  0.00     0.041 C 
BRANCH  38  40
ATOM     40  O   UNL     1      -3.721   0.519  10.834  1.00  0.00    -0.391 OA
ATOM     41  H   UNL     1      -4.284   0.985  11.481  1.00  0.00     0.211 HD
ENDBRANCH  38  40
ENDBRANCH  32  38
ENDBRANCH  29  32
ENDBRANCH  27  28
BRANCH  27  42
ATOM     42  C   UNL     1      -8.965  -0.169   9.188  1.00  0.00     0.015 C 
ATOM     43  C   UNL     1      -9.193  -0.225   7.673  1.00  0.00     0.010 C 
ATOM     44  C   UNL     1      -7.946  -1.233   9.611  1.00  0.00     0.010 C 
ENDBRANCH  27  42
ENDBRANCH   3  27
TORSDOF 5
ENDMDL
MODEL 35
REMARK VINA RESULT:    -4.945      4.029      4.967
REMARK INTER + INTRA:         -11.235
REMARK INTER:                  -9.602
REMARK INTRA:                  -1.633
REMARK UNBOUND:                -2.388
REMARK SMILES CC[C@H](C)[C@H]1NC(=O)c2coc(n2)[C@H](C(C)C)NC(=O)[C@H]([C@@H](C)O)NC(=O)[C@H](C)NC(=O)c2csc1n2
REMARK SMILES IDX 11 1 13 2 12 3 9 4 10 5 7 6 6 7 8 8 5 10 36 11 35 12 34 13
REMARK SMILES IDX 37 14 33 15 31 16 32 17 30 18 28 20 29 21 3 23 4 24 2 25
REMARK SMILES IDX 1 26 14 27 18 28 19 29 20 30 21 32 25 33 26 34 27 35 22 38
REMARK SMILES IDX 23 39 24 40 15 42 16 43 17 44
REMARK H PARENT 6 9 30 19 18 31 25 36 24 41
REMARK Flexibility Score:   94.900
ROOT
ATOM      1  O   UNL     1      -2.037   2.589   7.769  1.00  0.00    -0.446 OA
ATOM      2  N   UNL     1      -3.789   1.653   8.836  1.00  0.00    -0.207 NA
ATOM      3  C   UNL     1      -2.511   1.546   8.519  1.00  0.00     0.217 A 
ATOM      4  C   UNL     1      -4.176   2.859   8.279  1.00  0.00     0.167 A 
ATOM      5  C   UNL     1      -3.105   3.425   7.631  1.00  0.00     0.231 A 
ENDROOT
BRANCH   4   6
ATOM      6  C   UNL     1      -5.530   3.378   8.371  1.00  0.00     0.273 C 
ATOM      7  N   UNL     1      -5.564   4.607   8.980  1.00  0.00    -0.341 N 
ATOM      8  O   UNL     1      -6.516   2.771   7.973  1.00  0.00    -0.267 OA
ATOM      9  H   UNL     1      -4.677   4.945   9.341  1.00  0.00     0.164 HD
BRANCH   7  10
ATOM     10  C   UNL     1      -6.792   5.238   9.421  1.00  0.00     0.145 C 
BRANCH  10  11
ATOM     11  C   UNL     1      -7.056   4.783  10.849  1.00  0.00     0.116 A 
ATOM     12  S   UNL     1      -7.444   5.948  12.059  1.00  0.00    -0.124 S 
ATOM     13  C   UNL     1      -7.602   4.692  13.207  1.00  0.00     0.101 A 
ATOM     14  N   UNL     1      -7.027   3.527  11.262  1.00  0.00    -0.234 NA
ATOM     15  C   UNL     1      -7.358   3.466  12.618  1.00  0.00     0.139 A 
BRANCH  15  16
ATOM     16  C   UNL     1      -7.442   2.190  13.333  1.00  0.00     0.271 C 
ATOM     17  O   UNL     1      -8.101   2.043  14.356  1.00  0.00    -0.267 OA
ATOM     18  N   UNL     1      -6.712   1.180  12.744  1.00  0.00    -0.339 N 
ATOM     19  H   UNL     1      -6.120   1.455  11.965  1.00  0.00     0.164 HD
BRANCH  18  20
ATOM     20  C   UNL     1      -6.622  -0.141  13.353  1.00  0.00     0.168 CG0
ATOM     21  C   UNL     1      -7.544  -1.140  12.652  1.00  0.00     0.041 C 
ATOM     22  G   UNL     1      -5.196  -0.714  13.321  1.00  0.00     0.000 G0
ENDBRANCH  18  20
ENDBRANCH  15  16
ENDBRANCH  10  11
BRANCH  10  23
ATOM     23  C   UNL     1      -6.737   6.783   9.293  1.00  0.00     0.015 C 
ATOM     24  C   UNL     1      -5.563   7.281   8.433  1.00  0.00     0.010 C 
BRANCH  23  25
ATOM     25  C   UNL     1      -8.047   7.385   8.737  1.00  0.00     0.002 C 
ATOM     26  C   UNL     1      -8.512   8.637   9.469  1.00  0.00     0.004 C 
ENDBRANCH  23  25
ENDBRANCH  10  23
ENDBRANCH   7  10
ENDBRANCH   4   6
BRANCH   3  27
ATOM     27  C   UNL     1      -1.587   0.405   8.850  1.00  0.00     0.171 C 
BRANCH  27  28
ATOM     28  N   UNL     1      -2.306  -0.510   9.731  1.00  0.00    -0.342 N 
ATOM     29  C   UNL     1      -2.377  -0.332  11.094  1.00  0.00     0.245 C 
ATOM     30  O   UNL     1      -1.853   0.620  11.670  1.00  0.00    -0.273 OA
ATOM     31  H   UNL     1      -2.860  -1.257   9.314  1.00  0.00     0.164 HD
BRANCH  29  32
ATOM     32  C   UNL     1      -3.288  -1.329  11.842  1.00  0.00     0.200 C 
BRANCH  32  33
ATOM     33  N   UNL     1      -4.587  -0.684  12.070  1.00  0.00    -0.340 N 
ATOM     34  C   UNL     1      -5.204  -0.734  13.303  1.00  0.00     0.243 CG0
ATOM     35  O   UNL     1      -4.730  -1.369  14.242  1.00  0.00    -0.273 OA
ATOM     36  H   UNL     1      -5.018  -0.178  11.306  1.00  0.00     0.164 HD
ATOM     37  G   UNL     1      -6.620  -0.137  13.364  1.00  0.00     0.000 G0
ENDBRANCH  32  33
BRANCH  32  38
ATOM     38  C   UNL     1      -3.405  -2.669  11.080  1.00  0.00     0.143 C 
ATOM     39  C   UNL     1      -2.171  -3.556  11.186  1.00  0.00     0.041 C 
BRANCH  38  40
ATOM     40  O   UNL     1      -4.551  -3.405  11.550  1.00  0.00    -0.391 OA
ATOM     41  H   UNL     1      -5.270  -3.243  10.910  1.00  0.00     0.211 HD
ENDBRANCH  38  40
ENDBRANCH  32  38
ENDBRANCH  29  32
ENDBRANCH  27  28
BRANCH  27  42
ATOM     42  C   UNL     1      -0.927  -0.344   7.667  1.00  0.00     0.015 C 
ATOM     43  C   UNL     1       0.184   0.421   6.938  1.00  0.00     0.010 C 
ATOM     44  C   UNL     1      -0.434  -1.737   8.074  1.00  0.00     0.010 C 
ENDBRANCH  27  42
ENDBRANCH   3  27
TORSDOF 5
ENDMDL
MODEL 36
REMARK VINA RESULT:    -4.939      5.665      8.328
REMARK INTER + INTRA:         -11.225
REMARK INTER:                  -9.066
REMARK INTRA:                  -2.159
REMARK UNBOUND:                -2.388
REMARK SMILES CC[C@H](C)[C@H]1NC(=O)c2coc(n2)[C@H](C(C)C)NC(=O)[C@H]([C@@H](C)O)NC(=O)[C@H](C)NC(=O)c2csc1n2
REMARK SMILES IDX 11 1 13 2 12 3 9 4 10 5 7 6 6 7 8 8 5 10 36 11 35 12 34 13
REMARK SMILES IDX 37 14 33 15 31 16 32 17 30 18 28 20 29 21 3 23 4 24 2 25
REMARK SMILES IDX 1 26 14 27 18 28 19 29 20 30 21 32 25 33 26 34 27 35 22 38
REMARK SMILES IDX 23 39 24 40 15 42 16 43 17 44
REMARK H PARENT 6 9 30 19 18 31 25 36 24 41
REMARK Flexibility Score:   94.900
ROOT
ATOM      1  O   UNL     1      -9.174  -1.436   9.695  1.00  0.00    -0.446 OA
ATOM      2  N   UNL     1      -9.474   0.685  10.396  1.00  0.00    -0.207 NA
ATOM      3  C   UNL     1      -8.994  -0.101   9.449  1.00  0.00     0.217 A 
ATOM      4  C   UNL     1     -10.031  -0.189  11.313  1.00  0.00     0.167 A 
ATOM      5  C   UNL     1      -9.845  -1.479  10.879  1.00  0.00     0.231 A 
ENDROOT
BRANCH   4   6
ATOM      6  C   UNL     1     -10.670   0.249  12.542  1.00  0.00     0.273 C 
ATOM      7  N   UNL     1     -10.340   1.544  12.853  1.00  0.00    -0.341 N 
ATOM      8  O   UNL     1     -11.393  -0.468  13.222  1.00  0.00    -0.267 OA
ATOM      9  H   UNL     1      -9.656   1.983  12.244  1.00  0.00     0.164 HD
BRANCH   7  10
ATOM     10  C   UNL     1     -10.633   2.148  14.138  1.00  0.00     0.145 C 
BRANCH  10  11
ATOM     11  C   UNL     1      -9.430   2.991  14.536  1.00  0.00     0.116 A 
ATOM     12  S   UNL     1      -9.505   3.973  15.950  1.00  0.00    -0.124 S 
ATOM     13  C   UNL     1      -7.893   4.473  15.679  1.00  0.00     0.101 A 
ATOM     14  N   UNL     1      -8.283   3.032  13.879  1.00  0.00    -0.234 NA
ATOM     15  C   UNL     1      -7.385   3.872  14.543  1.00  0.00     0.139 A 
BRANCH  15  16
ATOM     16  C   UNL     1      -6.019   4.075  14.058  1.00  0.00     0.271 C 
ATOM     17  O   UNL     1      -5.290   4.968  14.477  1.00  0.00    -0.267 OA
ATOM     18  N   UNL     1      -5.637   3.169  13.091  1.00  0.00    -0.339 N 
ATOM     19  H   UNL     1      -6.367   2.549  12.750  1.00  0.00     0.164 HD
BRANCH  18  20
ATOM     20  C   UNL     1      -4.335   3.259  12.444  1.00  0.00     0.168 CG0
ATOM     21  C   UNL     1      -3.383   2.176  12.955  1.00  0.00     0.041 C 
ATOM     22  G   UNL     1      -4.421   3.126  10.915  1.00  0.00     0.000 G0
ENDBRANCH  18  20
ENDBRANCH  15  16
ENDBRANCH  10  11
BRANCH  10  23
ATOM     23  C   UNL     1     -11.949   2.970  14.113  1.00  0.00     0.015 C 
ATOM     24  C   UNL     1     -12.175   3.717  12.787  1.00  0.00     0.010 C 
BRANCH  23  25
ATOM     25  C   UNL     1     -13.198   2.110  14.415  1.00  0.00     0.002 C 
ATOM     26  C   UNL     1     -13.172   1.442  15.783  1.00  0.00     0.004 C 
ENDBRANCH  23  25
ENDBRANCH  10  23
ENDBRANCH   7  10
ENDBRANCH   4   6
BRANCH   3  27
ATOM     27  C   UNL     1      -8.252   0.321   8.210  1.00  0.00     0.171 C 
BRANCH  27  28
ATOM     28  N   UNL     1      -6.839   0.437   8.553  1.00  0.00    -0.342 N 
ATOM     29  C   UNL     1      -6.139   1.618   8.450  1.00  0.00     0.245 C 
ATOM     30  O   UNL     1      -6.659   2.669   8.076  1.00  0.00    -0.273 OA
ATOM     31  H   UNL     1      -6.371  -0.362   8.979  1.00  0.00     0.164 HD
BRANCH  29  32
ATOM     32  C   UNL     1      -4.690   1.575   8.980  1.00  0.00     0.200 C 
BRANCH  32  33
ATOM     33  N   UNL     1      -4.717   1.867  10.418  1.00  0.00    -0.340 N 
ATOM     34  C   UNL     1      -4.411   3.123  10.900  1.00  0.00     0.243 CG0
ATOM     35  O   UNL     1      -4.042   4.031  10.158  1.00  0.00    -0.273 OA
ATOM     36  H   UNL     1      -4.987   1.129  11.058  1.00  0.00     0.164 HD
ATOM     37  G   UNL     1      -4.344   3.252  12.430  1.00  0.00     0.000 G0
ENDBRANCH  32  33
BRANCH  32  38
ATOM     38  C   UNL     1      -4.008   0.227   8.650  1.00  0.00     0.143 C 
ATOM     39  C   UNL     1      -2.488   0.257   8.757  1.00  0.00     0.041 C 
BRANCH  38  40
ATOM     40  O   UNL     1      -4.517  -0.807   9.515  1.00  0.00    -0.391 OA
ATOM     41  H   UNL     1      -3.742  -1.223   9.939  1.00  0.00     0.211 HD
ENDBRANCH  38  40
ENDBRANCH  32  38
ENDBRANCH  29  32
ENDBRANCH  27  28
BRANCH  27  42
ATOM     42  C   UNL     1      -8.461  -0.526   6.931  1.00  0.00     0.015 C 
ATOM     43  C   UNL     1      -7.401  -1.603   6.672  1.00  0.00     0.010 C 
ATOM     44  C   UNL     1      -9.865  -1.137   6.871  1.00  0.00     0.010 C 
ENDBRANCH  27  42
ENDBRANCH   3  27
TORSDOF 5
ENDMDL
MODEL 37
REMARK VINA RESULT:    -4.927      4.448      9.023
REMARK INTER + INTRA:         -11.203
REMARK INTER:                  -8.724
REMARK INTRA:                  -2.479
REMARK UNBOUND:                -2.388
REMARK SMILES CC[C@H](C)[C@H]1NC(=O)c2coc(n2)[C@H](C(C)C)NC(=O)[C@H]([C@@H](C)O)NC(=O)[C@H](C)NC(=O)c2csc1n2
REMARK SMILES IDX 11 1 13 2 12 3 9 4 10 5 7 6 6 7 8 8 5 10 36 11 35 12 34 13
REMARK SMILES IDX 37 14 33 15 31 16 32 17 30 18 28 20 29 21 3 23 4 24 2 25
REMARK SMILES IDX 1 26 14 27 18 28 19 29 20 30 21 32 25 33 26 34 27 35 22 38
REMARK SMILES IDX 23 39 24 40 15 42 16 43 17 44
REMARK H PARENT 6 9 30 19 18 31 25 36 24 41
REMARK Flexibility Score:   94.900
ROOT
ATOM      1  O   UNL     1      -5.992   5.347  11.620  1.00  0.00    -0.446 OA
ATOM      2  N   UNL     1      -6.756   4.279   9.787  1.00  0.00    -0.207 NA
ATOM      3  C   UNL     1      -6.022   5.274  10.252  1.00  0.00     0.217 A 
ATOM      4  C   UNL     1      -7.217   3.638  10.924  1.00  0.00     0.167 A 
ATOM      5  C   UNL     1      -6.747   4.292  12.036  1.00  0.00     0.231 A 
ENDROOT
BRANCH   4   6
ATOM      6  C   UNL     1      -8.088   2.476  10.881  1.00  0.00     0.273 C 
ATOM      7  N   UNL     1      -7.375   1.309  10.769  1.00  0.00    -0.341 N 
ATOM      8  O   UNL     1      -9.310   2.543  10.916  1.00  0.00    -0.267 OA
ATOM      9  H   UNL     1      -6.371   1.415  10.657  1.00  0.00     0.164 HD
BRANCH   7  10
ATOM     10  C   UNL     1      -7.989   0.033  10.459  1.00  0.00     0.145 C 
BRANCH  10  11
ATOM     11  C   UNL     1      -7.439  -0.429   9.117  1.00  0.00     0.116 A 
ATOM     12  S   UNL     1      -8.000  -1.905   8.426  1.00  0.00    -0.124 S 
ATOM     13  C   UNL     1      -6.998  -1.640   7.066  1.00  0.00     0.101 A 
ATOM     14  N   UNL     1      -6.546   0.229   8.397  1.00  0.00    -0.234 NA
ATOM     15  C   UNL     1      -6.300  -0.456   7.204  1.00  0.00     0.139 A 
BRANCH  15  16
ATOM     16  C   UNL     1      -5.377   0.065   6.194  1.00  0.00     0.271 C 
ATOM     17  O   UNL     1      -5.197  -0.483   5.112  1.00  0.00    -0.267 OA
ATOM     18  N   UNL     1      -4.738   1.225   6.577  1.00  0.00    -0.339 N 
ATOM     19  H   UNL     1      -4.888   1.518   7.539  1.00  0.00     0.164 HD
BRANCH  18  20
ATOM     20  C   UNL     1      -3.734   1.850   5.727  1.00  0.00     0.168 CG0
ATOM     21  C   UNL     1      -4.372   2.827   4.737  1.00  0.00     0.041 C 
ATOM     22  G   UNL     1      -2.672   2.621   6.529  1.00  0.00     0.000 G0
ENDBRANCH  18  20
ENDBRANCH  15  16
ENDBRANCH  10  11
BRANCH  10  23
ATOM     23  C   UNL     1      -7.764  -1.014  11.582  1.00  0.00     0.015 C 
ATOM     24  C   UNL     1      -6.986  -0.458  12.786  1.00  0.00     0.010 C 
BRANCH  23  25
ATOM     25  C   UNL     1      -9.083  -1.638  12.091  1.00  0.00     0.002 C 
ATOM     26  C   UNL     1     -10.243  -0.654  12.169  1.00  0.00     0.004 C 
ENDBRANCH  23  25
ENDBRANCH  10  23
ENDBRANCH   7  10
ENDBRANCH   4   6
BRANCH   3  27
ATOM     27  C   UNL     1      -5.297   6.319   9.449  1.00  0.00     0.171 C 
BRANCH  27  28
ATOM     28  N   UNL     1      -4.355   5.632   8.571  1.00  0.00    -0.342 N 
ATOM     29  C   UNL     1      -3.012   5.526   8.852  1.00  0.00     0.245 C 
ATOM     30  O   UNL     1      -2.508   5.990   9.874  1.00  0.00    -0.273 OA
ATOM     31  H   UNL     1      -4.718   5.125   7.764  1.00  0.00     0.164 HD
BRANCH  29  32
ATOM     32  C   UNL     1      -2.199   4.654   7.872  1.00  0.00     0.200 C 
BRANCH  32  33
ATOM     33  N   UNL     1      -3.132   3.775   7.155  1.00  0.00    -0.340 N 
ATOM     34  C   UNL     1      -2.700   2.610   6.557  1.00  0.00     0.243 CG0
ATOM     35  O   UNL     1      -1.514   2.288   6.541  1.00  0.00    -0.273 OA
ATOM     36  H   UNL     1      -4.112   4.030   7.125  1.00  0.00     0.164 HD
ATOM     37  G   UNL     1      -3.752   1.859   5.725  1.00  0.00     0.000 G0
ENDBRANCH  32  33
BRANCH  32  38
ATOM     38  C   UNL     1      -1.338   5.521   6.924  1.00  0.00     0.143 C 
ATOM     39  C   UNL     1      -2.133   6.227   5.833  1.00  0.00     0.041 C 
BRANCH  38  40
ATOM     40  O   UNL     1      -0.609   6.506   7.683  1.00  0.00    -0.391 OA
ATOM     41  H   UNL     1      -0.908   6.423   8.608  1.00  0.00     0.211 HD
ENDBRANCH  38  40
ENDBRANCH  32  38
ENDBRANCH  29  32
ENDBRANCH  27  28
BRANCH  27  42
ATOM     42  C   UNL     1      -6.157   7.345   8.671  1.00  0.00     0.015 C 
ATOM     43  C   UNL     1      -7.048   8.248   9.531  1.00  0.00     0.010 C 
ATOM     44  C   UNL     1      -5.312   8.190   7.712  1.00  0.00     0.010 C 
ENDBRANCH  27  42
ENDBRANCH   3  27
TORSDOF 5
ENDMDL
MODEL 38
REMARK VINA RESULT:    -4.900      5.272      8.698
REMARK INTER + INTRA:         -11.155
REMARK INTER:                  -8.808
REMARK INTRA:                  -2.347
REMARK UNBOUND:                -2.388
REMARK SMILES CC[C@H](C)[C@H]1NC(=O)c2coc(n2)[C@H](C(C)C)NC(=O)[C@H]([C@@H](C)O)NC(=O)[C@H](C)NC(=O)c2csc1n2
REMARK SMILES IDX 11 1 13 2 12 3 9 4 10 5 7 6 6 7 8 8 5 10 36 11 35 12 34 13
REMARK SMILES IDX 37 14 33 15 31 16 32 17 30 18 28 20 29 21 3 23 4 24 2 25
REMARK SMILES IDX 1 26 14 27 18 28 19 29 20 30 21 32 25 33 26 34 27 35 22 38
REMARK SMILES IDX 23 39 24 40 15 42 16 43 17 44
REMARK H PARENT 6 9 30 19 18 31 25 36 24 41
REMARK Flexibility Score:   94.900
ROOT
ATOM      1  O   UNL     1      -4.628   3.866  14.113  1.00  0.00    -0.446 OA
ATOM      2  N   UNL     1      -5.751   2.327  12.908  1.00  0.00    -0.207 NA
ATOM      3  C   UNL     1      -5.834   3.427  13.635  1.00  0.00     0.217 A 
ATOM      4  C   UNL     1      -4.398   2.038  12.883  1.00  0.00     0.167 A 
ATOM      5  C   UNL     1      -3.719   2.980  13.618  1.00  0.00     0.231 A 
ENDROOT
BRANCH   4   6
ATOM      6  C   UNL     1      -3.845   0.884  12.196  1.00  0.00     0.273 C 
ATOM      7  N   UNL     1      -3.505   1.177  10.900  1.00  0.00    -0.341 N 
ATOM      8  O   UNL     1      -3.726  -0.220  12.714  1.00  0.00    -0.267 OA
ATOM      9  H   UNL     1      -3.747   2.111  10.581  1.00  0.00     0.164 HD
BRANCH   7  10
ATOM     10  C   UNL     1      -3.166   0.162   9.921  1.00  0.00     0.145 C 
BRANCH  10  11
ATOM     11  C   UNL     1      -4.421  -0.656   9.653  1.00  0.00     0.116 A 
ATOM     12  S   UNL     1      -4.408  -2.356   9.933  1.00  0.00    -0.124 S 
ATOM     13  C   UNL     1      -6.050  -2.438   9.465  1.00  0.00     0.101 A 
ATOM     14  N   UNL     1      -5.570  -0.162   9.222  1.00  0.00    -0.234 NA
ATOM     15  C   UNL     1      -6.519  -1.183   9.127  1.00  0.00     0.139 A 
BRANCH  15  16
ATOM     16  C   UNL     1      -7.897  -0.916   8.709  1.00  0.00     0.271 C 
ATOM     17  O   UNL     1      -8.307  -1.156   7.579  1.00  0.00    -0.267 OA
ATOM     18  N   UNL     1      -8.680  -0.373   9.706  1.00  0.00    -0.339 N 
ATOM     19  H   UNL     1      -8.195  -0.118  10.562  1.00  0.00     0.164 HD
BRANCH  18  20
ATOM     20  C   UNL     1     -10.059   0.021   9.452  1.00  0.00     0.168 CG0
ATOM     21  C   UNL     1     -11.006  -1.177   9.549  1.00  0.00     0.041 C 
ATOM     22  G   UNL     1     -10.560   1.096  10.430  1.00  0.00     0.000 G0
ENDBRANCH  18  20
ENDBRANCH  15  16
ENDBRANCH  10  11
BRANCH  10  23
ATOM     23  C   UNL     1      -2.570   0.774   8.626  1.00  0.00     0.015 C 
ATOM     24  C   UNL     1      -2.215   2.264   8.763  1.00  0.00     0.010 C 
BRANCH  23  25
ATOM     25  C   UNL     1      -1.323   0.012   8.123  1.00  0.00     0.002 C 
ATOM     26  C   UNL     1      -0.626  -0.811   9.198  1.00  0.00     0.004 C 
ENDBRANCH  23  25
ENDBRANCH  10  23
ENDBRANCH   7  10
ENDBRANCH   4   6
BRANCH   3  27
ATOM     27  C   UNL     1      -7.085   4.173  14.012  1.00  0.00     0.171 C 
BRANCH  27  28
ATOM     28  N   UNL     1      -8.220   3.288  13.775  1.00  0.00    -0.342 N 
ATOM     29  C   UNL     1      -9.055   3.419  12.687  1.00  0.00     0.245 C 
ATOM     30  O   UNL     1      -8.896   4.283  11.826  1.00  0.00    -0.273 OA
ATOM     31  H   UNL     1      -8.347   2.480  14.383  1.00  0.00     0.164 HD
BRANCH  29  32
ATOM     32  C   UNL     1     -10.121   2.313  12.538  1.00  0.00     0.200 C 
BRANCH  32  33
ATOM     33  N   UNL     1      -9.705   1.416  11.453  1.00  0.00    -0.340 N 
ATOM     34  C   UNL     1     -10.569   1.079  10.431  1.00  0.00     0.243 CG0
ATOM     35  O   UNL     1     -11.738   1.460  10.417  1.00  0.00    -0.273 OA
ATOM     36  H   UNL     1      -8.756   1.061  11.454  1.00  0.00     0.164 HD
ATOM     37  G   UNL     1     -10.050   0.026   9.439  1.00  0.00     0.000 G0
ENDBRANCH  32  33
BRANCH  32  38
ATOM     38  C   UNL     1     -10.360   1.573  13.874  1.00  0.00     0.143 C 
ATOM     39  C   UNL     1     -11.784   1.061  14.057  1.00  0.00     0.041 C 
BRANCH  38  40
ATOM     40  O   UNL     1      -9.446   0.465  13.994  1.00  0.00    -0.391 OA
ATOM     41  H   UNL     1      -9.196   0.409  14.936  1.00  0.00     0.211 HD
ENDBRANCH  38  40
ENDBRANCH  32  38
ENDBRANCH  29  32
ENDBRANCH  27  28
BRANCH  27  42
ATOM     42  C   UNL     1      -7.140   4.805  15.424  1.00  0.00     0.015 C 
ATOM     43  C   UNL     1      -6.884   6.316  15.482  1.00  0.00     0.010 C 
ATOM     44  C   UNL     1      -8.441   4.458  16.156  1.00  0.00     0.010 C 
ENDBRANCH  27  42
ENDBRANCH   3  27
TORSDOF 5
ENDMDL
MODEL 39
REMARK VINA RESULT:    -4.887      3.324      7.083
REMARK INTER + INTRA:         -11.132
REMARK INTER:                  -8.814
REMARK INTRA:                  -2.318
REMARK UNBOUND:                -2.388
REMARK SMILES CC[C@H](C)[C@H]1NC(=O)c2coc(n2)[C@H](C(C)C)NC(=O)[C@H]([C@@H](C)O)NC(=O)[C@H](C)NC(=O)c2csc1n2
REMARK SMILES IDX 11 1 13 2 12 3 9 4 10 5 7 6 6 7 8 8 5 10 36 11 35 12 34 13
REMARK SMILES IDX 37 14 33 15 31 16 32 17 30 18 28 20 29 21 3 23 4 24 2 25
REMARK SMILES IDX 1 26 14 27 18 28 19 29 20 30 21 32 25 33 26 34 27 35 22 38
REMARK SMILES IDX 23 39 24 40 15 42 16 43 17 44
REMARK H PARENT 6 9 30 19 18 31 25 36 24 41
REMARK Flexibility Score:   94.900
ROOT
ATOM      1  O   UNL     1      -2.542   2.998   6.040  1.00  0.00    -0.446 OA
ATOM      2  N   UNL     1      -2.725   1.736   7.898  1.00  0.00    -0.207 NA
ATOM      3  C   UNL     1      -2.601   2.956   7.407  1.00  0.00     0.217 A 
ATOM      4  C   UNL     1      -2.779   0.924   6.779  1.00  0.00     0.167 A 
ATOM      5  C   UNL     1      -2.668   1.699   5.651  1.00  0.00     0.231 A 
ENDROOT
BRANCH   4   6
ATOM      6  C   UNL     1      -2.901  -0.522   6.853  1.00  0.00     0.273 C 
ATOM      7  N   UNL     1      -4.211  -0.918   6.952  1.00  0.00    -0.341 N 
ATOM      8  O   UNL     1      -1.942  -1.284   6.851  1.00  0.00    -0.267 OA
ATOM      9  H   UNL     1      -4.893  -0.169   7.034  1.00  0.00     0.164 HD
BRANCH   7  10
ATOM     10  C   UNL     1      -4.606  -2.272   7.286  1.00  0.00     0.145 C 
BRANCH  10  11
ATOM     11  C   UNL     1      -5.618  -2.191   8.419  1.00  0.00     0.116 A 
ATOM     12  S   UNL     1      -5.998  -3.604   9.329  1.00  0.00    -0.124 S 
ATOM     13  C   UNL     1      -7.061  -2.683  10.301  1.00  0.00     0.101 A 
ATOM     14  N   UNL     1      -6.248  -1.090   8.795  1.00  0.00    -0.234 NA
ATOM     15  C   UNL     1      -7.070  -1.364   9.891  1.00  0.00     0.139 A 
BRANCH  15  16
ATOM     16  C   UNL     1      -7.860  -0.316  10.541  1.00  0.00     0.271 C 
ATOM     17  O   UNL     1      -9.076  -0.223  10.411  1.00  0.00    -0.267 OA
ATOM     18  N   UNL     1      -7.107   0.546  11.309  1.00  0.00    -0.339 N 
ATOM     19  H   UNL     1      -6.098   0.431  11.247  1.00  0.00     0.164 HD
BRANCH  18  20
ATOM     20  C   UNL     1      -7.714   1.690  11.976  1.00  0.00     0.168 CG0
ATOM     21  C   UNL     1      -8.151   1.336  13.399  1.00  0.00     0.041 C 
ATOM     22  G   UNL     1      -6.769   2.899  12.061  1.00  0.00     0.000 G0
ENDBRANCH  18  20
ENDBRANCH  15  16
ENDBRANCH  10  11
BRANCH  10  23
ATOM     23  C   UNL     1      -5.155  -3.043   6.056  1.00  0.00     0.015 C 
ATOM     24  C   UNL     1      -6.211  -2.253   5.265  1.00  0.00     0.010 C 
BRANCH  23  25
ATOM     25  C   UNL     1      -4.040  -3.491   5.084  1.00  0.00     0.002 C 
ATOM     26  C   UNL     1      -3.302  -4.747   5.525  1.00  0.00     0.004 C 
ENDBRANCH  23  25
ENDBRANCH  10  23
ENDBRANCH   7  10
ENDBRANCH   4   6
BRANCH   3  27
ATOM     27  C   UNL     1      -2.469   4.237   8.185  1.00  0.00     0.171 C 
BRANCH  27  28
ATOM     28  N   UNL     1      -2.942   3.987   9.542  1.00  0.00    -0.342 N 
ATOM     29  C   UNL     1      -4.221   4.286   9.955  1.00  0.00     0.245 C 
ATOM     30  O   UNL     1      -5.065   4.774   9.205  1.00  0.00    -0.273 OA
ATOM     31  H   UNL     1      -2.335   3.480  10.186  1.00  0.00     0.164 HD
BRANCH  29  32
ATOM     32  C   UNL     1      -4.575   3.831  11.386  1.00  0.00     0.200 C 
BRANCH  32  33
ATOM     33  N   UNL     1      -5.630   2.813  11.298  1.00  0.00    -0.340 N 
ATOM     34  C   UNL     1      -6.769   2.895  12.071  1.00  0.00     0.243 CG0
ATOM     35  O   UNL     1      -6.924   3.781  12.910  1.00  0.00    -0.273 OA
ATOM     36  H   UNL     1      -5.517   2.054  10.638  1.00  0.00     0.164 HD
ATOM     37  G   UNL     1      -7.725   1.694  11.979  1.00  0.00     0.000 G0
ENDBRANCH  32  33
BRANCH  32  38
ATOM     38  C   UNL     1      -3.324   3.337  12.149  1.00  0.00     0.143 C 
ATOM     39  C   UNL     1      -3.460   3.386  13.666  1.00  0.00     0.041 C 
BRANCH  38  40
ATOM     40  O   UNL     1      -3.004   1.990  11.751  1.00  0.00    -0.391 OA
ATOM     41  H   UNL     1      -2.899   2.002  10.781  1.00  0.00     0.211 HD
ENDBRANCH  38  40
ENDBRANCH  32  38
ENDBRANCH  29  32
ENDBRANCH  27  28
BRANCH  27  42
ATOM     42  C   UNL     1      -1.086   4.933   8.183  1.00  0.00     0.015 C 
ATOM     43  C   UNL     1      -0.547   5.336   9.560  1.00  0.00     0.010 C 
ATOM     44  C   UNL     1      -0.036   4.120   7.418  1.00  0.00     0.010 C 
ENDBRANCH  27  42
ENDBRANCH   3  27
TORSDOF 5
ENDMDL
MODEL 40
REMARK VINA RESULT:    -4.873      3.272      6.407
REMARK INTER + INTRA:         -11.108
REMARK INTER:                  -8.676
REMARK INTRA:                  -2.432
REMARK UNBOUND:                -2.388
REMARK SMILES CC[C@H](C)[C@H]1NC(=O)c2coc(n2)[C@H](C(C)C)NC(=O)[C@H]([C@@H](C)O)NC(=O)[C@H](C)NC(=O)c2csc1n2
REMARK SMILES IDX 11 1 13 2 12 3 9 4 10 5 7 6 6 7 8 8 5 10 36 11 35 12 34 13
REMARK SMILES IDX 37 14 33 15 31 16 32 17 30 18 28 20 29 21 3 23 4 24 2 25
REMARK SMILES IDX 1 26 14 27 18 28 19 29 20 30 21 32 25 33 26 34 27 35 22 38
REMARK SMILES IDX 23 39 24 40 15 42 16 43 17 44
REMARK H PARENT 6 9 30 19 18 31 25 36 24 41
REMARK Flexibility Score:   94.900
ROOT
ATOM      1  O   UNL     1      -4.332   2.994  13.358  1.00  0.00    -0.446 OA
ATOM      2  N   UNL     1      -4.316   3.488  11.159  1.00  0.00    -0.207 NA
ATOM      3  C   UNL     1      -5.058   3.246  12.225  1.00  0.00     0.217 A 
ATOM      4  C   UNL     1      -3.016   3.417  11.627  1.00  0.00     0.167 A 
ATOM      5  C   UNL     1      -3.033   3.116  12.967  1.00  0.00     0.231 A 
ENDROOT
BRANCH   4   6
ATOM      6  C   UNL     1      -1.854   3.608  10.776  1.00  0.00     0.273 C 
ATOM      7  N   UNL     1      -2.202   3.706   9.453  1.00  0.00    -0.341 N 
ATOM      8  O   UNL     1      -0.705   3.649  11.198  1.00  0.00    -0.267 OA
ATOM      9  H   UNL     1      -3.186   3.560   9.244  1.00  0.00     0.164 HD
BRANCH   7  10
ATOM     10  C   UNL     1      -1.236   3.651   8.374  1.00  0.00     0.145 C 
BRANCH  10  11
ATOM     11  C   UNL     1      -1.448   2.340   7.632  1.00  0.00     0.116 A 
ATOM     12  S   UNL     1      -0.209   1.733   6.598  1.00  0.00    -0.124 S 
ATOM     13  C   UNL     1      -1.173   0.363   6.259  1.00  0.00     0.101 A 
ATOM     14  N   UNL     1      -2.530   1.585   7.720  1.00  0.00    -0.234 NA
ATOM     15  C   UNL     1      -2.372   0.434   6.944  1.00  0.00     0.139 A 
BRANCH  15  16
ATOM     16  C   UNL     1      -3.404  -0.603   6.884  1.00  0.00     0.271 C 
ATOM     17  O   UNL     1      -3.636  -1.252   5.870  1.00  0.00    -0.267 OA
ATOM     18  N   UNL     1      -4.082  -0.774   8.072  1.00  0.00    -0.339 N 
ATOM     19  H   UNL     1      -3.873  -0.100   8.804  1.00  0.00     0.164 HD
BRANCH  18  20
ATOM     20  C   UNL     1      -5.189  -1.714   8.181  1.00  0.00     0.168 CG0
ATOM     21  C   UNL     1      -4.890  -2.810   9.206  1.00  0.00     0.041 C 
ATOM     22  G   UNL     1      -6.507  -1.036   8.589  1.00  0.00     0.000 G0
ENDBRANCH  18  20
ENDBRANCH  15  16
ENDBRANCH  10  11
BRANCH  10  23
ATOM     23  C   UNL     1      -1.334   4.884   7.436  1.00  0.00     0.015 C 
ATOM     24  C   UNL     1      -2.624   5.698   7.634  1.00  0.00     0.010 C 
BRANCH  23  25
ATOM     25  C   UNL     1      -0.124   5.835   7.570  1.00  0.00     0.002 C 
ATOM     26  C   UNL     1       0.128   6.693   6.338  1.00  0.00     0.004 C 
ENDBRANCH  23  25
ENDBRANCH  10  23
ENDBRANCH   7  10
ENDBRANCH   4   6
BRANCH   3  27
ATOM     27  C   UNL     1      -6.559   3.172  12.287  1.00  0.00     0.171 C 
BRANCH  27  28
ATOM     28  N   UNL     1      -6.957   1.822  11.902  1.00  0.00    -0.342 N 
ATOM     29  C   UNL     1      -7.553   1.535  10.694  1.00  0.00     0.245 C 
ATOM     30  O   UNL     1      -7.781   2.393   9.843  1.00  0.00    -0.273 OA
ATOM     31  H   UNL     1      -6.696   1.044  12.506  1.00  0.00     0.164 HD
BRANCH  29  32
ATOM     32  C   UNL     1      -7.782   0.035  10.413  1.00  0.00     0.200 C 
BRANCH  32  33
ATOM     33  N   UNL     1      -6.542  -0.526   9.861  1.00  0.00    -0.340 N 
ATOM     34  C   UNL     1      -6.499  -1.054   8.588  1.00  0.00     0.243 CG0
ATOM     35  O   UNL     1      -7.505  -1.139   7.886  1.00  0.00    -0.273 OA
ATOM     36  H   UNL     1      -5.703  -0.498  10.429  1.00  0.00     0.164 HD
ATOM     37  G   UNL     1      -5.177  -1.729   8.191  1.00  0.00     0.000 G0
ENDBRANCH  32  33
BRANCH  32  38
ATOM     38  C   UNL     1      -8.270  -0.710  11.677  1.00  0.00     0.143 C 
ATOM     39  C   UNL     1      -9.315  -1.785  11.402  1.00  0.00     0.041 C 
BRANCH  38  40
ATOM     40  O   UNL     1      -7.151  -1.310  12.359  1.00  0.00    -0.391 OA
ATOM     41  H   UNL     1      -6.581  -0.576  12.660  1.00  0.00     0.211 HD
ENDBRANCH  38  40
ENDBRANCH  32  38
ENDBRANCH  29  32
ENDBRANCH  27  28
BRANCH  27  42
ATOM     42  C   UNL     1      -7.241   3.612  13.606  1.00  0.00     0.015 C 
ATOM     43  C   UNL     1      -7.329   5.126  13.832  1.00  0.00     0.010 C 
ATOM     44  C   UNL     1      -8.621   2.968  13.780  1.00  0.00     0.010 C 
ENDBRANCH  27  42
ENDBRANCH   3  27
TORSDOF 5
ENDMDL
MODEL 41
REMARK VINA RESULT:    -4.817      5.826      8.150
REMARK INTER + INTRA:         -11.006
REMARK INTER:                  -8.568
REMARK INTRA:                  -2.438
REMARK UNBOUND:                -2.388
REMARK SMILES CC[C@H](C)[C@H]1NC(=O)c2coc(n2)[C@H](C(C)C)NC(=O)[C@H]([C@@H](C)O)NC(=O)[C@H](C)NC(=O)c2csc1n2
REMARK SMILES IDX 11 1 13 2 12 3 9 4 10 5 7 6 6 7 8 8 5 10 36 11 35 12 34 13
REMARK SMILES IDX 37 14 33 15 31 16 32 17 30 18 28 20 29 21 3 23 4 24 2 25
REMARK SMILES IDX 1 26 14 27 18 28 19 29 20 30 21 32 25 33 26 34 27 35 22 38
REMARK SMILES IDX 23 39 24 40 15 42 16 43 17 44
REMARK H PARENT 6 9 30 19 18 31 25 36 24 41
REMARK Flexibility Score:   94.900
ROOT
ATOM      1  O   UNL     1      -7.262   4.211  13.374  1.00  0.00    -0.446 OA
ATOM      2  N   UNL     1      -7.996   4.813  11.329  1.00  0.00    -0.207 NA
ATOM      3  C   UNL     1      -7.581   3.823  12.099  1.00  0.00     0.217 A 
ATOM      4  C   UNL     1      -7.974   5.921  12.159  1.00  0.00     0.167 A 
ATOM      5  C   UNL     1      -7.527   5.547  13.403  1.00  0.00     0.231 A 
ENDROOT
BRANCH   4   6
ATOM      6  C   UNL     1      -8.347   7.253  11.715  1.00  0.00     0.273 C 
ATOM      7  N   UNL     1      -8.431   7.329  10.348  1.00  0.00    -0.341 N 
ATOM      8  O   UNL     1      -8.535   8.193  12.478  1.00  0.00    -0.267 OA
ATOM      9  H   UNL     1      -8.157   6.492   9.842  1.00  0.00     0.164 HD
BRANCH   7  10
ATOM     10  C   UNL     1      -8.541   8.584   9.631  1.00  0.00     0.145 C 
BRANCH  10  11
ATOM     11  C   UNL     1      -7.369   8.665   8.663  1.00  0.00     0.116 A 
ATOM     12  S   UNL     1      -7.167  10.065   7.680  1.00  0.00    -0.124 S 
ATOM     13  C   UNL     1      -5.744   9.387   7.018  1.00  0.00     0.101 A 
ATOM     14  N   UNL     1      -6.446   7.729   8.510  1.00  0.00    -0.234 NA
ATOM     15  C   UNL     1      -5.497   8.147   7.575  1.00  0.00     0.139 A 
BRANCH  15  16
ATOM     16  C   UNL     1      -4.335   7.322   7.235  1.00  0.00     0.271 C 
ATOM     17  O   UNL     1      -3.607   7.560   6.278  1.00  0.00    -0.267 OA
ATOM     18  N   UNL     1      -4.145   6.259   8.093  1.00  0.00    -0.339 N 
ATOM     19  H   UNL     1      -4.879   6.105   8.779  1.00  0.00     0.164 HD
BRANCH  18  20
ATOM     20  C   UNL     1      -3.079   5.292   7.871  1.00  0.00     0.168 CG0
ATOM     21  C   UNL     1      -1.974   5.431   8.920  1.00  0.00     0.041 C 
ATOM     22  G   UNL     1      -3.579   3.839   7.905  1.00  0.00     0.000 G0
ENDBRANCH  18  20
ENDBRANCH  15  16
ENDBRANCH  10  11
BRANCH  10  23
ATOM     23  C   UNL     1      -9.910   8.733   8.915  1.00  0.00     0.015 C 
ATOM     24  C   UNL     1     -10.058   7.819   7.688  1.00  0.00     0.010 C 
BRANCH  23  25
ATOM     25  C   UNL     1     -11.108   8.490   9.861  1.00  0.00     0.002 C 
ATOM     26  C   UNL     1     -12.306   9.387   9.583  1.00  0.00     0.004 C 
ENDBRANCH  23  25
ENDBRANCH  10  23
ENDBRANCH   7  10
ENDBRANCH   4   6
BRANCH   3  27
ATOM     27  C   UNL     1      -7.385   2.386  11.702  1.00  0.00     0.171 C 
BRANCH  27  28
ATOM     28  N   UNL     1      -6.063   2.266  11.097  1.00  0.00    -0.342 N 
ATOM     29  C   UNL     1      -5.873   1.909   9.780  1.00  0.00     0.245 C 
ATOM     30  O   UNL     1      -6.806   1.679   9.012  1.00  0.00    -0.273 OA
ATOM     31  H   UNL     1      -5.249   2.552  11.639  1.00  0.00     0.164 HD
BRANCH  29  32
ATOM     32  C   UNL     1      -4.412   1.961   9.287  1.00  0.00     0.200 C 
BRANCH  32  33
ATOM     33  N   UNL     1      -4.037   3.369   9.104  1.00  0.00    -0.340 N 
ATOM     34  C   UNL     1      -3.563   3.831   7.894  1.00  0.00     0.243 CG0
ATOM     35  O   UNL     1      -3.373   3.080   6.940  1.00  0.00    -0.273 OA
ATOM     36  H   UNL     1      -4.154   4.007   9.882  1.00  0.00     0.164 HD
ATOM     37  G   UNL     1      -3.080   5.291   7.881  1.00  0.00     0.000 G0
ENDBRANCH  32  33
BRANCH  32  38
ATOM     38  C   UNL     1      -3.464   1.205  10.247  1.00  0.00     0.143 C 
ATOM     39  C   UNL     1      -2.284   0.533   9.555  1.00  0.00     0.041 C 
BRANCH  38  40
ATOM     40  O   UNL     1      -2.964   2.105  11.255  1.00  0.00    -0.391 OA
ATOM     41  H   UNL     1      -2.538   1.551  11.937  1.00  0.00     0.211 HD
ENDBRANCH  38  40
ENDBRANCH  32  38
ENDBRANCH  29  32
ENDBRANCH  27  28
BRANCH  27  42
ATOM     42  C   UNL     1      -7.614   1.308  12.789  1.00  0.00     0.015 C 
ATOM     43  C   UNL     1      -8.748   0.315  12.507  1.00  0.00     0.010 C 
ATOM     44  C   UNL     1      -6.323   0.557  13.131  1.00  0.00     0.010 C 
ENDBRANCH  27  42
ENDBRANCH   3  27
TORSDOF 5
ENDMDL
MODEL 42
REMARK VINA RESULT:    -4.784      6.101      9.435
REMARK INTER + INTRA:         -10.947
REMARK INTER:                  -9.151
REMARK INTRA:                  -1.796
REMARK UNBOUND:                -2.388
REMARK SMILES CC[C@H](C)[C@H]1NC(=O)c2coc(n2)[C@H](C(C)C)NC(=O)[C@H]([C@@H](C)O)NC(=O)[C@H](C)NC(=O)c2csc1n2
REMARK SMILES IDX 11 1 13 2 12 3 9 4 10 5 7 6 6 7 8 8 5 10 36 11 35 12 34 13
REMARK SMILES IDX 37 14 33 15 31 16 32 17 30 18 28 20 29 21 3 23 4 24 2 25
REMARK SMILES IDX 1 26 14 27 18 28 19 29 20 30 21 32 25 33 26 34 27 35 22 38
REMARK SMILES IDX 23 39 24 40 15 42 16 43 17 44
REMARK H PARENT 6 9 30 19 18 31 25 36 24 41
REMARK Flexibility Score:   94.900
ROOT
ATOM      1  O   UNL     1      -4.530   2.894  12.923  1.00  0.00    -0.446 OA
ATOM      2  N   UNL     1      -5.807   2.711  11.074  1.00  0.00    -0.207 NA
ATOM      3  C   UNL     1      -5.427   3.486  12.075  1.00  0.00     0.217 A 
ATOM      4  C   UNL     1      -5.091   1.541  11.261  1.00  0.00     0.167 A 
ATOM      5  C   UNL     1      -4.315   1.659  12.388  1.00  0.00     0.231 A 
ENDROOT
BRANCH   4   6
ATOM      6  C   UNL     1      -5.211   0.389  10.384  1.00  0.00     0.273 C 
ATOM      7  N   UNL     1      -6.195   0.563   9.445  1.00  0.00    -0.341 N 
ATOM      8  O   UNL     1      -4.527  -0.621  10.496  1.00  0.00    -0.267 OA
ATOM      9  H   UNL     1      -6.742   1.415   9.533  1.00  0.00     0.164 HD
BRANCH   7  10
ATOM     10  C   UNL     1      -6.693  -0.513   8.610  1.00  0.00     0.145 C 
BRANCH  10  11
ATOM     11  C   UNL     1      -8.149  -0.750   8.984  1.00  0.00     0.116 A 
ATOM     12  S   UNL     1      -8.941  -2.189   8.464  1.00  0.00    -0.124 S 
ATOM     13  C   UNL     1     -10.360  -1.694   9.278  1.00  0.00     0.101 A 
ATOM     14  N   UNL     1      -8.888   0.071   9.712  1.00  0.00    -0.234 NA
ATOM     15  C   UNL     1     -10.160  -0.476   9.900  1.00  0.00     0.139 A 
BRANCH  15  16
ATOM     16  C   UNL     1     -11.179   0.204  10.702  1.00  0.00     0.271 C 
ATOM     17  O   UNL     1     -12.368   0.208  10.402  1.00  0.00    -0.267 OA
ATOM     18  N   UNL     1     -10.672   0.830  11.821  1.00  0.00    -0.339 N 
ATOM     19  H   UNL     1      -9.658   0.848  11.899  1.00  0.00     0.164 HD
BRANCH  18  20
ATOM     20  C   UNL     1     -11.529   1.614  12.701  1.00  0.00     0.168 CG0
ATOM     21  C   UNL     1     -11.524   1.054  14.125  1.00  0.00     0.041 C 
ATOM     22  G   UNL     1     -11.112   3.091  12.775  1.00  0.00     0.000 G0
ENDBRANCH  18  20
ENDBRANCH  15  16
ENDBRANCH  10  11
BRANCH  10  23
ATOM     23  C   UNL     1      -6.512  -0.213   7.099  1.00  0.00     0.015 C 
ATOM     24  C   UNL     1      -6.625  -1.464   6.212  1.00  0.00     0.010 C 
BRANCH  23  25
ATOM     25  C   UNL     1      -7.501   0.854   6.578  1.00  0.00     0.002 C 
ATOM     26  C   UNL     1      -6.852   2.191   6.247  1.00  0.00     0.004 C 
ENDBRANCH  23  25
ENDBRANCH  10  23
ENDBRANCH   7  10
ENDBRANCH   4   6
BRANCH   3  27
ATOM     27  C   UNL     1      -5.914   4.876  12.380  1.00  0.00     0.171 C 
BRANCH  27  28
ATOM     28  N   UNL     1      -7.106   4.758  13.213  1.00  0.00    -0.342 N 
ATOM     29  C   UNL     1      -8.372   5.037  12.750  1.00  0.00     0.245 C 
ATOM     30  O   UNL     1      -8.594   5.392  11.593  1.00  0.00    -0.273 OA
ATOM     31  H   UNL     1      -7.014   4.361  14.147  1.00  0.00     0.164 HD
BRANCH  29  32
ATOM     32  C   UNL     1      -9.518   4.731  13.737  1.00  0.00     0.200 C 
BRANCH  32  33
ATOM     33  N   UNL     1      -9.974   3.355  13.502  1.00  0.00    -0.340 N 
ATOM     34  C   UNL     1     -11.118   3.094  12.777  1.00  0.00     0.243 CG0
ATOM     35  O   UNL     1     -11.838   3.995  12.352  1.00  0.00    -0.273 OA
ATOM     36  H   UNL     1      -9.417   2.591  13.867  1.00  0.00     0.164 HD
ATOM     37  G   UNL     1     -11.552   1.620  12.726  1.00  0.00     0.000 G0
ENDBRANCH  32  33
BRANCH  32  38
ATOM     38  C   UNL     1      -9.086   4.982  15.200  1.00  0.00     0.143 C 
ATOM     39  C   UNL     1      -8.997   6.456  15.579  1.00  0.00     0.041 C 
BRANCH  38  40
ATOM     40  O   UNL     1      -9.995   4.321  16.103  1.00  0.00    -0.391 OA
ATOM     41  H   UNL     1      -9.632   4.440  17.001  1.00  0.00     0.211 HD
ENDBRANCH  38  40
ENDBRANCH  32  38
ENDBRANCH  29  32
ENDBRANCH  27  28
BRANCH  27  42
ATOM     42  C   UNL     1      -4.894   5.872  12.983  1.00  0.00     0.015 C 
ATOM     43  C   UNL     1      -4.801   5.879  14.513  1.00  0.00     0.010 C 
ATOM     44  C   UNL     1      -3.501   5.709  12.366  1.00  0.00     0.010 C 
ENDBRANCH  27  42
ENDBRANCH   3  27
TORSDOF 5
ENDMDL
MODEL 43
REMARK VINA RESULT:    -4.784      4.939      8.421
REMARK INTER + INTRA:         -10.947
REMARK INTER:                  -8.580
REMARK INTRA:                  -2.367
REMARK UNBOUND:                -2.388
REMARK SMILES CC[C@H](C)[C@H]1NC(=O)c2coc(n2)[C@H](C(C)C)NC(=O)[C@H]([C@@H](C)O)NC(=O)[C@H](C)NC(=O)c2csc1n2
REMARK SMILES IDX 11 1 13 2 12 3 9 4 10 5 7 6 6 7 8 8 5 10 36 11 35 12 34 13
REMARK SMILES IDX 37 14 33 15 31 16 32 17 30 18 28 20 29 21 3 23 4 24 2 25
REMARK SMILES IDX 1 26 14 27 18 28 19 29 20 30 21 32 25 33 26 34 27 35 22 38
REMARK SMILES IDX 23 39 24 40 15 42 16 43 17 44
REMARK H PARENT 6 9 30 19 18 31 25 36 24 41
REMARK Flexibility Score:   94.900
ROOT
ATOM      1  O   UNL     1      -8.939  -0.791  13.180  1.00  0.00    -0.446 OA
ATOM      2  N   UNL     1      -7.783   0.760  12.023  1.00  0.00    -0.207 NA
ATOM      3  C   UNL     1      -8.769   0.532  12.872  1.00  0.00     0.217 A 
ATOM      4  C   UNL     1      -7.253  -0.494  11.775  1.00  0.00     0.167 A 
ATOM      5  C   UNL     1      -7.961  -1.434  12.483  1.00  0.00     0.231 A 
ENDROOT
BRANCH   4   6
ATOM      6  C   UNL     1      -6.139  -0.720  10.870  1.00  0.00     0.273 C 
ATOM      7  N   UNL     1      -4.948  -0.824  11.542  1.00  0.00    -0.341 N 
ATOM      8  O   UNL     1      -6.258  -0.784   9.652  1.00  0.00    -0.267 OA
ATOM      9  H   UNL     1      -4.992  -0.658  12.544  1.00  0.00     0.164 HD
BRANCH   7  10
ATOM     10  C   UNL     1      -3.659  -0.803  10.879  1.00  0.00     0.145 C 
BRANCH  10  11
ATOM     11  C   UNL     1      -3.340   0.646  10.539  1.00  0.00     0.116 A 
ATOM     12  S   UNL     1      -2.400   1.009   9.140  1.00  0.00    -0.124 S 
ATOM     13  C   UNL     1      -2.558   2.677   9.477  1.00  0.00     0.101 A 
ATOM     14  N   UNL     1      -3.745   1.695  11.236  1.00  0.00    -0.234 NA
ATOM     15  C   UNL     1      -3.311   2.871  10.619  1.00  0.00     0.139 A 
BRANCH  15  16
ATOM     16  C   UNL     1      -3.648   4.192  11.155  1.00  0.00     0.271 C 
ATOM     17  O   UNL     1      -2.917   5.168  11.026  1.00  0.00    -0.267 OA
ATOM     18  N   UNL     1      -4.859   4.226  11.813  1.00  0.00    -0.339 N 
ATOM     19  H   UNL     1      -5.317   3.328  11.949  1.00  0.00     0.164 HD
BRANCH  18  20
ATOM     20  C   UNL     1      -5.327   5.439  12.470  1.00  0.00     0.168 CG0
ATOM     21  C   UNL     1      -6.408   6.138  11.643  1.00  0.00     0.041 C 
ATOM     22  G   UNL     1      -5.905   5.172  13.869  1.00  0.00     0.000 G0
ENDBRANCH  18  20
ENDBRANCH  15  16
ENDBRANCH  10  11
BRANCH  10  23
ATOM     23  C   UNL     1      -2.549  -1.468  11.734  1.00  0.00     0.015 C 
ATOM     24  C   UNL     1      -2.685  -1.182  13.238  1.00  0.00     0.010 C 
BRANCH  23  25
ATOM     25  C   UNL     1      -2.469  -2.997  11.526  1.00  0.00     0.002 C 
ATOM     26  C   UNL     1      -2.221  -3.413  10.083  1.00  0.00     0.004 C 
ENDBRANCH  23  25
ENDBRANCH  10  23
ENDBRANCH   7  10
ENDBRANCH   4   6
BRANCH   3  27
ATOM     27  C   UNL     1      -9.710   1.547  13.461  1.00  0.00     0.171 C 
BRANCH  27  28
ATOM     28  N   UNL     1      -8.941   2.749  13.761  1.00  0.00    -0.342 N 
ATOM     29  C   UNL     1      -8.906   3.322  15.012  1.00  0.00     0.245 C 
ATOM     30  O   UNL     1      -9.510   2.853  15.976  1.00  0.00    -0.273 OA
ATOM     31  H   UNL     1      -8.325   3.129  13.042  1.00  0.00     0.164 HD
BRANCH  29  32
ATOM     32  C   UNL     1      -7.936   4.513  15.166  1.00  0.00     0.200 C 
BRANCH  32  33
ATOM     33  N   UNL     1      -7.213   4.685  13.900  1.00  0.00    -0.340 N 
ATOM     34  C   UNL     1      -5.922   5.170  13.874  1.00  0.00     0.243 CG0
ATOM     35  O   UNL     1      -5.345   5.538  14.895  1.00  0.00    -0.273 OA
ATOM     36  H   UNL     1      -7.674   4.418  13.038  1.00  0.00     0.164 HD
ATOM     37  G   UNL     1      -5.336   5.429  12.476  1.00  0.00     0.000 G0
ENDBRANCH  32  33
BRANCH  32  38
ATOM     38  C   UNL     1      -8.679   5.793  15.615  1.00  0.00     0.143 C 
ATOM     39  C   UNL     1      -9.718   6.291  14.618  1.00  0.00     0.041 C 
BRANCH  38  40
ATOM     40  O   UNL     1      -9.320   5.570  16.886  1.00  0.00    -0.391 OA
ATOM     41  H   UNL     1      -9.845   6.371  17.078  1.00  0.00     0.211 HD
ENDBRANCH  38  40
ENDBRANCH  32  38
ENDBRANCH  29  32
ENDBRANCH  27  28
BRANCH  27  42
ATOM     42  C   UNL     1     -10.994   1.876  12.662  1.00  0.00     0.015 C 
ATOM     43  C   UNL     1     -11.317   0.922  11.506  1.00  0.00     0.010 C 
ATOM     44  C   UNL     1     -12.214   2.035  13.576  1.00  0.00     0.010 C 
ENDBRANCH  27  42
ENDBRANCH   3  27
TORSDOF 5
ENDMDL
MODEL 44
REMARK VINA RESULT:    -4.777      4.887      7.750
REMARK INTER + INTRA:         -10.935
REMARK INTER:                  -8.849
REMARK INTRA:                  -2.086
REMARK UNBOUND:                -2.388
REMARK SMILES CC[C@H](C)[C@H]1NC(=O)c2coc(n2)[C@H](C(C)C)NC(=O)[C@H]([C@@H](C)O)NC(=O)[C@H](C)NC(=O)c2csc1n2
REMARK SMILES IDX 11 1 13 2 12 3 9 4 10 5 7 6 6 7 8 8 5 10 36 11 35 12 34 13
REMARK SMILES IDX 37 14 33 15 31 16 32 17 30 18 28 20 29 21 3 23 4 24 2 25
REMARK SMILES IDX 1 26 14 27 18 28 19 29 20 30 21 32 25 33 26 34 27 35 22 38
REMARK SMILES IDX 23 39 24 40 15 42 16 43 17 44
REMARK H PARENT 6 9 30 19 18 31 25 36 24 41
REMARK Flexibility Score:   94.900
ROOT
ATOM      1  O   UNL     1      -9.160  -1.607  11.678  1.00  0.00    -0.446 OA
ATOM      2  N   UNL     1      -8.746   0.609  11.720  1.00  0.00    -0.207 NA
ATOM      3  C   UNL     1      -8.975  -0.451  10.966  1.00  0.00     0.217 A 
ATOM      4  C   UNL     1      -8.811   0.124  13.015  1.00  0.00     0.167 A 
ATOM      5  C   UNL     1      -9.064  -1.225  12.982  1.00  0.00     0.231 A 
ENDROOT
BRANCH   4   6
ATOM      6  C   UNL     1      -8.602   0.958  14.186  1.00  0.00     0.273 C 
ATOM      7  N   UNL     1      -8.512   2.287  13.855  1.00  0.00    -0.341 N 
ATOM      8  O   UNL     1      -8.495   0.516  15.323  1.00  0.00    -0.267 OA
ATOM      9  H   UNL     1      -8.527   2.496  12.861  1.00  0.00     0.164 HD
BRANCH   7  10
ATOM     10  C   UNL     1      -8.063   3.305  14.784  1.00  0.00     0.145 C 
BRANCH  10  11
ATOM     11  C   UNL     1      -6.764   3.883  14.241  1.00  0.00     0.116 A 
ATOM     12  S   UNL     1      -6.016   5.210  15.047  1.00  0.00    -0.124 S 
ATOM     13  C   UNL     1      -4.743   5.175  13.907  1.00  0.00     0.101 A 
ATOM     14  N   UNL     1      -6.123   3.436  13.174  1.00  0.00    -0.234 NA
ATOM     15  C   UNL     1      -4.947   4.166  12.986  1.00  0.00     0.139 A 
BRANCH  15  16
ATOM     16  C   UNL     1      -4.018   3.861  11.896  1.00  0.00     0.271 C 
ATOM     17  O   UNL     1      -3.081   4.593  11.596  1.00  0.00    -0.267 OA
ATOM     18  N   UNL     1      -4.299   2.676  11.248  1.00  0.00    -0.339 N 
ATOM     19  H   UNL     1      -5.165   2.217  11.517  1.00  0.00     0.164 HD
BRANCH  18  20
ATOM     20  C   UNL     1      -3.521   2.244  10.095  1.00  0.00     0.168 CG0
ATOM     21  C   UNL     1      -2.622   1.056  10.444  1.00  0.00     0.041 C 
ATOM     22  G   UNL     1      -4.402   1.833   8.904  1.00  0.00     0.000 G0
ENDBRANCH  18  20
ENDBRANCH  15  16
ENDBRANCH  10  11
BRANCH  10  23
ATOM     23  C   UNL     1      -9.141   4.395  15.025  1.00  0.00     0.015 C 
ATOM     24  C   UNL     1     -10.367   4.252  14.109  1.00  0.00     0.010 C 
BRANCH  23  25
ATOM     25  C   UNL     1      -9.622   4.446  16.493  1.00  0.00     0.002 C 
ATOM     26  C   UNL     1      -9.247   5.729  17.223  1.00  0.00     0.004 C 
ENDBRANCH  23  25
ENDBRANCH  10  23
ENDBRANCH   7  10
ENDBRANCH   4   6
BRANCH   3  27
ATOM     27  C   UNL     1      -8.995  -0.508   9.463  1.00  0.00     0.171 C 
BRANCH  27  28
ATOM     28  N   UNL     1      -7.615  -0.623   9.002  1.00  0.00    -0.342 N 
ATOM     29  C   UNL     1      -7.094   0.164   7.999  1.00  0.00     0.245 C 
ATOM     30  O   UNL     1      -7.750   1.034   7.428  1.00  0.00    -0.273 OA
ATOM     31  H   UNL     1      -6.980  -1.241   9.506  1.00  0.00     0.164 HD
BRANCH  29  32
ATOM     32  C   UNL     1      -5.584  -0.013   7.739  1.00  0.00     0.200 C 
BRANCH  32  33
ATOM     33  N   UNL     1      -4.851   0.532   8.889  1.00  0.00    -0.340 N 
ATOM     34  C   UNL     1      -4.394   1.834   8.894  1.00  0.00     0.243 CG0
ATOM     35  O   UNL     1      -4.522   2.572   7.919  1.00  0.00    -0.273 OA
ATOM     36  H   UNL     1      -4.703  -0.062   9.696  1.00  0.00     0.164 HD
ATOM     37  G   UNL     1      -3.526   2.230  10.099  1.00  0.00     0.000 G0
ENDBRANCH  32  33
BRANCH  32  38
ATOM     38  C   UNL     1      -5.230  -1.489   7.444  1.00  0.00     0.143 C 
ATOM     39  C   UNL     1      -4.034  -1.670   6.517  1.00  0.00     0.041 C 
BRANCH  38  40
ATOM     40  O   UNL     1      -4.976  -2.191   8.677  1.00  0.00    -0.391 OA
ATOM     41  H   UNL     1      -5.796  -2.671   8.899  1.00  0.00     0.211 HD
ENDBRANCH  38  40
ENDBRANCH  32  38
ENDBRANCH  29  32
ENDBRANCH  27  28
BRANCH  27  42
ATOM     42  C   UNL     1      -9.907  -1.570   8.801  1.00  0.00     0.015 C 
ATOM     43  C   UNL     1     -11.372  -1.557   9.252  1.00  0.00     0.010 C 
ATOM     44  C   UNL     1      -9.821  -1.525   7.272  1.00  0.00     0.010 C 
ENDBRANCH  27  42
ENDBRANCH   3  27
TORSDOF 5
ENDMDL
MODEL 45
REMARK VINA RESULT:    -4.700      3.687      6.390
REMARK INTER + INTRA:         -10.797
REMARK INTER:                  -8.550
REMARK INTRA:                  -2.247
REMARK UNBOUND:                -2.388
REMARK SMILES CC[C@H](C)[C@H]1NC(=O)c2coc(n2)[C@H](C(C)C)NC(=O)[C@H]([C@@H](C)O)NC(=O)[C@H](C)NC(=O)c2csc1n2
REMARK SMILES IDX 11 1 13 2 12 3 9 4 10 5 7 6 6 7 8 8 5 10 36 11 35 12 34 13
REMARK SMILES IDX 37 14 33 15 31 16 32 17 30 18 28 20 29 21 3 23 4 24 2 25
REMARK SMILES IDX 1 26 14 27 18 28 19 29 20 30 21 32 25 33 26 34 27 35 22 38
REMARK SMILES IDX 23 39 24 40 15 42 16 43 17 44
REMARK H PARENT 6 9 30 19 18 31 25 36 24 41
REMARK Flexibility Score:   94.900
ROOT
ATOM      1  O   UNL     1      -1.135   2.955  10.536  1.00  0.00    -0.446 OA
ATOM      2  N   UNL     1      -3.030   3.173   9.335  1.00  0.00    -0.207 NA
ATOM      3  C   UNL     1      -1.815   2.657   9.386  1.00  0.00     0.217 A 
ATOM      4  C   UNL     1      -3.169   3.833  10.544  1.00  0.00     0.167 A 
ATOM      5  C   UNL     1      -2.011   3.696  11.271  1.00  0.00     0.231 A 
ENDROOT
BRANCH   4   6
ATOM      6  C   UNL     1      -4.366   4.568  10.915  1.00  0.00     0.273 C 
ATOM      7  N   UNL     1      -4.783   4.256  12.184  1.00  0.00    -0.341 N 
ATOM      8  O   UNL     1      -4.940   5.350  10.167  1.00  0.00    -0.267 OA
ATOM      9  H   UNL     1      -4.260   3.520  12.651  1.00  0.00     0.164 HD
BRANCH   7  10
ATOM     10  C   UNL     1      -6.074   4.649  12.713  1.00  0.00     0.145 C 
BRANCH  10  11
ATOM     11  C   UNL     1      -7.080   3.579  12.314  1.00  0.00     0.116 A 
ATOM     12  S   UNL     1      -8.748   3.791  12.691  1.00  0.00    -0.124 S 
ATOM     13  C   UNL     1      -9.102   2.304  11.925  1.00  0.00     0.101 A 
ATOM     14  N   UNL     1      -6.784   2.463  11.668  1.00  0.00    -0.234 NA
ATOM     15  C   UNL     1      -7.949   1.731  11.425  1.00  0.00     0.139 A 
BRANCH  15  16
ATOM     16  C   UNL     1      -7.924   0.465  10.690  1.00  0.00     0.271 C 
ATOM     17  O   UNL     1      -8.884  -0.295  10.642  1.00  0.00    -0.267 OA
ATOM     18  N   UNL     1      -6.721   0.217  10.062  1.00  0.00    -0.339 N 
ATOM     19  H   UNL     1      -5.969   0.868  10.270  1.00  0.00     0.164 HD
BRANCH  18  20
ATOM     20  C   UNL     1      -6.490  -1.027   9.339  1.00  0.00     0.168 CG0
ATOM     21  C   UNL     1      -6.717  -0.848   7.837  1.00  0.00     0.041 C 
ATOM     22  G   UNL     1      -5.067  -1.574   9.538  1.00  0.00     0.000 G0
ENDBRANCH  18  20
ENDBRANCH  15  16
ENDBRANCH  10  11
BRANCH  10  23
ATOM     23  C   UNL     1      -6.034   4.881  14.246  1.00  0.00     0.015 C 
ATOM     24  C   UNL     1      -4.746   4.362  14.907  1.00  0.00     0.010 C 
BRANCH  23  25
ATOM     25  C   UNL     1      -6.224   6.366  14.632  1.00  0.00     0.002 C 
ATOM     26  C   UNL     1      -4.938   7.066  15.049  1.00  0.00     0.004 C 
ENDBRANCH  23  25
ENDBRANCH  10  23
ENDBRANCH   7  10
ENDBRANCH   4   6
BRANCH   3  27
ATOM     27  C   UNL     1      -1.127   1.854   8.316  1.00  0.00     0.171 C 
BRANCH  27  28
ATOM     28  N   UNL     1      -1.897   0.632   8.110  1.00  0.00    -0.342 N 
ATOM     29  C   UNL     1      -1.770  -0.476   8.918  1.00  0.00     0.245 C 
ATOM     30  O   UNL     1      -1.009  -0.513   9.883  1.00  0.00    -0.273 OA
ATOM     31  H   UNL     1      -2.629   0.628   7.401  1.00  0.00     0.164 HD
BRANCH  29  32
ATOM     32  C   UNL     1      -2.760  -1.624   8.623  1.00  0.00     0.200 C 
BRANCH  32  33
ATOM     33  N   UNL     1      -4.122  -1.078   8.656  1.00  0.00    -0.340 N 
ATOM     34  C   UNL     1      -5.071  -1.574   9.525  1.00  0.00     0.243 CG0
ATOM     35  O   UNL     1      -4.841  -2.532  10.261  1.00  0.00    -0.273 OA
ATOM     36  H   UNL     1      -4.351  -0.308   8.039  1.00  0.00     0.164 HD
ATOM     37  G   UNL     1      -6.490  -1.006   9.358  1.00  0.00     0.000 G0
ENDBRANCH  32  33
BRANCH  32  38
ATOM     38  C   UNL     1      -2.425  -2.329   7.288  1.00  0.00     0.143 C 
ATOM     39  C   UNL     1      -2.898  -3.776   7.213  1.00  0.00     0.041 C 
BRANCH  38  40
ATOM     40  O   UNL     1      -2.993  -1.594   6.186  1.00  0.00    -0.391 OA
ATOM     41  H   UNL     1      -3.912  -1.907   6.087  1.00  0.00     0.211 HD
ENDBRANCH  38  40
ENDBRANCH  32  38
ENDBRANCH  29  32
ENDBRANCH  27  28
BRANCH  27  42
ATOM     42  C   UNL     1      -0.819   2.566   6.976  1.00  0.00     0.015 C 
ATOM     43  C   UNL     1      -0.497   4.061   7.081  1.00  0.00     0.010 C 
ATOM     44  C   UNL     1       0.273   1.842   6.181  1.00  0.00     0.010 C 
ENDBRANCH  27  42
ENDBRANCH   3  27
TORSDOF 5
ENDMDL
MODEL 46
REMARK VINA RESULT:    -4.680      4.477      7.708
REMARK INTER + INTRA:         -10.763
REMARK INTER:                  -8.275
REMARK INTRA:                  -2.488
REMARK UNBOUND:                -2.388
REMARK SMILES CC[C@H](C)[C@H]1NC(=O)c2coc(n2)[C@H](C(C)C)NC(=O)[C@H]([C@@H](C)O)NC(=O)[C@H](C)NC(=O)c2csc1n2
REMARK SMILES IDX 11 1 13 2 12 3 9 4 10 5 7 6 6 7 8 8 5 10 36 11 35 12 34 13
REMARK SMILES IDX 37 14 33 15 31 16 32 17 30 18 28 20 29 21 3 23 4 24 2 25
REMARK SMILES IDX 1 26 14 27 18 28 19 29 20 30 21 32 25 33 26 34 27 35 22 38
REMARK SMILES IDX 23 39 24 40 15 42 16 43 17 44
REMARK H PARENT 6 9 30 19 18 31 25 36 24 41
REMARK Flexibility Score:   94.900
ROOT
ATOM      1  O   UNL     1      -8.982  -1.506  11.808  1.00  0.00    -0.446 OA
ATOM      2  N   UNL     1      -7.209  -0.293  12.491  1.00  0.00    -0.207 NA
ATOM      3  C   UNL     1      -7.666  -1.177  11.622  1.00  0.00     0.217 A 
ATOM      4  C   UNL     1      -8.304  -0.001  13.285  1.00  0.00     0.167 A 
ATOM      5  C   UNL     1      -9.380  -0.742  12.864  1.00  0.00     0.231 A 
ENDROOT
BRANCH   4   6
ATOM      6  C   UNL     1      -8.251   0.931  14.398  1.00  0.00     0.273 C 
ATOM      7  N   UNL     1      -8.345   2.233  13.978  1.00  0.00    -0.341 N 
ATOM      8  O   UNL     1      -8.113   0.585  15.565  1.00  0.00    -0.267 OA
ATOM      9  H   UNL     1      -8.362   2.371  12.971  1.00  0.00     0.164 HD
BRANCH   7  10
ATOM     10  C   UNL     1      -8.073   3.365  14.841  1.00  0.00     0.145 C 
BRANCH  10  11
ATOM     11  C   UNL     1      -6.956   4.176  14.200  1.00  0.00     0.116 A 
ATOM     12  S   UNL     1      -6.461   5.664  14.916  1.00  0.00    -0.124 S 
ATOM     13  C   UNL     1      -5.272   5.844  13.701  1.00  0.00     0.101 A 
ATOM     14  N   UNL     1      -6.294   3.825  13.110  1.00  0.00    -0.234 NA
ATOM     15  C   UNL     1      -5.309   4.775  12.826  1.00  0.00     0.139 A 
BRANCH  15  16
ATOM     16  C   UNL     1      -4.397   4.621  11.691  1.00  0.00     0.271 C 
ATOM     17  O   UNL     1      -3.489   5.411  11.457  1.00  0.00    -0.267 OA
ATOM     18  N   UNL     1      -4.658   3.508  10.921  1.00  0.00    -0.339 N 
ATOM     19  H   UNL     1      -5.505   2.995  11.154  1.00  0.00     0.164 HD
BRANCH  18  20
ATOM     20  C   UNL     1      -3.895   3.231   9.711  1.00  0.00     0.168 CG0
ATOM     21  C   UNL     1      -2.738   2.270   9.991  1.00  0.00     0.041 C 
ATOM     22  G   UNL     1      -4.755   2.619   8.593  1.00  0.00     0.000 G0
ENDBRANCH  18  20
ENDBRANCH  15  16
ENDBRANCH  10  11
BRANCH  10  23
ATOM     23  C   UNL     1      -9.343   4.216  15.109  1.00  0.00     0.015 C 
ATOM     24  C   UNL     1     -10.498   3.907  14.141  1.00  0.00     0.010 C 
BRANCH  23  25
ATOM     25  C   UNL     1      -9.862   4.078  16.558  1.00  0.00     0.002 C 
ATOM     26  C   UNL     1      -9.268   5.090  17.527  1.00  0.00     0.004 C 
ENDBRANCH  23  25
ENDBRANCH  10  23
ENDBRANCH   7  10
ENDBRANCH   4   6
BRANCH   3  27
ATOM     27  C   UNL     1      -6.888  -1.863  10.532  1.00  0.00     0.171 C 
BRANCH  27  28
ATOM     28  N   UNL     1      -6.239  -0.831   9.730  1.00  0.00    -0.342 N 
ATOM     29  C   UNL     1      -6.413  -0.723   8.368  1.00  0.00     0.245 C 
ATOM     30  O   UNL     1      -7.142  -1.480   7.729  1.00  0.00    -0.273 OA
ATOM     31  H   UNL     1      -5.712  -0.099  10.206  1.00  0.00     0.164 HD
BRANCH  29  32
ATOM     32  C   UNL     1      -5.750   0.507   7.714  1.00  0.00     0.200 C 
BRANCH  32  33
ATOM     33  N   UNL     1      -5.039   1.257   8.757  1.00  0.00    -0.340 N 
ATOM     34  C   UNL     1      -4.763   2.601   8.611  1.00  0.00     0.243 CG0
ATOM     35  O   UNL     1      -5.040   3.213   7.581  1.00  0.00    -0.273 OA
ATOM     36  H   UNL     1      -4.770   0.772   9.605  1.00  0.00     0.164 HD
ATOM     37  G   UNL     1      -3.895   3.227   9.714  1.00  0.00     0.000 G0
ENDBRANCH  32  33
BRANCH  32  38
ATOM     38  C   UNL     1      -4.835   0.097   6.537  1.00  0.00     0.143 C 
ATOM     39  C   UNL     1      -3.729  -0.881   6.919  1.00  0.00     0.041 C 
BRANCH  38  40
ATOM     40  O   UNL     1      -5.623  -0.480   5.477  1.00  0.00    -0.391 OA
ATOM     41  H   UNL     1      -5.251  -1.365   5.303  1.00  0.00     0.211 HD
ENDBRANCH  38  40
ENDBRANCH  32  38
ENDBRANCH  29  32
ENDBRANCH  27  28
BRANCH  27  42
ATOM     42  C   UNL     1      -5.889  -2.968  10.954  1.00  0.00     0.015 C 
ATOM     43  C   UNL     1      -5.732  -4.129   9.967  1.00  0.00     0.010 C 
ATOM     44  C   UNL     1      -4.518  -2.391  11.319  1.00  0.00     0.010 C 
ENDBRANCH  27  42
ENDBRANCH   3  27
TORSDOF 5
ENDMDL
MODEL 47
REMARK VINA RESULT:    -4.679      5.616      7.956
REMARK INTER + INTRA:         -10.759
REMARK INTER:                  -8.840
REMARK INTRA:                  -1.919
REMARK UNBOUND:                -2.388
REMARK SMILES CC[C@H](C)[C@H]1NC(=O)c2coc(n2)[C@H](C(C)C)NC(=O)[C@H]([C@@H](C)O)NC(=O)[C@H](C)NC(=O)c2csc1n2
REMARK SMILES IDX 11 1 13 2 12 3 9 4 10 5 7 6 6 7 8 8 5 10 36 11 35 12 34 13
REMARK SMILES IDX 37 14 33 15 31 16 32 17 30 18 28 20 29 21 3 23 4 24 2 25
REMARK SMILES IDX 1 26 14 27 18 28 19 29 20 30 21 32 25 33 26 34 27 35 22 38
REMARK SMILES IDX 23 39 24 40 15 42 16 43 17 44
REMARK H PARENT 6 9 30 19 18 31 25 36 24 41
REMARK Flexibility Score:   94.900
ROOT
ATOM      1  O   UNL     1     -11.429   1.642  10.779  1.00  0.00    -0.446 OA
ATOM      2  N   UNL     1      -9.367   1.660  11.688  1.00  0.00    -0.207 NA
ATOM      3  C   UNL     1     -10.132   1.207  10.711  1.00  0.00     0.217 A 
ATOM      4  C   UNL     1     -10.209   2.466  12.433  1.00  0.00     0.167 A 
ATOM      5  C   UNL     1     -11.464   2.452  11.874  1.00  0.00     0.231 A 
ENDROOT
BRANCH   4   6
ATOM      6  C   UNL     1      -9.782   3.168  13.631  1.00  0.00     0.273 C 
ATOM      7  N   UNL     1      -9.481   4.482  13.373  1.00  0.00    -0.341 N 
ATOM      8  O   UNL     1      -9.681   2.634  14.729  1.00  0.00    -0.267 OA
ATOM      9  H   UNL     1      -9.524   4.759  12.397  1.00  0.00     0.164 HD
BRANCH   7  10
ATOM     10  C   UNL     1      -8.801   5.340  14.323  1.00  0.00     0.145 C 
BRANCH  10  11
ATOM     11  C   UNL     1      -7.311   5.048  14.221  1.00  0.00     0.116 A 
ATOM     12  S   UNL     1      -6.264   5.483  15.520  1.00  0.00    -0.124 S 
ATOM     13  C   UNL     1      -4.940   4.822  14.664  1.00  0.00     0.101 A 
ATOM     14  N   UNL     1      -6.722   4.456  13.195  1.00  0.00    -0.234 NA
ATOM     15  C   UNL     1      -5.357   4.307  13.451  1.00  0.00     0.139 A 
BRANCH  15  16
ATOM     16  C   UNL     1      -4.462   3.647  12.498  1.00  0.00     0.271 C 
ATOM     17  O   UNL     1      -3.399   4.137  12.136  1.00  0.00    -0.267 OA
ATOM     18  N   UNL     1      -4.932   2.428  12.055  1.00  0.00    -0.339 N 
ATOM     19  H   UNL     1      -5.876   2.185  12.343  1.00  0.00     0.164 HD
BRANCH  18  20
ATOM     20  C   UNL     1      -4.207   1.660  11.053  1.00  0.00     0.168 CG0
ATOM     21  C   UNL     1      -4.187   0.170  11.401  1.00  0.00     0.041 C 
ATOM     22  G   UNL     1      -4.806   1.805   9.645  1.00  0.00     0.000 G0
ENDBRANCH  18  20
ENDBRANCH  15  16
ENDBRANCH  10  11
BRANCH  10  23
ATOM     23  C   UNL     1      -9.127   6.840  14.096  1.00  0.00     0.015 C 
ATOM     24  C   UNL     1     -10.202   7.073  13.021  1.00  0.00     0.010 C 
BRANCH  23  25
ATOM     25  C   UNL     1      -9.559   7.561  15.392  1.00  0.00     0.002 C 
ATOM     26  C   UNL     1      -8.538   8.565  15.910  1.00  0.00     0.004 C 
ENDBRANCH  23  25
ENDBRANCH  10  23
ENDBRANCH   7  10
ENDBRANCH   4   6
BRANCH   3  27
ATOM     27  C   UNL     1      -9.736   0.258   9.614  1.00  0.00     0.171 C 
BRANCH  27  28
ATOM     28  N   UNL     1      -8.319   0.465   9.335  1.00  0.00    -0.342 N 
ATOM     29  C   UNL     1      -7.786   0.380   8.068  1.00  0.00     0.245 C 
ATOM     30  O   UNL     1      -8.470   0.139   7.074  1.00  0.00    -0.273 OA
ATOM     31  H   UNL     1      -7.712   0.781  10.091  1.00  0.00     0.164 HD
BRANCH  29  32
ATOM     32  C   UNL     1      -6.294   0.757   7.953  1.00  0.00     0.200 C 
BRANCH  32  33
ATOM     33  N   UNL     1      -5.730   0.824   9.307  1.00  0.00    -0.340 N 
ATOM     34  C   UNL     1      -4.819   1.800   9.655  1.00  0.00     0.243 CG0
ATOM     35  O   UNL     1      -4.393   2.612   8.837  1.00  0.00    -0.273 OA
ATOM     36  H   UNL     1      -6.040   0.148   9.995  1.00  0.00     0.164 HD
ATOM     37  G   UNL     1      -4.208   1.669  11.059  1.00  0.00     0.000 G0
ENDBRANCH  32  33
BRANCH  32  38
ATOM     38  C   UNL     1      -5.533  -0.223   7.030  1.00  0.00     0.143 C 
ATOM     39  C   UNL     1      -5.182   0.354   5.664  1.00  0.00     0.041 C 
BRANCH  38  40
ATOM     40  O   UNL     1      -4.323  -0.667   7.675  1.00  0.00    -0.391 OA
ATOM     41  H   UNL     1      -4.295  -1.638   7.576  1.00  0.00     0.211 HD
ENDBRANCH  38  40
ENDBRANCH  32  38
ENDBRANCH  29  32
ENDBRANCH  27  28
BRANCH  27  42
ATOM     42  C   UNL     1     -10.064  -1.242   9.816  1.00  0.00     0.015 C 
ATOM     43  C   UNL     1      -9.606  -1.845  11.149  1.00  0.00     0.010 C 
ATOM     44  C   UNL     1     -11.548  -1.541   9.579  1.00  0.00     0.010 C 
ENDBRANCH  27  42
ENDBRANCH   3  27
TORSDOF 5
ENDMDL
MODEL 48
REMARK VINA RESULT:    -4.651      3.507      8.296
REMARK INTER + INTRA:         -10.710
REMARK INTER:                  -8.416
REMARK INTRA:                  -2.294
REMARK UNBOUND:                -2.388
REMARK SMILES CC[C@H](C)[C@H]1NC(=O)c2coc(n2)[C@H](C(C)C)NC(=O)[C@H]([C@@H](C)O)NC(=O)[C@H](C)NC(=O)c2csc1n2
REMARK SMILES IDX 11 1 13 2 12 3 9 4 10 5 7 6 6 7 8 8 5 10 36 11 35 12 34 13
REMARK SMILES IDX 37 14 33 15 31 16 32 17 30 18 28 20 29 21 3 23 4 24 2 25
REMARK SMILES IDX 1 26 14 27 18 28 19 29 20 30 21 32 25 33 26 34 27 35 22 38
REMARK SMILES IDX 23 39 24 40 15 42 16 43 17 44
REMARK H PARENT 6 9 30 19 18 31 25 36 24 41
REMARK Flexibility Score:   94.900
ROOT
ATOM      1  O   UNL     1      -7.318   3.574  12.246  1.00  0.00    -0.446 OA
ATOM      2  N   UNL     1      -5.895   1.915  11.697  1.00  0.00    -0.207 NA
ATOM      3  C   UNL     1      -6.051   3.061  12.334  1.00  0.00     0.217 A 
ATOM      4  C   UNL     1      -7.148   1.642  11.177  1.00  0.00     0.167 A 
ATOM      5  C   UNL     1      -8.010   2.656  11.516  1.00  0.00     0.231 A 
ENDROOT
BRANCH   4   6
ATOM      6  C   UNL     1      -7.436   0.464  10.377  1.00  0.00     0.273 C 
ATOM      7  N   UNL     1      -6.447  -0.480  10.485  1.00  0.00    -0.341 N 
ATOM      8  O   UNL     1      -8.433   0.350   9.674  1.00  0.00    -0.267 OA
ATOM      9  H   UNL     1      -5.635  -0.207  11.032  1.00  0.00     0.164 HD
BRANCH   7  10
ATOM     10  C   UNL     1      -6.355  -1.634   9.612  1.00  0.00     0.145 C 
BRANCH  10  11
ATOM     11  C   UNL     1      -5.724  -1.174   8.306  1.00  0.00     0.116 A 
ATOM     12  S   UNL     1      -6.275  -1.834   6.812  1.00  0.00    -0.124 S 
ATOM     13  C   UNL     1      -5.173  -0.833   5.972  1.00  0.00     0.101 A 
ATOM     14  N   UNL     1      -4.765  -0.269   8.204  1.00  0.00    -0.234 NA
ATOM     15  C   UNL     1      -4.454  -0.055   6.859  1.00  0.00     0.139 A 
BRANCH  15  16
ATOM     16  C   UNL     1      -3.449   0.927   6.448  1.00  0.00     0.271 C 
ATOM     17  O   UNL     1      -2.741   0.779   5.457  1.00  0.00    -0.267 OA
ATOM     18  N   UNL     1      -3.379   2.025   7.279  1.00  0.00    -0.339 N 
ATOM     19  H   UNL     1      -3.938   1.977   8.127  1.00  0.00     0.164 HD
BRANCH  18  20
ATOM     20  C   UNL     1      -2.390   3.073   7.064  1.00  0.00     0.168 CG0
ATOM     21  C   UNL     1      -3.021   4.310   6.422  1.00  0.00     0.041 C 
ATOM     22  G   UNL     1      -1.703   3.517   8.365  1.00  0.00     0.000 G0
ENDBRANCH  18  20
ENDBRANCH  15  16
ENDBRANCH  10  11
BRANCH  10  23
ATOM     23  C   UNL     1      -5.572  -2.803  10.267  1.00  0.00     0.015 C 
ATOM     24  C   UNL     1      -5.950  -4.182   9.700  1.00  0.00     0.010 C 
BRANCH  23  25
ATOM     25  C   UNL     1      -4.040  -2.629  10.165  1.00  0.00     0.002 C 
ATOM     26  C   UNL     1      -3.344  -3.728   9.375  1.00  0.00     0.004 C 
ENDBRANCH  23  25
ENDBRANCH  10  23
ENDBRANCH   7  10
ENDBRANCH   4   6
BRANCH   3  27
ATOM     27  C   UNL     1      -4.995   3.842  13.068  1.00  0.00     0.171 C 
BRANCH  27  28
ATOM     28  N   UNL     1      -4.065   4.374  12.077  1.00  0.00    -0.342 N 
ATOM     29  C   UNL     1      -2.841   3.798  11.818  1.00  0.00     0.245 C 
ATOM     30  O   UNL     1      -2.448   2.784  12.391  1.00  0.00    -0.273 OA
ATOM     31  H   UNL     1      -4.369   5.144  11.483  1.00  0.00     0.164 HD
BRANCH  29  32
ATOM     32  C   UNL     1      -2.052   4.425  10.648  1.00  0.00     0.200 C 
BRANCH  32  33
ATOM     33  N   UNL     1      -2.554   3.850   9.394  1.00  0.00    -0.340 N 
ATOM     34  C   UNL     1      -1.699   3.530   8.360  1.00  0.00     0.243 CG0
ATOM     35  O   UNL     1      -0.494   3.770   8.416  1.00  0.00    -0.273 OA
ATOM     36  H   UNL     1      -3.548   3.670   9.307  1.00  0.00     0.164 HD
ATOM     37  G   UNL     1      -2.372   3.067   7.058  1.00  0.00     0.000 G0
ENDBRANCH  32  33
BRANCH  32  38
ATOM     38  C   UNL     1      -2.129   5.969  10.678  1.00  0.00     0.143 C 
ATOM     39  C   UNL     1      -0.807   6.664  10.374  1.00  0.00     0.041 C 
BRANCH  38  40
ATOM     40  O   UNL     1      -3.124   6.430   9.743  1.00  0.00    -0.391 OA
ATOM     41  H   UNL     1      -3.530   7.226  10.138  1.00  0.00     0.211 HD
ENDBRANCH  38  40
ENDBRANCH  32  38
ENDBRANCH  29  32
ENDBRANCH  27  28
BRANCH  27  42
ATOM     42  C   UNL     1      -5.473   4.942  14.048  1.00  0.00     0.015 C 
ATOM     43  C   UNL     1      -4.748   4.985  15.397  1.00  0.00     0.010 C 
ATOM     44  C   UNL     1      -5.469   6.329  13.398  1.00  0.00     0.010 C 
ENDBRANCH  27  42
ENDBRANCH   3  27
TORSDOF 5
ENDMDL
MODEL 49
REMARK VINA RESULT:    -4.634      4.847      8.265
REMARK INTER + INTRA:         -10.679
REMARK INTER:                  -8.534
REMARK INTRA:                  -2.144
REMARK UNBOUND:                -2.388
REMARK SMILES CC[C@H](C)[C@H]1NC(=O)c2coc(n2)[C@H](C(C)C)NC(=O)[C@H]([C@@H](C)O)NC(=O)[C@H](C)NC(=O)c2csc1n2
REMARK SMILES IDX 11 1 13 2 12 3 9 4 10 5 7 6 6 7 8 8 5 10 36 11 35 12 34 13
REMARK SMILES IDX 37 14 33 15 31 16 32 17 30 18 28 20 29 21 3 23 4 24 2 25
REMARK SMILES IDX 1 26 14 27 18 28 19 29 20 30 21 32 25 33 26 34 27 35 22 38
REMARK SMILES IDX 23 39 24 40 15 42 16 43 17 44
REMARK H PARENT 6 9 30 19 18 31 25 36 24 41
REMARK Flexibility Score:   94.900
ROOT
ATOM      1  O   UNL     1      -2.318   2.997   8.410  1.00  0.00    -0.446 OA
ATOM      2  N   UNL     1      -3.983   2.516   9.851  1.00  0.00    -0.207 NA
ATOM      3  C   UNL     1      -3.160   3.442   9.394  1.00  0.00     0.217 A 
ATOM      4  C   UNL     1      -3.681   1.393   9.099  1.00  0.00     0.167 A 
ATOM      5  C   UNL     1      -2.667   1.693   8.223  1.00  0.00     0.231 A 
ENDROOT
BRANCH   4   6
ATOM      6  C   UNL     1      -4.347   0.115   9.279  1.00  0.00     0.273 C 
ATOM      7  N   UNL     1      -5.665   0.169   8.901  1.00  0.00    -0.341 N 
ATOM      8  O   UNL     1      -3.796  -0.878   9.738  1.00  0.00    -0.267 OA
ATOM      9  H   UNL     1      -6.007   1.086   8.627  1.00  0.00     0.164 HD
BRANCH   7  10
ATOM     10  C   UNL     1      -6.619  -0.880   9.203  1.00  0.00     0.145 C 
BRANCH  10  11
ATOM     11  C   UNL     1      -7.952  -0.214   9.512  1.00  0.00     0.116 A 
ATOM     12  S   UNL     1      -9.380  -0.745   8.705  1.00  0.00    -0.124 S 
ATOM     13  C   UNL     1     -10.296   0.391   9.595  1.00  0.00     0.101 A 
ATOM     14  N   UNL     1      -8.128   0.762  10.387  1.00  0.00    -0.234 NA
ATOM     15  C   UNL     1      -9.481   1.104  10.452  1.00  0.00     0.139 A 
BRANCH  15  16
ATOM     16  C   UNL     1      -9.971   2.135  11.370  1.00  0.00     0.271 C 
ATOM     17  O   UNL     1     -11.164   2.324  11.582  1.00  0.00    -0.267 OA
ATOM     18  N   UNL     1      -8.964   2.864  11.967  1.00  0.00    -0.339 N 
ATOM     19  H   UNL     1      -8.024   2.687  11.625  1.00  0.00     0.164 HD
BRANCH  18  20
ATOM     20  C   UNL     1      -9.265   3.976  12.859  1.00  0.00     0.168 CG0
ATOM     21  C   UNL     1      -9.533   3.489  14.285  1.00  0.00     0.041 C 
ATOM     22  G   UNL     1      -8.131   5.012  12.921  1.00  0.00     0.000 G0
ENDBRANCH  18  20
ENDBRANCH  15  16
ENDBRANCH  10  11
BRANCH  10  23
ATOM     23  C   UNL     1      -6.729  -1.919   8.057  1.00  0.00     0.015 C 
ATOM     24  C   UNL     1      -6.430  -1.329   6.668  1.00  0.00     0.010 C 
BRANCH  23  25
ATOM     25  C   UNL     1      -5.820  -3.150   8.277  1.00  0.00     0.002 C 
ATOM     26  C   UNL     1      -5.991  -3.809   9.639  1.00  0.00     0.004 C 
ENDBRANCH  23  25
ENDBRANCH  10  23
ENDBRANCH   7  10
ENDBRANCH   4   6
BRANCH   3  27
ATOM     27  C   UNL     1      -3.035   4.862   9.876  1.00  0.00     0.171 C 
BRANCH  27  28
ATOM     28  N   UNL     1      -3.789   4.979  11.119  1.00  0.00    -0.342 N 
ATOM     29  C   UNL     1      -5.031   5.571  11.187  1.00  0.00     0.245 C 
ATOM     30  O   UNL     1      -5.603   6.031  10.200  1.00  0.00    -0.273 OA
ATOM     31  H   UNL     1      -3.430   4.520  11.955  1.00  0.00     0.164 HD
BRANCH  29  32
ATOM     32  C   UNL     1      -5.728   5.486  12.561  1.00  0.00     0.200 C 
BRANCH  32  33
ATOM     33  N   UNL     1      -6.917   4.636  12.423  1.00  0.00    -0.340 N 
ATOM     34  C   UNL     1      -8.136   5.020  12.942  1.00  0.00     0.243 CG0
ATOM     35  O   UNL     1      -8.267   6.053  13.595  1.00  0.00    -0.273 OA
ATOM     36  H   UNL     1      -6.832   3.763  11.916  1.00  0.00     0.164 HD
ATOM     37  G   UNL     1      -9.260   3.976  12.846  1.00  0.00     0.000 G0
ENDBRANCH  32  33
BRANCH  32  38
ATOM     38  C   UNL     1      -4.757   4.990  13.658  1.00  0.00     0.143 C 
ATOM     39  C   UNL     1      -5.071   5.518  15.053  1.00  0.00     0.041 C 
BRANCH  38  40
ATOM     40  O   UNL     1      -4.748   3.550  13.695  1.00  0.00    -0.391 OA
ATOM     41  H   UNL     1      -4.732   3.247  12.767  1.00  0.00     0.211 HD
ENDBRANCH  38  40
ENDBRANCH  32  38
ENDBRANCH  29  32
ENDBRANCH  27  28
BRANCH  27  42
ATOM     42  C   UNL     1      -1.607   5.444  10.019  1.00  0.00     0.015 C 
ATOM     43  C   UNL     1      -0.587   4.530  10.707  1.00  0.00     0.010 C 
ATOM     44  C   UNL     1      -1.055   5.942   8.679  1.00  0.00     0.010 C 
ENDBRANCH  27  42
ENDBRANCH   3  27
TORSDOF 5
ENDMDL
MODEL 50
REMARK VINA RESULT:    -4.596      4.545      7.255
REMARK INTER + INTRA:         -10.611
REMARK INTER:                  -8.144
REMARK INTRA:                  -2.467
REMARK UNBOUND:                -2.388
REMARK SMILES CC[C@H](C)[C@H]1NC(=O)c2coc(n2)[C@H](C(C)C)NC(=O)[C@H]([C@@H](C)O)NC(=O)[C@H](C)NC(=O)c2csc1n2
REMARK SMILES IDX 11 1 13 2 12 3 9 4 10 5 7 6 6 7 8 8 5 10 36 11 35 12 34 13
REMARK SMILES IDX 37 14 33 15 31 16 32 17 30 18 28 20 29 21 3 23 4 24 2 25
REMARK SMILES IDX 1 26 14 27 18 28 19 29 20 30 21 32 25 33 26 34 27 35 22 38
REMARK SMILES IDX 23 39 24 40 15 42 16 43 17 44
REMARK H PARENT 6 9 30 19 18 31 25 36 24 41
REMARK Flexibility Score:   94.900
ROOT
ATOM      1  O   UNL     1      -7.207  -2.464   9.816  1.00  0.00    -0.446 OA
ATOM      2  N   UNL     1      -7.539  -0.253  10.105  1.00  0.00    -0.207 NA
ATOM      3  C   UNL     1      -6.972  -1.191   9.368  1.00  0.00     0.217 A 
ATOM      4  C   UNL     1      -8.214  -0.956  11.088  1.00  0.00     0.167 A 
ATOM      5  C   UNL     1      -8.008  -2.302  10.906  1.00  0.00     0.231 A 
ENDROOT
BRANCH   4   6
ATOM      6  C   UNL     1      -8.977  -0.311  12.142  1.00  0.00     0.273 C 
ATOM      7  N   UNL     1      -9.265   0.995  11.837  1.00  0.00    -0.341 N 
ATOM      8  O   UNL     1      -9.297  -0.868  13.185  1.00  0.00    -0.267 OA
ATOM      9  H   UNL     1      -8.855   1.348  10.977  1.00  0.00     0.164 HD
BRANCH   7  10
ATOM     10  C   UNL     1      -9.795   1.936  12.804  1.00  0.00     0.145 C 
BRANCH  10  11
ATOM     11  C   UNL     1      -8.853   3.131  12.846  1.00  0.00     0.116 A 
ATOM     12  S   UNL     1      -9.457   4.679  13.303  1.00  0.00    -0.124 S 
ATOM     13  C   UNL     1      -7.887   5.333  13.136  1.00  0.00     0.101 A 
ATOM     14  N   UNL     1      -7.561   3.088  12.568  1.00  0.00    -0.234 NA
ATOM     15  C   UNL     1      -6.994   4.352  12.750  1.00  0.00     0.139 A 
BRANCH  15  16
ATOM     16  C   UNL     1      -5.563   4.590  12.548  1.00  0.00     0.271 C 
ATOM     17  O   UNL     1      -4.997   5.606  12.936  1.00  0.00    -0.267 OA
ATOM     18  N   UNL     1      -4.922   3.564  11.886  1.00  0.00    -0.339 N 
ATOM     19  H   UNL     1      -5.521   2.830  11.519  1.00  0.00     0.164 HD
BRANCH  18  20
ATOM     20  C   UNL     1      -3.510   3.657  11.538  1.00  0.00     0.168 CG0
ATOM     21  C   UNL     1      -2.638   2.906  12.546  1.00  0.00     0.041 C 
ATOM     22  G   UNL     1      -3.205   3.093  10.141  1.00  0.00     0.000 G0
ENDBRANCH  18  20
ENDBRANCH  15  16
ENDBRANCH  10  11
BRANCH  10  23
ATOM     23  C   UNL     1     -11.257   2.346  12.484  1.00  0.00     0.015 C 
ATOM     24  C   UNL     1     -11.784   1.743  11.171  1.00  0.00     0.010 C 
BRANCH  23  25
ATOM     25  C   UNL     1     -12.240   1.991  13.622  1.00  0.00     0.002 C 
ATOM     26  C   UNL     1     -11.601   1.236  14.779  1.00  0.00     0.004 C 
ENDBRANCH  23  25
ENDBRANCH  10  23
ENDBRANCH   7  10
ENDBRANCH   4   6
BRANCH   3  27
ATOM     27  C   UNL     1      -6.087  -0.990   8.168  1.00  0.00     0.171 C 
BRANCH  27  28
ATOM     28  N   UNL     1      -4.807  -0.472   8.638  1.00  0.00    -0.342 N 
ATOM     29  C   UNL     1      -4.158   0.579   8.031  1.00  0.00     0.245 C 
ATOM     30  O   UNL     1      -4.617   1.170   7.054  1.00  0.00    -0.273 OA
ATOM     31  H   UNL     1      -4.422  -0.835   9.509  1.00  0.00     0.164 HD
BRANCH  29  32
ATOM     32  C   UNL     1      -2.882   1.070   8.747  1.00  0.00     0.200 C 
BRANCH  32  33
ATOM     33  N   UNL     1      -3.281   1.731   9.996  1.00  0.00    -0.340 N 
ATOM     34  C   UNL     1      -3.208   3.101  10.135  1.00  0.00     0.243 CG0
ATOM     35  O   UNL     1      -2.750   3.821   9.250  1.00  0.00    -0.273 OA
ATOM     36  H   UNL     1      -3.634   1.161  10.755  1.00  0.00     0.164 HD
ATOM     37  G   UNL     1      -3.524   3.647  11.537  1.00  0.00     0.000 G0
ENDBRANCH  32  33
BRANCH  32  38
ATOM     38  C   UNL     1      -1.879  -0.086   8.970  1.00  0.00     0.143 C 
ATOM     39  C   UNL     1      -1.977  -0.739  10.344  1.00  0.00     0.041 C 
BRANCH  38  40
ATOM     40  O   UNL     1      -2.059  -1.097   7.959  1.00  0.00    -0.391 OA
ATOM     41  H   UNL     1      -2.427  -1.881   8.410  1.00  0.00     0.211 HD
ENDBRANCH  38  40
ENDBRANCH  32  38
ENDBRANCH  29  32
ENDBRANCH  27  28
BRANCH  27  42
ATOM     42  C   UNL     1      -5.898  -2.194   7.212  1.00  0.00     0.015 C 
ATOM     43  C   UNL     1      -5.767  -1.843   5.725  1.00  0.00     0.010 C 
ATOM     44  C   UNL     1      -4.738  -3.095   7.649  1.00  0.00     0.010 C 
ENDBRANCH  27  42
ENDBRANCH   3  27
TORSDOF 5
ENDMDL
