MODEL 1
REMARK VINA RESULT:    -6.236      0.000      0.000
REMARK INTER + INTRA:         -25.965
REMARK INTER:                 -17.901
REMARK INTRA:                  -8.064
REMARK UNBOUND:                -8.064
REMARK SMILES CCCCCC(=O)N[C@H](CC(=O)O)C(=O)N[C@H]1C(=O)N[C@H](CCCN=C(N)N)C(=O)N[C@@H]2CC[C@H](O)N(C2=O)[C@@H](CC(C)C)C(=O)N(C)[C@@H](Cc2ccccc2)C(=O)N[C@H](C(C)C)C(=O)O[C@@H]1C
REMARK SMILES IDX 30 1 31 2 29 3 32 5 35 6 37 7 34 8 38 9 33 10 39 11 36 12
REMARK SMILES IDX 40 14 41 15 42 16 43 17 44 18 45 19 46 20 47 21 48 22 49 23
REMARK SMILES IDX 50 24 51 25 52 26 56 27 53 28 55 29 54 30 57 31 58 32 59 33
REMARK SMILES IDX 60 35 61 36 62 37 63 38 64 39 65 40 66 41 67 42 68 43 21 45
REMARK SMILES IDX 20 46 18 47 19 48 17 50 16 52 14 53 15 54 9 56 8 57 6 58
REMARK SMILES IDX 7 59 5 61 4 62 3 63 2 64 1 65 10 66 11 67 12 68 13 69 22 71
REMARK SMILES IDX 23 72 24 73 25 74 26 75 27 76 28 77
REMARK H PARENT 31 4 36 13 59 34 20 49 16 55 8 60 13 70 27 78 27 79 28 80
REMARK H PARENT 28 81
REMARK Flexibility Score:  259.900
ROOT
ATOM      1  O   UNL     1       0.067  -9.699   2.181  1.00  0.00    -0.273 OA
ATOM      2  N   UNL     1      -0.872  -9.016   4.151  1.00  0.00    -0.343 N 
ATOM      3  C   UNL     1      -0.927  -9.590   2.899  1.00  0.00     0.243 C 
ATOM      4  H   UNL     1      -1.708  -8.956   4.720  1.00  0.00     0.164 HD
ENDROOT
BRANCH   2   5
ATOM      5  C   UNL     1       0.359  -8.399   4.632  1.00  0.00     0.171 C 
ATOM      6  C   UNL     1       0.879  -6.275   6.535  1.00  0.00     0.214 C 
ATOM      7  N   UNL     1       0.714  -5.951   5.137  1.00  0.00    -0.303 N 
ATOM      8  C   UNL     1       1.462  -7.660   6.767  1.00  0.00     0.057 C 
ATOM      9  C   UNL     1       0.414  -6.910   4.183  1.00  0.00     0.247 C 
ATOM     10  C   UNL     1       0.583  -8.702   6.112  1.00  0.00     0.040 C 
ATOM     11  O   UNL     1       0.188  -6.614   3.003  1.00  0.00    -0.272 OA
BRANCH   6  12
ATOM     12  O   UNL     1      -0.380  -6.160   7.155  1.00  0.00    -0.373 OA
ATOM     13  H   UNL     1      -0.226  -6.178   8.124  1.00  0.00     0.213 HD
ENDBRANCH   6  12
BRANCH   7  14
ATOM     14  C   UNL     1       0.733  -4.518   4.773  1.00  0.00     0.177 C 
BRANCH  14  15
ATOM     15  C   UNL     1      -0.559  -3.743   5.098  1.00  0.00     0.038 C 
BRANCH  15  16
ATOM     16  C   UNL     1      -1.561  -3.425   3.965  1.00  0.00    -0.015 C 
ATOM     17  C   UNL     1      -0.915  -3.493   2.578  1.00  0.00     0.007 C 
ATOM     18  C   UNL     1      -2.134  -2.016   4.160  1.00  0.00     0.007 C 
ENDBRANCH  15  16
ENDBRANCH  14  15
BRANCH  14  19
ATOM     19  C   UNL     1       2.187  -3.947   4.890  1.00  0.00     0.245 C 
ATOM     20  O   UNL     1       3.118  -4.726   4.624  1.00  0.00    -0.272 OA
BRANCH  19  21
ATOM     21  N   UNL     1       2.484  -2.684   5.373  1.00  0.00    -0.332 N 
ATOM     22  C   UNL     1       2.623  -2.329   6.774  1.00  0.00     0.147 C 
BRANCH  21  23
ATOM     23  C   UNL     1       2.666  -1.586   4.383  1.00  0.00     0.178 C 
BRANCH  23  24
ATOM     24  C   UNL     1       2.285  -1.953   2.934  1.00  0.00     0.070 C 
BRANCH  24  25
ATOM     25  C   UNL     1       3.332  -1.728   1.869  1.00  0.00    -0.045 A 
ATOM     26  C   UNL     1       4.687  -1.619   2.207  1.00  0.00     0.004 A 
ATOM     27  C   UNL     1       2.959  -1.619   0.521  1.00  0.00     0.004 A 
ATOM     28  C   UNL     1       5.648  -1.393   1.218  1.00  0.00     0.000 A 
ATOM     29  C   UNL     1       3.920  -1.395  -0.466  1.00  0.00     0.000 A 
ATOM     30  C   UNL     1       5.263  -1.279  -0.116  1.00  0.00     0.000 A 
ENDBRANCH  24  25
ENDBRANCH  23  24
BRANCH  23  31
ATOM     31  C   UNL     1       2.112  -0.229   4.879  1.00  0.00     0.243 C 
ATOM     32  O   UNL     1       0.919  -0.000   5.064  1.00  0.00    -0.273 OA
ATOM     33  N   UNL     1       3.065   0.775   4.921  1.00  0.00    -0.341 N 
ATOM     34  H   UNL     1       4.042   0.524   4.752  1.00  0.00     0.164 HD
BRANCH  33  35
ATOM     35  C   UNL     1       2.744   2.167   5.246  1.00  0.00     0.194 C 
BRANCH  35  36
ATOM     36  C   UNL     1       2.685   3.110   4.011  1.00  0.00     0.017 C 
ATOM     37  C   UNL     1       1.246   3.575   3.730  1.00  0.00     0.010 C 
ATOM     38  C   UNL     1       3.215   2.459   2.727  1.00  0.00     0.010 C 
ENDBRANCH  35  36
BRANCH  35  39
ATOM     39  C   UNL     1       3.648   2.742   6.372  1.00  0.00     0.329 C 
ATOM     40  O   UNL     1       4.870   2.803   6.306  1.00  0.00    -0.250 OA
BRANCH  39  41
ATOM     41  O   UNL     1       2.922   3.255   7.411  1.00  0.00    -0.458 OA
BRANCH  41  42
ATOM     42  C   UNL     1       3.308   4.570   7.876  1.00  0.00     0.205 CG0
ATOM     43  C   UNL     1       2.888   5.572   6.803  1.00  0.00     0.056 C 
ATOM     44  G   UNL     1       4.830   4.576   8.125  1.00  0.00     0.000 G0
ENDBRANCH  41  42
ENDBRANCH  39  41
ENDBRANCH  35  39
ENDBRANCH  33  35
ENDBRANCH  23  31
ENDBRANCH  21  23
ENDBRANCH  19  21
ENDBRANCH  14  19
ENDBRANCH   7  14
ENDBRANCH   2   5
BRANCH   3  45
ATOM     45  C   UNL     1      -2.308 -10.104   2.472  1.00  0.00     0.171 C 
BRANCH  45  46
ATOM     46  N   UNL     1      -2.075 -10.925   1.292  1.00  0.00    -0.342 N 
ATOM     47  C   UNL     1      -1.928 -12.288   1.360  1.00  0.00     0.247 C 
ATOM     48  O   UNL     1      -2.053 -12.922   2.409  1.00  0.00    -0.273 OA
ATOM     49  H   UNL     1      -2.020 -10.446   0.395  1.00  0.00     0.164 HD
BRANCH  47  50
ATOM     50  C   UNL     1      -1.565 -12.970   0.034  1.00  0.00     0.212 CG0
ATOM     51  G   UNL     1      -2.874 -13.473  -0.607  1.00  0.00     0.000 G0
BRANCH  50  52
ATOM     52  N   UNL     1      -0.891 -11.946  -0.759  1.00  0.00    -0.339 N 
ATOM     53  C   UNL     1       0.432 -12.020  -1.123  1.00  0.00     0.243 C 
ATOM     54  O   UNL     1       1.168 -12.934  -0.761  1.00  0.00    -0.273 OA
ATOM     55  H   UNL     1      -1.418 -11.108  -0.996  1.00  0.00     0.164 HD
BRANCH  53  56
ATOM     56  C   UNL     1       0.944 -10.780  -1.884  1.00  0.00     0.182 C 
BRANCH  56  57
ATOM     57  N   UNL     1       1.170  -9.657  -0.969  1.00  0.00    -0.344 N 
ATOM     58  C   UNL     1       2.430  -9.239  -0.615  1.00  0.00     0.220 C 
ATOM     59  O   UNL     1       3.448  -9.818  -0.977  1.00  0.00    -0.275 OA
ATOM     60  H   UNL     1       0.362  -9.089  -0.729  1.00  0.00     0.164 HD
BRANCH  58  61
ATOM     61  C   UNL     1       2.426  -8.023   0.294  1.00  0.00     0.100 C 
BRANCH  61  62
ATOM     62  C   UNL     1       1.612  -6.849  -0.250  1.00  0.00     0.010 C 
BRANCH  62  63
ATOM     63  C   UNL     1       2.246  -5.476   0.003  1.00  0.00     0.000 C 
BRANCH  63  64
ATOM     64  C   UNL     1       3.259  -5.454   1.147  1.00  0.00    -0.003 C 
ATOM     65  C   UNL     1       4.637  -5.032   0.660  1.00  0.00     0.004 C 
ENDBRANCH  63  64
ENDBRANCH  62  63
ENDBRANCH  61  62
ENDBRANCH  58  61
ENDBRANCH  56  57
BRANCH  56  66
ATOM     66  C   UNL     1       0.014 -10.407  -3.037  1.00  0.00     0.157 C 
BRANCH  66  67
ATOM     67  C   UNL     1      -0.782  -9.175  -2.716  1.00  0.00     0.305 C 
ATOM     68  O   UNL     1      -0.550  -8.035  -3.089  1.00  0.00    -0.252 OA
BRANCH  67  69
ATOM     69  O   UNL     1      -1.873  -9.449  -1.976  1.00  0.00    -0.481 OA
ATOM     70  H   UNL     1      -1.567  -9.389  -1.046  1.00  0.00     0.296 HD
ENDBRANCH  67  69
ENDBRANCH  66  67
ENDBRANCH  56  66
ENDBRANCH  53  56
ENDBRANCH  50  52
ENDBRANCH  47  50
ENDBRANCH  45  46
BRANCH  45  71
ATOM     71  C   UNL     1      -3.244  -8.929   2.168  1.00  0.00     0.037 C 
BRANCH  71  72
ATOM     72  C   UNL     1      -4.680  -9.204   2.621  1.00  0.00     0.026 C 
BRANCH  72  73
ATOM     73  C   UNL     1      -4.940  -8.655   4.022  1.00  0.00     0.146 C 
BRANCH  73  74
ATOM     74  N   UNL     1      -3.876  -7.706   4.335  1.00  0.00    -0.254 NA
ATOM     75  C   UNL     1      -3.838  -7.218   5.520  1.00  0.00     0.185 C 
ATOM     76  N   UNL     1      -2.870  -6.343   5.838  1.00  0.00    -0.370 N 
ATOM     77  N   UNL     1      -4.659  -7.455   6.558  1.00  0.00    -0.370 N 
ATOM     78  H   UNL     1      -2.213  -6.103   5.110  1.00  0.00     0.159 HD
ATOM     79  H   UNL     1      -2.862  -5.813   6.692  1.00  0.00     0.159 HD
ATOM     80  H   UNL     1      -5.432  -8.096   6.466  1.00  0.00     0.159 HD
ATOM     81  H   UNL     1      -4.461  -7.100   7.479  1.00  0.00     0.159 HD
ENDBRANCH  73  74
ENDBRANCH  72  73
ENDBRANCH  71  72
ENDBRANCH  45  71
ENDBRANCH   3  45
TORSDOF 20
ENDMDL
MODEL 2
REMARK VINA RESULT:    -6.228      5.153     10.970
REMARK INTER + INTRA:         -25.944
REMARK INTER:                 -18.060
REMARK INTRA:                  -7.883
REMARK UNBOUND:                -8.064
REMARK SMILES CCCCCC(=O)N[C@H](CC(=O)O)C(=O)N[C@H]1C(=O)N[C@H](CCCN=C(N)N)C(=O)N[C@@H]2CC[C@H](O)N(C2=O)[C@@H](CC(C)C)C(=O)N(C)[C@@H](Cc2ccccc2)C(=O)N[C@H](C(C)C)C(=O)O[C@@H]1C
REMARK SMILES IDX 30 1 31 2 29 3 32 5 35 6 37 7 34 8 38 9 33 10 39 11 36 12
REMARK SMILES IDX 40 14 41 15 42 16 43 17 44 18 45 19 46 20 47 21 48 22 49 23
REMARK SMILES IDX 50 24 51 25 52 26 56 27 53 28 55 29 54 30 57 31 58 32 59 33
REMARK SMILES IDX 60 35 61 36 62 37 63 38 64 39 65 40 66 41 67 42 68 43 21 45
REMARK SMILES IDX 20 46 18 47 19 48 17 50 16 52 14 53 15 54 9 56 8 57 6 58
REMARK SMILES IDX 7 59 5 61 4 62 3 63 2 64 1 65 10 66 11 67 12 68 13 69 22 71
REMARK SMILES IDX 23 72 24 73 25 74 26 75 27 76 28 77
REMARK H PARENT 31 4 36 13 59 34 20 49 16 55 8 60 13 70 27 78 27 79 28 80
REMARK H PARENT 28 81
REMARK Flexibility Score:  259.900
ROOT
ATOM      1  O   UNL     1       0.894  -2.799   4.405  1.00  0.00    -0.273 OA
ATOM      2  N   UNL     1       2.620  -1.457   3.735  1.00  0.00    -0.343 N 
ATOM      3  C   UNL     1       1.358  -1.669   4.245  1.00  0.00     0.243 C 
ATOM      4  H   UNL     1       2.974  -0.514   3.631  1.00  0.00     0.164 HD
ENDROOT
BRANCH   2   5
ATOM      5  C   UNL     1       3.421  -2.574   3.246  1.00  0.00     0.171 C 
ATOM      6  C   UNL     1       6.280  -3.048   3.152  1.00  0.00     0.214 C 
ATOM      7  N   UNL     1       5.626  -2.419   2.028  1.00  0.00    -0.303 N 
ATOM      8  C   UNL     1       5.377  -4.006   3.914  1.00  0.00     0.057 C 
ATOM      9  C   UNL     1       4.274  -2.118   2.028  1.00  0.00     0.247 C 
ATOM     10  C   UNL     1       4.144  -3.274   4.396  1.00  0.00     0.040 C 
ATOM     11  O   UNL     1       3.739  -1.502   1.097  1.00  0.00    -0.272 OA
BRANCH   6  12
ATOM     12  O   UNL     1       6.746  -2.027   4.004  1.00  0.00    -0.373 OA
ATOM     13  H   UNL     1       7.562  -2.362   4.434  1.00  0.00     0.213 HD
ENDBRANCH   6  12
BRANCH   7  14
ATOM     14  C   UNL     1       6.491  -1.969   0.916  1.00  0.00     0.177 C 
BRANCH  14  15
ATOM     15  C   UNL     1       7.385  -0.754   1.232  1.00  0.00     0.038 C 
BRANCH  15  16
ATOM     16  C   UNL     1       6.822   0.673   1.050  1.00  0.00    -0.015 C 
ATOM     17  C   UNL     1       5.985   0.813  -0.225  1.00  0.00     0.007 C 
ATOM     18  C   UNL     1       7.976   1.681   0.979  1.00  0.00     0.007 C 
ENDBRANCH  15  16
ENDBRANCH  14  15
BRANCH  14  19
ATOM     19  C   UNL     1       6.899  -3.186   0.017  1.00  0.00     0.245 C 
ATOM     20  O   UNL     1       5.980  -3.780  -0.571  1.00  0.00    -0.272 OA
BRANCH  19  21
ATOM     21  N   UNL     1       8.185  -3.689  -0.063  1.00  0.00    -0.332 N 
ATOM     22  C   UNL     1       8.929  -4.279   1.036  1.00  0.00     0.147 C 
BRANCH  21  23
ATOM     23  C   UNL     1       8.881  -3.616  -1.377  1.00  0.00     0.178 C 
BRANCH  23  24
ATOM     24  C   UNL     1      10.164  -2.759  -1.382  1.00  0.00     0.070 C 
BRANCH  24  25
ATOM     25  C   UNL     1      10.008  -1.289  -1.694  1.00  0.00    -0.045 A 
ATOM     26  C   UNL     1      11.007  -0.371  -1.342  1.00  0.00     0.004 A 
ATOM     27  C   UNL     1       8.854  -0.821  -2.339  1.00  0.00     0.004 A 
ATOM     28  C   UNL     1      10.848   0.988  -1.618  1.00  0.00     0.000 A 
ATOM     29  C   UNL     1       8.697   0.539  -2.615  1.00  0.00     0.000 A 
ATOM     30  C   UNL     1       9.693   1.442  -2.252  1.00  0.00     0.000 A 
ENDBRANCH  24  25
ENDBRANCH  23  24
BRANCH  23  31
ATOM     31  C   UNL     1       9.016  -4.994  -2.067  1.00  0.00     0.243 C 
ATOM     32  O   UNL     1       8.078  -5.766  -2.249  1.00  0.00    -0.273 OA
ATOM     33  N   UNL     1      10.328  -5.371  -2.298  1.00  0.00    -0.341 N 
ATOM     34  H   UNL     1      11.068  -4.687  -2.121  1.00  0.00     0.164 HD
BRANCH  33  35
ATOM     35  C   UNL     1      10.700  -6.684  -2.832  1.00  0.00     0.194 C 
BRANCH  35  36
ATOM     36  C   UNL     1      11.517  -7.563  -1.844  1.00  0.00     0.017 C 
ATOM     37  C   UNL     1      10.864  -8.943  -1.651  1.00  0.00     0.010 C 
ATOM     38  C   UNL     1      11.669  -6.929  -0.456  1.00  0.00     0.010 C 
ENDBRANCH  35  36
BRANCH  35  39
ATOM     39  C   UNL     1      11.382  -6.592  -4.226  1.00  0.00     0.329 C 
ATOM     40  O   UNL     1      12.371  -7.238  -4.551  1.00  0.00    -0.250 OA
BRANCH  39  41
ATOM     41  O   UNL     1      10.702  -5.771  -5.084  1.00  0.00    -0.458 OA
BRANCH  41  42
ATOM     42  C   UNL     1      10.139  -6.398  -6.261  1.00  0.00     0.205 CG0
ATOM     43  C   UNL     1       8.678  -6.715  -5.951  1.00  0.00     0.056 C 
ATOM     44  G   UNL     1      10.960  -7.662  -6.584  1.00  0.00     0.000 G0
ENDBRANCH  41  42
ENDBRANCH  39  41
ENDBRANCH  35  39
ENDBRANCH  33  35
ENDBRANCH  23  31
ENDBRANCH  21  23
ENDBRANCH  19  21
ENDBRANCH  14  19
ENDBRANCH   7  14
ENDBRANCH   2   5
BRANCH   3  45
ATOM     45  C   UNL     1       0.579  -0.402   4.621  1.00  0.00     0.171 C 
BRANCH  45  46
ATOM     46  N   UNL     1      -0.203  -0.754   5.799  1.00  0.00    -0.342 N 
ATOM     47  C   UNL     1       0.097  -0.279   7.051  1.00  0.00     0.247 C 
ATOM     48  O   UNL     1       0.998   0.534   7.259  1.00  0.00    -0.273 OA
ATOM     49  H   UNL     1      -0.994  -1.381   5.662  1.00  0.00     0.164 HD
BRANCH  47  50
ATOM     50  C   UNL     1      -0.759  -0.856   8.187  1.00  0.00     0.212 CG0
ATOM     51  G   UNL     1      -2.064  -0.037   8.252  1.00  0.00     0.000 G0
BRANCH  50  52
ATOM     52  N   UNL     1      -0.975  -2.258   7.839  1.00  0.00    -0.339 N 
ATOM     53  C   UNL     1      -0.087  -3.259   8.151  1.00  0.00     0.243 C 
ATOM     54  O   UNL     1       0.988  -3.042   8.703  1.00  0.00    -0.273 OA
ATOM     55  H   UNL     1      -1.796  -2.486   7.282  1.00  0.00     0.164 HD
BRANCH  53  56
ATOM     56  C   UNL     1      -0.487  -4.644   7.605  1.00  0.00     0.182 C 
BRANCH  56  57
ATOM     57  N   UNL     1       0.397  -5.054   6.509  1.00  0.00    -0.344 N 
ATOM     58  C   UNL     1       1.425  -5.947   6.687  1.00  0.00     0.220 C 
ATOM     59  O   UNL     1       1.722  -6.406   7.784  1.00  0.00    -0.275 OA
ATOM     60  H   UNL     1       0.124  -4.777   5.570  1.00  0.00     0.164 HD
BRANCH  58  61
ATOM     61  C   UNL     1       2.170  -6.269   5.404  1.00  0.00     0.100 C 
BRANCH  61  62
ATOM     62  C   UNL     1       1.259  -6.449   4.190  1.00  0.00     0.010 C 
BRANCH  62  63
ATOM     63  C   UNL     1       1.868  -5.960   2.870  1.00  0.00     0.000 C 
BRANCH  63  64
ATOM     64  C   UNL     1       0.872  -5.874   1.715  1.00  0.00    -0.003 C 
ATOM     65  C   UNL     1      -0.347  -5.045   2.092  1.00  0.00     0.004 C 
ENDBRANCH  63  64
ENDBRANCH  62  63
ENDBRANCH  61  62
ENDBRANCH  58  61
ENDBRANCH  56  57
BRANCH  56  66
ATOM     66  C   UNL     1      -1.960  -4.684   7.204  1.00  0.00     0.157 C 
BRANCH  66  67
ATOM     67  C   UNL     1      -2.118  -4.667   5.711  1.00  0.00     0.305 C 
ATOM     68  O   UNL     1      -2.438  -5.605   4.996  1.00  0.00    -0.252 OA
BRANCH  67  69
ATOM     69  O   UNL     1      -1.913  -3.442   5.189  1.00  0.00    -0.481 OA
ATOM     70  H   UNL     1      -2.424  -2.836   5.766  1.00  0.00     0.296 HD
ENDBRANCH  67  69
ENDBRANCH  66  67
ENDBRANCH  56  66
ENDBRANCH  53  56
ENDBRANCH  50  52
ENDBRANCH  47  50
ENDBRANCH  45  46
BRANCH  45  71
ATOM     71  C   UNL     1      -0.318   0.039   3.458  1.00  0.00     0.037 C 
BRANCH  71  72
ATOM     72  C   UNL     1      -0.224   1.544   3.197  1.00  0.00     0.026 C 
BRANCH  72  73
ATOM     73  C   UNL     1       1.039   1.900   2.417  1.00  0.00     0.146 C 
BRANCH  73  74
ATOM     74  N   UNL     1       0.872   3.251   1.888  1.00  0.00    -0.254 NA
ATOM     75  C   UNL     1       1.634   3.615   0.924  1.00  0.00     0.185 C 
ATOM     76  N   UNL     1       1.504   4.851   0.416  1.00  0.00    -0.370 N 
ATOM     77  N   UNL     1       2.602   2.919   0.302  1.00  0.00    -0.370 N 
ATOM     78  H   UNL     1       0.801   5.446   0.833  1.00  0.00     0.159 HD
ATOM     79  H   UNL     1       2.155   5.254  -0.234  1.00  0.00     0.159 HD
ATOM     80  H   UNL     1       2.809   1.971   0.577  1.00  0.00     0.159 HD
ATOM     81  H   UNL     1       3.059   3.271  -0.523  1.00  0.00     0.159 HD
ENDBRANCH  73  74
ENDBRANCH  72  73
ENDBRANCH  71  72
ENDBRANCH  45  71
ENDBRANCH   3  45
TORSDOF 20
ENDMDL
MODEL 3
REMARK VINA RESULT:    -6.087      2.747      5.755
REMARK INTER + INTRA:         -25.537
REMARK INTER:                 -18.751
REMARK INTRA:                  -6.786
REMARK UNBOUND:                -8.064
REMARK SMILES CCCCCC(=O)N[C@H](CC(=O)O)C(=O)N[C@H]1C(=O)N[C@H](CCCN=C(N)N)C(=O)N[C@@H]2CC[C@H](O)N(C2=O)[C@@H](CC(C)C)C(=O)N(C)[C@@H](Cc2ccccc2)C(=O)N[C@H](C(C)C)C(=O)O[C@@H]1C
REMARK SMILES IDX 30 1 31 2 29 3 32 5 35 6 37 7 34 8 38 9 33 10 39 11 36 12
REMARK SMILES IDX 40 14 41 15 42 16 43 17 44 18 45 19 46 20 47 21 48 22 49 23
REMARK SMILES IDX 50 24 51 25 52 26 56 27 53 28 55 29 54 30 57 31 58 32 59 33
REMARK SMILES IDX 60 35 61 36 62 37 63 38 64 39 65 40 66 41 67 42 68 43 21 45
REMARK SMILES IDX 20 46 18 47 19 48 17 50 16 52 14 53 15 54 9 56 8 57 6 58
REMARK SMILES IDX 7 59 5 61 4 62 3 63 2 64 1 65 10 66 11 67 12 68 13 69 22 71
REMARK SMILES IDX 23 72 24 73 25 74 26 75 27 76 28 77
REMARK H PARENT 31 4 36 13 59 34 20 49 16 55 8 60 13 70 27 78 27 79 28 80
REMARK H PARENT 28 81
REMARK Flexibility Score:  259.900
ROOT
ATOM      1  O   UNL     1       0.251  -6.999   0.020  1.00  0.00    -0.273 OA
ATOM      2  N   UNL     1       1.966  -6.438   1.425  1.00  0.00    -0.343 N 
ATOM      3  C   UNL     1       1.057  -7.326   0.891  1.00  0.00     0.243 C 
ATOM      4  H   UNL     1       2.624  -6.746   2.130  1.00  0.00     0.164 HD
ENDROOT
BRANCH   2   5
ATOM      5  C   UNL     1       1.928  -5.026   1.058  1.00  0.00     0.171 C 
ATOM      6  C   UNL     1       3.417  -2.716   1.980  1.00  0.00     0.214 C 
ATOM      7  N   UNL     1       2.171  -3.061   2.623  1.00  0.00    -0.303 N 
ATOM      8  C   UNL     1       3.468  -3.114   0.513  1.00  0.00     0.057 C 
ATOM      9  C   UNL     1       1.436  -4.180   2.266  1.00  0.00     0.247 C 
ATOM     10  C   UNL     1       3.229  -4.602   0.377  1.00  0.00     0.040 C 
ATOM     11  O   UNL     1       0.414  -4.517   2.880  1.00  0.00    -0.272 OA
BRANCH   6  12
ATOM     12  O   UNL     1       4.458  -3.340   2.695  1.00  0.00    -0.373 OA
ATOM     13  H   UNL     1       4.038  -3.917   3.369  1.00  0.00     0.213 HD
ENDBRANCH   6  12
BRANCH   7  14
ATOM     14  C   UNL     1       1.773  -2.249   3.793  1.00  0.00     0.177 C 
BRANCH  14  15
ATOM     15  C   UNL     1       2.540  -2.553   5.094  1.00  0.00     0.038 C 
BRANCH  15  16
ATOM     16  C   UNL     1       2.211  -3.835   5.890  1.00  0.00    -0.015 C 
ATOM     17  C   UNL     1       2.248  -3.609   7.404  1.00  0.00     0.007 C 
ATOM     18  C   UNL     1       3.223  -4.935   5.543  1.00  0.00     0.007 C 
ENDBRANCH  15  16
ENDBRANCH  14  15
BRANCH  14  19
ATOM     19  C   UNL     1       1.296  -0.829   3.331  1.00  0.00     0.245 C 
ATOM     20  O   UNL     1       0.690  -0.767   2.249  1.00  0.00    -0.272 OA
BRANCH  19  21
ATOM     21  N   UNL     1       1.609   0.344   3.996  1.00  0.00    -0.332 N 
ATOM     22  C   UNL     1       2.746   1.199   3.707  1.00  0.00     0.147 C 
BRANCH  21  23
ATOM     23  C   UNL     1       0.719   0.769   5.112  1.00  0.00     0.178 C 
BRANCH  23  24
ATOM     24  C   UNL     1       1.414   0.883   6.484  1.00  0.00     0.070 C 
BRANCH  24  25
ATOM     25  C   UNL     1       0.912  -0.020   7.587  1.00  0.00    -0.045 A 
ATOM     26  C   UNL     1      -0.235  -0.803   7.406  1.00  0.00     0.004 A 
ATOM     27  C   UNL     1       1.589  -0.081   8.814  1.00  0.00     0.004 A 
ATOM     28  C   UNL     1      -0.703  -1.621   8.436  1.00  0.00     0.000 A 
ATOM     29  C   UNL     1       1.120  -0.901   9.843  1.00  0.00     0.000 A 
ATOM     30  C   UNL     1      -0.027  -1.668   9.654  1.00  0.00     0.000 A 
ENDBRANCH  24  25
ENDBRANCH  23  24
BRANCH  23  31
ATOM     31  C   UNL     1      -0.186   1.968   4.739  1.00  0.00     0.243 C 
ATOM     32  O   UNL     1      -0.753   2.089   3.656  1.00  0.00    -0.273 OA
ATOM     33  N   UNL     1      -0.155   2.994   5.668  1.00  0.00    -0.341 N 
ATOM     34  H   UNL     1       0.340   2.836   6.549  1.00  0.00     0.164 HD
BRANCH  33  35
ATOM     35  C   UNL     1      -0.840   4.274   5.467  1.00  0.00     0.194 C 
BRANCH  35  36
ATOM     36  C   UNL     1       0.110   5.454   5.117  1.00  0.00     0.017 C 
ATOM     37  C   UNL     1      -0.633   6.801   5.162  1.00  0.00     0.010 C 
ATOM     38  C   UNL     1       0.747   5.327   3.728  1.00  0.00     0.010 C 
ENDBRANCH  35  36
BRANCH  35  39
ATOM     39  C   UNL     1      -1.800   4.628   6.636  1.00  0.00     0.329 C 
ATOM     40  O   UNL     1      -3.006   4.804   6.505  1.00  0.00    -0.250 OA
BRANCH  39  41
ATOM     41  O   UNL     1      -1.164   4.637   7.847  1.00  0.00    -0.458 OA
BRANCH  41  42
ATOM     42  C   UNL     1      -1.321   5.834   8.645  1.00  0.00     0.205 CG0
ATOM     43  C   UNL     1      -2.109   5.446   9.895  1.00  0.00     0.056 C 
ATOM     44  G   UNL     1      -2.046   6.898   7.798  1.00  0.00     0.000 G0
ENDBRANCH  41  42
ENDBRANCH  39  41
ENDBRANCH  35  39
ENDBRANCH  33  35
ENDBRANCH  23  31
ENDBRANCH  21  23
ENDBRANCH  19  21
ENDBRANCH  14  19
ENDBRANCH   7  14
ENDBRANCH   2   5
BRANCH   3  45
ATOM     45  C   UNL     1       1.134  -8.756   1.443  1.00  0.00     0.171 C 
BRANCH  45  46
ATOM     46  N   UNL     1       0.493  -9.599   0.443  1.00  0.00    -0.342 N 
ATOM     47  C   UNL     1       1.209 -10.342  -0.462  1.00  0.00     0.247 C 
ATOM     48  O   UNL     1       2.438 -10.408  -0.449  1.00  0.00    -0.273 OA
ATOM     49  H   UNL     1      -0.525  -9.618   0.433  1.00  0.00     0.164 HD
BRANCH  47  50
ATOM     50  C   UNL     1       0.364 -11.070  -1.518  1.00  0.00     0.212 CG0
ATOM     51  G   UNL     1       1.175 -12.287  -2.006  1.00  0.00     0.000 G0
BRANCH  50  52
ATOM     52  N   UNL     1      -0.876 -11.437  -0.840  1.00  0.00    -0.339 N 
ATOM     53  C   UNL     1      -1.053 -12.630  -0.181  1.00  0.00     0.243 C 
ATOM     54  O   UNL     1      -0.194 -13.507  -0.158  1.00  0.00    -0.273 OA
ATOM     55  H   UNL     1      -1.665 -10.798  -0.918  1.00  0.00     0.164 HD
BRANCH  53  56
ATOM     56  C   UNL     1      -2.474 -12.830   0.383  1.00  0.00     0.182 C 
BRANCH  56  57
ATOM     57  N   UNL     1      -2.931 -11.633   1.097  1.00  0.00    -0.344 N 
ATOM     58  C   UNL     1      -4.129 -11.023   0.819  1.00  0.00     0.220 C 
ATOM     59  O   UNL     1      -4.865 -11.389  -0.090  1.00  0.00    -0.275 OA
ATOM     60  H   UNL     1      -2.402 -11.359   1.921  1.00  0.00     0.164 HD
BRANCH  58  61
ATOM     61  C   UNL     1      -4.423  -9.837   1.720  1.00  0.00     0.100 C 
BRANCH  61  62
ATOM     62  C   UNL     1      -3.232  -8.899   1.912  1.00  0.00     0.010 C 
BRANCH  62  63
ATOM     63  C   UNL     1      -3.524  -7.689   2.810  1.00  0.00     0.000 C 
BRANCH  63  64
ATOM     64  C   UNL     1      -2.796  -7.715   4.152  1.00  0.00    -0.003 C 
ATOM     65  C   UNL     1      -2.973  -9.053   4.855  1.00  0.00     0.004 C 
ENDBRANCH  63  64
ENDBRANCH  62  63
ENDBRANCH  61  62
ENDBRANCH  58  61
ENDBRANCH  56  57
BRANCH  56  66
ATOM     66  C   UNL     1      -2.561 -14.086   1.248  1.00  0.00     0.157 C 
BRANCH  66  67
ATOM     67  C   UNL     1      -2.746 -13.737   2.697  1.00  0.00     0.305 C 
ATOM     68  O   UNL     1      -1.879 -13.382   3.481  1.00  0.00    -0.252 OA
BRANCH  67  69
ATOM     69  O   UNL     1      -4.035 -13.802   3.079  1.00  0.00    -0.481 OA
ATOM     70  H   UNL     1      -4.118 -14.666   3.535  1.00  0.00     0.296 HD
ENDBRANCH  67  69
ENDBRANCH  66  67
ENDBRANCH  56  66
ENDBRANCH  53  56
ENDBRANCH  50  52
ENDBRANCH  47  50
ENDBRANCH  45  46
BRANCH  45  71
ATOM     71  C   UNL     1       0.423  -8.844   2.798  1.00  0.00     0.037 C 
BRANCH  71  72
ATOM     72  C   UNL     1       1.411  -8.962   3.961  1.00  0.00     0.026 C 
BRANCH  72  73
ATOM     73  C   UNL     1       0.703  -9.327   5.264  1.00  0.00     0.146 C 
BRANCH  73  74
ATOM     74  N   UNL     1       1.496  -8.796   6.368  1.00  0.00    -0.254 NA
ATOM     75  C   UNL     1       1.085  -7.724   6.939  1.00  0.00     0.185 C 
ATOM     76  N   UNL     1       1.793  -7.211   7.958  1.00  0.00    -0.370 N 
ATOM     77  N   UNL     1      -0.005  -6.986   6.666  1.00  0.00    -0.370 N 
ATOM     78  H   UNL     1       2.635  -7.703   8.224  1.00  0.00     0.159 HD
ATOM     79  H   UNL     1       1.615  -6.306   8.356  1.00  0.00     0.159 HD
ATOM     80  H   UNL     1      -0.635  -7.254   5.925  1.00  0.00     0.159 HD
ATOM     81  H   UNL     1      -0.289  -6.224   7.260  1.00  0.00     0.159 HD
ENDBRANCH  73  74
ENDBRANCH  72  73
ENDBRANCH  71  72
ENDBRANCH  45  71
ENDBRANCH   3  45
TORSDOF 20
ENDMDL
MODEL 4
REMARK VINA RESULT:    -6.032      4.504     12.656
REMARK INTER + INTRA:         -25.381
REMARK INTER:                 -18.346
REMARK INTRA:                  -7.036
REMARK UNBOUND:                -8.064
REMARK SMILES CCCCCC(=O)N[C@H](CC(=O)O)C(=O)N[C@H]1C(=O)N[C@H](CCCN=C(N)N)C(=O)N[C@@H]2CC[C@H](O)N(C2=O)[C@@H](CC(C)C)C(=O)N(C)[C@@H](Cc2ccccc2)C(=O)N[C@H](C(C)C)C(=O)O[C@@H]1C
REMARK SMILES IDX 30 1 31 2 29 3 32 5 35 6 37 7 34 8 38 9 33 10 39 11 36 12
REMARK SMILES IDX 40 14 41 15 42 16 43 17 44 18 45 19 46 20 47 21 48 22 49 23
REMARK SMILES IDX 50 24 51 25 52 26 56 27 53 28 55 29 54 30 57 31 58 32 59 33
REMARK SMILES IDX 60 35 61 36 62 37 63 38 64 39 65 40 66 41 67 42 68 43 21 45
REMARK SMILES IDX 20 46 18 47 19 48 17 50 16 52 14 53 15 54 9 56 8 57 6 58
REMARK SMILES IDX 7 59 5 61 4 62 3 63 2 64 1 65 10 66 11 67 12 68 13 69 22 71
REMARK SMILES IDX 23 72 24 73 25 74 26 75 27 76 28 77
REMARK H PARENT 31 4 36 13 59 34 20 49 16 55 8 60 13 70 27 78 27 79 28 80
REMARK H PARENT 28 81
REMARK Flexibility Score:  259.900
ROOT
ATOM      1  O   UNL     1       1.872   0.167  -0.554  1.00  0.00    -0.273 OA
ATOM      2  N   UNL     1       1.470  -0.191   1.668  1.00  0.00    -0.343 N 
ATOM      3  C   UNL     1       2.130   0.419   0.623  1.00  0.00     0.243 C 
ATOM      4  H   UNL     1       1.698   0.052   2.625  1.00  0.00     0.164 HD
ENDROOT
BRANCH   2   5
ATOM      5  C   UNL     1       0.509  -1.259   1.418  1.00  0.00     0.171 C 
ATOM      6  C   UNL     1      -0.456  -3.456   3.046  1.00  0.00     0.214 C 
ATOM      7  N   UNL     1       0.693  -3.655   2.192  1.00  0.00    -0.303 N 
ATOM      8  C   UNL     1      -1.435  -2.426   2.506  1.00  0.00     0.057 C 
ATOM      9  C   UNL     1       1.236  -2.635   1.428  1.00  0.00     0.247 C 
ATOM     10  C   UNL     1      -0.728  -1.104   2.301  1.00  0.00     0.040 C 
ATOM     11  O   UNL     1       2.270  -2.791   0.767  1.00  0.00    -0.272 OA
BRANCH   6  12
ATOM     12  O   UNL     1       0.014  -3.070   4.317  1.00  0.00    -0.373 OA
ATOM     13  H   UNL     1      -0.754  -2.711   4.811  1.00  0.00     0.213 HD
ENDBRANCH   6  12
BRANCH   7  14
ATOM     14  C   UNL     1       1.369  -4.967   2.274  1.00  0.00     0.177 C 
BRANCH  14  15
ATOM     15  C   UNL     1       2.127  -5.233   3.589  1.00  0.00     0.038 C 
BRANCH  15  16
ATOM     16  C   UNL     1       3.169  -4.208   4.088  1.00  0.00    -0.015 C 
ATOM     17  C   UNL     1       4.331  -4.030   3.107  1.00  0.00     0.007 C 
ATOM     18  C   UNL     1       3.743  -4.665   5.435  1.00  0.00     0.007 C 
ENDBRANCH  15  16
ENDBRANCH  14  15
BRANCH  14  19
ATOM     19  C   UNL     1       0.576  -6.040   1.451  1.00  0.00     0.245 C 
ATOM     20  O   UNL     1       1.009  -6.309   0.319  1.00  0.00    -0.272 OA
BRANCH  19  21
ATOM     21  N   UNL     1      -0.617  -6.604   1.867  1.00  0.00    -0.332 N 
ATOM     22  C   UNL     1      -1.939  -6.212   1.411  1.00  0.00     0.147 C 
BRANCH  21  23
ATOM     23  C   UNL     1      -0.556  -7.698   2.876  1.00  0.00     0.178 C 
BRANCH  23  24
ATOM     24  C   UNL     1      -1.187  -7.354   4.240  1.00  0.00     0.070 C 
BRANCH  24  25
ATOM     25  C   UNL     1      -0.241  -7.056   5.381  1.00  0.00    -0.045 A 
ATOM     26  C   UNL     1       0.803  -7.935   5.695  1.00  0.00     0.004 A 
ATOM     27  C   UNL     1      -0.401  -5.891   6.146  1.00  0.00     0.004 A 
ATOM     28  C   UNL     1       1.662  -7.661   6.762  1.00  0.00     0.000 A 
ATOM     29  C   UNL     1       0.459  -5.618   7.211  1.00  0.00     0.000 A 
ATOM     30  C   UNL     1       1.489  -6.505   7.519  1.00  0.00     0.000 A 
ENDBRANCH  24  25
ENDBRANCH  23  24
BRANCH  23  31
ATOM     31  C   UNL     1      -0.962  -9.074   2.298  1.00  0.00     0.243 C 
ATOM     32  O   UNL     1      -0.479  -9.561   1.278  1.00  0.00    -0.273 OA
ATOM     33  N   UNL     1      -2.058  -9.638   2.930  1.00  0.00    -0.341 N 
ATOM     34  H   UNL     1      -2.419  -9.183   3.772  1.00  0.00     0.164 HD
BRANCH  33  35
ATOM     35  C   UNL     1      -2.689 -10.880   2.476  1.00  0.00     0.194 C 
BRANCH  35  36
ATOM     36  C   UNL     1      -4.126 -10.692   1.911  1.00  0.00     0.017 C 
ATOM     37  C   UNL     1      -4.115 -10.597   0.376  1.00  0.00     0.010 C 
ATOM     38  C   UNL     1      -4.825  -9.436   2.444  1.00  0.00     0.010 C 
ENDBRANCH  35  36
BRANCH  35  39
ATOM     39  C   UNL     1      -2.629 -12.006   3.546  1.00  0.00     0.329 C 
ATOM     40  O   UNL     1      -1.882 -11.991   4.517  1.00  0.00    -0.250 OA
BRANCH  39  41
ATOM     41  O   UNL     1      -3.568 -12.978   3.331  1.00  0.00    -0.458 OA
BRANCH  41  42
ATOM     42  C   UNL     1      -3.082 -14.341   3.298  1.00  0.00     0.205 CG0
ATOM     43  C   UNL     1      -2.505 -14.583   1.905  1.00  0.00     0.056 C 
ATOM     44  G   UNL     1      -4.255 -15.288   3.623  1.00  0.00     0.000 G0
ENDBRANCH  41  42
ENDBRANCH  39  41
ENDBRANCH  35  39
ENDBRANCH  33  35
ENDBRANCH  23  31
ENDBRANCH  21  23
ENDBRANCH  19  21
ENDBRANCH  14  19
ENDBRANCH   7  14
ENDBRANCH   2   5
BRANCH   3  45
ATOM     45  C   UNL     1       3.193   1.448   1.028  1.00  0.00     0.171 C 
BRANCH  45  46
ATOM     46  N   UNL     1       3.327   2.346  -0.111  1.00  0.00    -0.342 N 
ATOM     47  C   UNL     1       2.811   3.618  -0.112  1.00  0.00     0.247 C 
ATOM     48  O   UNL     1       2.264   4.117   0.872  1.00  0.00    -0.273 OA
ATOM     49  H   UNL     1       3.822   1.992  -0.928  1.00  0.00     0.164 HD
BRANCH  47  50
ATOM     50  C   UNL     1       2.939   4.371  -1.443  1.00  0.00     0.212 CG0
ATOM     51  G   UNL     1       3.078   5.872  -1.120  1.00  0.00     0.000 G0
BRANCH  50  52
ATOM     52  N   UNL     1       4.119   3.810  -2.096  1.00  0.00    -0.339 N 
ATOM     53  C   UNL     1       5.281   4.516  -2.293  1.00  0.00     0.243 C 
ATOM     54  O   UNL     1       5.399   5.697  -1.979  1.00  0.00    -0.273 OA
ATOM     55  H   UNL     1       4.046   2.869  -2.478  1.00  0.00     0.164 HD
BRANCH  53  56
ATOM     56  C   UNL     1       6.359   3.743  -3.080  1.00  0.00     0.182 C 
BRANCH  56  57
ATOM     57  N   UNL     1       6.423   2.343  -2.650  1.00  0.00    -0.344 N 
ATOM     58  C   UNL     1       7.030   1.369  -3.405  1.00  0.00     0.220 C 
ATOM     59  O   UNL     1       7.494   1.585  -4.518  1.00  0.00    -0.275 OA
ATOM     60  H   UNL     1       6.142   2.141  -1.694  1.00  0.00     0.164 HD
BRANCH  58  61
ATOM     61  C   UNL     1       7.029   0.005  -2.739  1.00  0.00     0.100 C 
BRANCH  61  62
ATOM     62  C   UNL     1       5.635  -0.495  -2.360  1.00  0.00     0.010 C 
BRANCH  62  63
ATOM     63  C   UNL     1       5.635  -1.651  -1.352  1.00  0.00     0.000 C 
BRANCH  63  64
ATOM     64  C   UNL     1       7.016  -2.000  -0.799  1.00  0.00    -0.003 C 
ATOM     65  C   UNL     1       7.014  -2.026   0.723  1.00  0.00     0.004 C 
ENDBRANCH  63  64
ENDBRANCH  62  63
ENDBRANCH  61  62
ENDBRANCH  58  61
ENDBRANCH  56  57
BRANCH  56  66
ATOM     66  C   UNL     1       7.718   4.435  -2.995  1.00  0.00     0.157 C 
BRANCH  66  67
ATOM     67  C   UNL     1       8.132   4.986  -4.330  1.00  0.00     0.305 C 
ATOM     68  O   UNL     1       8.974   5.846  -4.538  1.00  0.00    -0.252 OA
BRANCH  67  69
ATOM     69  O   UNL     1       7.496   4.383  -5.352  1.00  0.00    -0.481 OA
ATOM     70  H   UNL     1       7.868   4.799  -6.158  1.00  0.00     0.296 HD
ENDBRANCH  67  69
ENDBRANCH  66  67
ENDBRANCH  56  66
ENDBRANCH  53  56
ENDBRANCH  50  52
ENDBRANCH  47  50
ENDBRANCH  45  46
BRANCH  45  71
ATOM     71  C   UNL     1       4.517   0.748   1.355  1.00  0.00     0.037 C 
BRANCH  71  72
ATOM     72  C   UNL     1       5.719   1.482   0.756  1.00  0.00     0.026 C 
BRANCH  72  73
ATOM     73  C   UNL     1       6.480   2.272   1.819  1.00  0.00     0.146 C 
BRANCH  73  74
ATOM     74  N   UNL     1       5.585   3.305   2.334  1.00  0.00    -0.254 NA
ATOM     75  C   UNL     1       5.681   4.483   1.836  1.00  0.00     0.185 C 
ATOM     76  N   UNL     1       4.871   5.454   2.288  1.00  0.00    -0.370 N 
ATOM     77  N   UNL     1       6.511   4.930   0.877  1.00  0.00    -0.370 N 
ATOM     78  H   UNL     1       4.219   5.203   3.018  1.00  0.00     0.159 HD
ATOM     79  H   UNL     1       4.985   6.424   2.053  1.00  0.00     0.159 HD
ATOM     80  H   UNL     1       7.175   4.308   0.441  1.00  0.00     0.159 HD
ATOM     81  H   UNL     1       6.416   5.852   0.484  1.00  0.00     0.159 HD
ENDBRANCH  73  74
ENDBRANCH  72  73
ENDBRANCH  71  72
ENDBRANCH  45  71
ENDBRANCH   3  45
TORSDOF 20
ENDMDL
MODEL 5
REMARK VINA RESULT:    -6.012      8.486     12.501
REMARK INTER + INTRA:         -25.323
REMARK INTER:                 -18.376
REMARK INTRA:                  -6.947
REMARK UNBOUND:                -8.064
REMARK SMILES CCCCCC(=O)N[C@H](CC(=O)O)C(=O)N[C@H]1C(=O)N[C@H](CCCN=C(N)N)C(=O)N[C@@H]2CC[C@H](O)N(C2=O)[C@@H](CC(C)C)C(=O)N(C)[C@@H](Cc2ccccc2)C(=O)N[C@H](C(C)C)C(=O)O[C@@H]1C
REMARK SMILES IDX 30 1 31 2 29 3 32 5 35 6 37 7 34 8 38 9 33 10 39 11 36 12
REMARK SMILES IDX 40 14 41 15 42 16 43 17 44 18 45 19 46 20 47 21 48 22 49 23
REMARK SMILES IDX 50 24 51 25 52 26 56 27 53 28 55 29 54 30 57 31 58 32 59 33
REMARK SMILES IDX 60 35 61 36 62 37 63 38 64 39 65 40 66 41 67 42 68 43 21 45
REMARK SMILES IDX 20 46 18 47 19 48 17 50 16 52 14 53 15 54 9 56 8 57 6 58
REMARK SMILES IDX 7 59 5 61 4 62 3 63 2 64 1 65 10 66 11 67 12 68 13 69 22 71
REMARK SMILES IDX 23 72 24 73 25 74 26 75 27 76 28 77
REMARK H PARENT 31 4 36 13 59 34 20 49 16 55 8 60 13 70 27 78 27 79 28 80
REMARK H PARENT 28 81
REMARK Flexibility Score:  259.900
ROOT
ATOM      1  O   UNL     1      -3.377  -5.573   6.093  1.00  0.00    -0.273 OA
ATOM      2  N   UNL     1      -4.990  -6.810   7.142  1.00  0.00    -0.343 N 
ATOM      3  C   UNL     1      -4.000  -6.630   6.200  1.00  0.00     0.243 C 
ATOM      4  H   UNL     1      -5.471  -7.698   7.211  1.00  0.00     0.164 HD
ENDROOT
BRANCH   2   5
ATOM      5  C   UNL     1      -5.425  -5.699   7.983  1.00  0.00     0.171 C 
ATOM      6  C   UNL     1      -7.181  -5.549  10.285  1.00  0.00     0.214 C 
ATOM      7  N   UNL     1      -7.729  -5.370   8.960  1.00  0.00    -0.303 N 
ATOM      8  C   UNL     1      -5.735  -5.095  10.404  1.00  0.00     0.057 C 
ATOM      9  C   UNL     1      -6.956  -5.480   7.816  1.00  0.00     0.247 C 
ATOM     10  C   UNL     1      -4.879  -5.840   9.403  1.00  0.00     0.040 C 
ATOM     11  O   UNL     1      -7.449  -5.411   6.682  1.00  0.00    -0.272 OA
BRANCH   6  12
ATOM     12  O   UNL     1      -7.297  -6.913  10.618  1.00  0.00    -0.373 OA
ATOM     13  H   UNL     1      -6.757  -7.059  11.424  1.00  0.00     0.213 HD
ENDBRANCH   6  12
BRANCH   7  14
ATOM     14  C   UNL     1      -9.195  -5.208   8.858  1.00  0.00     0.177 C 
BRANCH  14  15
ATOM     15  C   UNL     1      -9.974  -6.490   8.507  1.00  0.00     0.038 C 
BRANCH  15  16
ATOM     16  C   UNL     1     -11.512  -6.434   8.374  1.00  0.00    -0.015 C 
ATOM     17  C   UNL     1     -12.155  -7.823   8.436  1.00  0.00     0.007 C 
ATOM     18  C   UNL     1     -11.894  -5.787   7.037  1.00  0.00     0.007 C 
ENDBRANCH  15  16
ENDBRANCH  14  15
BRANCH  14  19
ATOM     19  C   UNL     1      -9.687  -4.087   9.836  1.00  0.00     0.245 C 
ATOM     20  O   UNL     1      -9.227  -2.946   9.657  1.00  0.00    -0.272 OA
BRANCH  19  21
ATOM     21  N   UNL     1     -10.499  -4.321  10.932  1.00  0.00    -0.332 N 
ATOM     22  C   UNL     1     -10.317  -5.384  11.904  1.00  0.00     0.147 C 
BRANCH  21  23
ATOM     23  C   UNL     1     -11.668  -3.421  11.137  1.00  0.00     0.178 C 
BRANCH  23  24
ATOM     24  C   UNL     1     -13.038  -4.068  10.849  1.00  0.00     0.070 C 
BRANCH  24  25
ATOM     25  C   UNL     1     -13.741  -3.655   9.576  1.00  0.00    -0.045 A 
ATOM     26  C   UNL     1     -14.683  -4.496   8.971  1.00  0.00     0.004 A 
ATOM     27  C   UNL     1     -13.453  -2.418   8.979  1.00  0.00     0.004 A 
ATOM     28  C   UNL     1     -15.315  -4.114   7.786  1.00  0.00     0.000 A 
ATOM     29  C   UNL     1     -14.086  -2.037   7.795  1.00  0.00     0.000 A 
ATOM     30  C   UNL     1     -15.015  -2.887   7.198  1.00  0.00     0.000 A 
ENDBRANCH  24  25
ENDBRANCH  23  24
BRANCH  23  31
ATOM     31  C   UNL     1     -11.590  -2.622  12.459  1.00  0.00     0.243 C 
ATOM     32  O   UNL     1     -10.659  -1.878  12.758  1.00  0.00    -0.273 OA
ATOM     33  N   UNL     1     -12.578  -2.959  13.368  1.00  0.00    -0.341 N 
ATOM     34  H   UNL     1     -13.325  -3.588  13.063  1.00  0.00     0.164 HD
BRANCH  33  35
ATOM     35  C   UNL     1     -12.631  -2.416  14.729  1.00  0.00     0.194 C 
BRANCH  35  36
ATOM     36  C   UNL     1     -12.246  -3.439  15.835  1.00  0.00     0.017 C 
ATOM     37  C   UNL     1     -10.796  -3.235  16.305  1.00  0.00     0.010 C 
ATOM     38  C   UNL     1     -12.382  -4.898  15.383  1.00  0.00     0.010 C 
ENDBRANCH  35  36
BRANCH  35  39
ATOM     39  C   UNL     1     -13.978  -1.706  15.037  1.00  0.00     0.329 C 
ATOM     40  O   UNL     1     -14.751  -2.054  15.923  1.00  0.00    -0.250 OA
BRANCH  39  41
ATOM     41  O   UNL     1     -14.167  -0.592  14.267  1.00  0.00    -0.458 OA
BRANCH  41  42
ATOM     42  C   UNL     1     -15.506  -0.384  13.758  1.00  0.00     0.205 CG0
ATOM     43  C   UNL     1     -15.515   0.964  13.040  1.00  0.00     0.056 C 
ATOM     44  G   UNL     1     -16.494  -0.428  14.941  1.00  0.00     0.000 G0
ENDBRANCH  41  42
ENDBRANCH  39  41
ENDBRANCH  35  39
ENDBRANCH  33  35
ENDBRANCH  23  31
ENDBRANCH  21  23
ENDBRANCH  19  21
ENDBRANCH  14  19
ENDBRANCH   7  14
ENDBRANCH   2   5
BRANCH   3  45
ATOM     45  C   UNL     1      -3.714  -7.845   5.308  1.00  0.00     0.171 C 
BRANCH  45  46
ATOM     46  N   UNL     1      -2.263  -7.975   5.272  1.00  0.00    -0.342 N 
ATOM     47  C   UNL     1      -1.631  -9.190   5.351  1.00  0.00     0.247 C 
ATOM     48  O   UNL     1      -2.240 -10.260   5.383  1.00  0.00    -0.273 OA
ATOM     49  H   UNL     1      -1.721  -7.117   5.189  1.00  0.00     0.164 HD
BRANCH  47  50
ATOM     50  C   UNL     1      -0.099  -9.122   5.425  1.00  0.00     0.212 CG0
ATOM     51  G   UNL     1       0.454 -10.467   4.912  1.00  0.00     0.000 G0
BRANCH  50  52
ATOM     52  N   UNL     1       0.281  -7.986   4.590  1.00  0.00    -0.339 N 
ATOM     53  C   UNL     1       1.085  -8.097   3.481  1.00  0.00     0.243 C 
ATOM     54  O   UNL     1       1.592  -9.161   3.136  1.00  0.00    -0.273 OA
ATOM     55  H   UNL     1      -0.017  -7.059   4.888  1.00  0.00     0.164 HD
BRANCH  53  56
ATOM     56  C   UNL     1       1.419  -6.750   2.810  1.00  0.00     0.182 C 
BRANCH  56  57
ATOM     57  N   UNL     1       0.206  -5.957   2.589  1.00  0.00    -0.344 N 
ATOM     58  C   UNL     1       0.116  -4.634   2.946  1.00  0.00     0.220 C 
ATOM     59  O   UNL     1       1.013  -4.044   3.539  1.00  0.00    -0.275 OA
ATOM     60  H   UNL     1      -0.519  -6.375   2.012  1.00  0.00     0.164 HD
BRANCH  58  61
ATOM     61  C   UNL     1      -1.209  -3.998   2.570  1.00  0.00     0.100 C 
BRANCH  61  62
ATOM     62  C   UNL     1      -1.818  -3.139   3.679  1.00  0.00     0.010 C 
BRANCH  62  63
ATOM     63  C   UNL     1      -1.787  -1.632   3.394  1.00  0.00     0.000 C 
BRANCH  63  64
ATOM     64  C   UNL     1      -0.754  -0.860   4.214  1.00  0.00    -0.003 C 
ATOM     65  C   UNL     1      -0.486  -1.539   5.550  1.00  0.00     0.004 C 
ENDBRANCH  63  64
ENDBRANCH  62  63
ENDBRANCH  61  62
ENDBRANCH  58  61
ENDBRANCH  56  57
BRANCH  56  66
ATOM     66  C   UNL     1       2.221  -6.948   1.525  1.00  0.00     0.157 C 
BRANCH  66  67
ATOM     67  C   UNL     1       1.385  -6.656   0.312  1.00  0.00     0.305 C 
ATOM     68  O   UNL     1       0.560  -7.394  -0.205  1.00  0.00    -0.252 OA
BRANCH  67  69
ATOM     69  O   UNL     1       1.593  -5.414  -0.166  1.00  0.00    -0.481 OA
ATOM     70  H   UNL     1       0.901  -4.864   0.257  1.00  0.00     0.296 HD
ENDBRANCH  67  69
ENDBRANCH  66  67
ENDBRANCH  56  66
ENDBRANCH  53  56
ENDBRANCH  50  52
ENDBRANCH  47  50
ENDBRANCH  45  46
BRANCH  45  71
ATOM     71  C   UNL     1      -4.297  -7.628   3.907  1.00  0.00     0.037 C 
BRANCH  71  72
ATOM     72  C   UNL     1      -3.205  -7.523   2.839  1.00  0.00     0.026 C 
BRANCH  72  73
ATOM     73  C   UNL     1      -3.397  -8.562   1.737  1.00  0.00     0.146 C 
BRANCH  73  74
ATOM     74  N   UNL     1      -2.092  -8.826   1.139  1.00  0.00    -0.254 NA
ATOM     75  C   UNL     1      -1.484  -9.903   1.479  1.00  0.00     0.185 C 
ATOM     76  N   UNL     1      -0.282 -10.174   0.945  1.00  0.00    -0.370 N 
ATOM     77  N   UNL     1      -1.879 -10.862   2.334  1.00  0.00    -0.370 N 
ATOM     78  H   UNL     1       0.093  -9.498   0.295  1.00  0.00     0.159 HD
ATOM     79  H   UNL     1       0.313 -10.916   1.269  1.00  0.00     0.159 HD
ATOM     80  H   UNL     1      -2.767 -10.793   2.809  1.00  0.00     0.159 HD
ATOM     81  H   UNL     1      -1.367 -11.723   2.435  1.00  0.00     0.159 HD
ENDBRANCH  73  74
ENDBRANCH  72  73
ENDBRANCH  71  72
ENDBRANCH  45  71
ENDBRANCH   3  45
TORSDOF 20
ENDMDL
MODEL 6
REMARK VINA RESULT:    -5.926      4.642     12.504
REMARK INTER + INTRA:         -25.075
REMARK INTER:                 -17.649
REMARK INTRA:                  -7.427
REMARK UNBOUND:                -8.064
REMARK SMILES CCCCCC(=O)N[C@H](CC(=O)O)C(=O)N[C@H]1C(=O)N[C@H](CCCN=C(N)N)C(=O)N[C@@H]2CC[C@H](O)N(C2=O)[C@@H](CC(C)C)C(=O)N(C)[C@@H](Cc2ccccc2)C(=O)N[C@H](C(C)C)C(=O)O[C@@H]1C
REMARK SMILES IDX 30 1 31 2 29 3 32 5 35 6 37 7 34 8 38 9 33 10 39 11 36 12
REMARK SMILES IDX 40 14 41 15 42 16 43 17 44 18 45 19 46 20 47 21 48 22 49 23
REMARK SMILES IDX 50 24 51 25 52 26 56 27 53 28 55 29 54 30 57 31 58 32 59 33
REMARK SMILES IDX 60 35 61 36 62 37 63 38 64 39 65 40 66 41 67 42 68 43 21 45
REMARK SMILES IDX 20 46 18 47 19 48 17 50 16 52 14 53 15 54 9 56 8 57 6 58
REMARK SMILES IDX 7 59 5 61 4 62 3 63 2 64 1 65 10 66 11 67 12 68 13 69 22 71
REMARK SMILES IDX 23 72 24 73 25 74 26 75 27 76 28 77
REMARK H PARENT 31 4 36 13 59 34 20 49 16 55 8 60 13 70 27 78 27 79 28 80
REMARK H PARENT 28 81
REMARK Flexibility Score:  259.900
ROOT
ATOM      1  O   UNL     1       1.811  -0.338  -0.724  1.00  0.00    -0.273 OA
ATOM      2  N   UNL     1       1.337  -0.216   1.510  1.00  0.00    -0.343 N 
ATOM      3  C   UNL     1       2.021   0.171   0.378  1.00  0.00     0.243 C 
ATOM      4  H   UNL     1       1.526   0.234   2.397  1.00  0.00     0.164 HD
ENDROOT
BRANCH   2   5
ATOM      5  C   UNL     1       0.409  -1.341   1.469  1.00  0.00     0.171 C 
ATOM      6  C   UNL     1      -0.681  -3.066   3.529  1.00  0.00     0.214 C 
ATOM      7  N   UNL     1       0.539  -3.446   2.855  1.00  0.00    -0.303 N 
ATOM      8  C   UNL     1      -1.616  -2.240   2.660  1.00  0.00     0.057 C 
ATOM      9  C   UNL     1       1.140  -2.645   1.898  1.00  0.00     0.247 C 
ATOM     10  C   UNL     1      -0.901  -0.997   2.176  1.00  0.00     0.040 C 
ATOM     11  O   UNL     1       2.230  -2.937   1.388  1.00  0.00    -0.272 OA
BRANCH   6  12
ATOM     12  O   UNL     1      -0.326  -2.349   4.689  1.00  0.00    -0.373 OA
ATOM     13  H   UNL     1       0.617  -2.096   4.593  1.00  0.00     0.213 HD
ENDBRANCH   6  12
BRANCH   7  14
ATOM     14  C   UNL     1       1.214  -4.672   3.332  1.00  0.00     0.177 C 
BRANCH  14  15
ATOM     15  C   UNL     1       1.737  -4.611   4.781  1.00  0.00     0.038 C 
BRANCH  15  16
ATOM     16  C   UNL     1       3.174  -5.085   5.091  1.00  0.00    -0.015 C 
ATOM     17  C   UNL     1       3.376  -5.406   6.575  1.00  0.00     0.007 C 
ATOM     18  C   UNL     1       4.177  -3.993   4.695  1.00  0.00     0.007 C 
ENDBRANCH  15  16
ENDBRANCH  14  15
BRANCH  14  19
ATOM     19  C   UNL     1       0.595  -5.937   2.644  1.00  0.00     0.245 C 
ATOM     20  O   UNL     1       1.326  -6.560   1.856  1.00  0.00    -0.272 OA
BRANCH  19  21
ATOM     21  N   UNL     1      -0.728  -6.318   2.779  1.00  0.00    -0.332 N 
ATOM     22  C   UNL     1      -1.803  -5.972   1.866  1.00  0.00     0.147 C 
BRANCH  21  23
ATOM     23  C   UNL     1      -1.097  -7.145   3.961  1.00  0.00     0.178 C 
BRANCH  23  24
ATOM     24  C   UNL     1      -2.226  -6.558   4.833  1.00  0.00     0.070 C 
BRANCH  24  25
ATOM     25  C   UNL     1      -1.823  -5.593   5.923  1.00  0.00    -0.045 A 
ATOM     26  C   UNL     1      -0.649  -5.793   6.661  1.00  0.00     0.004 A 
ATOM     27  C   UNL     1      -2.626  -4.480   6.216  1.00  0.00     0.004 A 
ATOM     28  C   UNL     1      -0.292  -4.905   7.678  1.00  0.00     0.000 A 
ATOM     29  C   UNL     1      -2.268  -3.593   7.232  1.00  0.00     0.000 A 
ATOM     30  C   UNL     1      -1.102  -3.809   7.965  1.00  0.00     0.000 A 
ENDBRANCH  24  25
ENDBRANCH  23  24
BRANCH  23  31
ATOM     31  C   UNL     1      -1.248  -8.648   3.624  1.00  0.00     0.243 C 
ATOM     32  O   UNL     1      -0.329  -9.358   3.226  1.00  0.00    -0.273 OA
ATOM     33  N   UNL     1      -2.561  -9.086   3.632  1.00  0.00    -0.341 N 
ATOM     34  H   UNL     1      -3.285  -8.446   3.968  1.00  0.00     0.164 HD
BRANCH  33  35
ATOM     35  C   UNL     1      -2.954 -10.440   3.229  1.00  0.00     0.194 C 
BRANCH  35  36
ATOM     36  C   UNL     1      -4.318 -10.511   2.486  1.00  0.00     0.017 C 
ATOM     37  C   UNL     1      -4.123 -10.741   0.978  1.00  0.00     0.010 C 
ATOM     38  C   UNL     1      -5.162  -9.241   2.651  1.00  0.00     0.010 C 
ENDBRANCH  35  36
BRANCH  35  39
ATOM     39  C   UNL     1      -2.877 -11.458   4.400  1.00  0.00     0.329 C 
ATOM     40  O   UNL     1      -1.887 -12.132   4.660  1.00  0.00    -0.250 OA
BRANCH  39  41
ATOM     41  O   UNL     1      -4.010 -11.457   5.165  1.00  0.00    -0.458 OA
BRANCH  41  42
ATOM     42  C   UNL     1      -4.437 -12.741   5.680  1.00  0.00     0.205 CG0
ATOM     43  C   UNL     1      -5.104 -13.493   4.529  1.00  0.00     0.056 C 
ATOM     44  G   UNL     1      -5.397 -12.502   6.862  1.00  0.00     0.000 G0
ENDBRANCH  41  42
ENDBRANCH  39  41
ENDBRANCH  35  39
ENDBRANCH  33  35
ENDBRANCH  23  31
ENDBRANCH  21  23
ENDBRANCH  19  21
ENDBRANCH  14  19
ENDBRANCH   7  14
ENDBRANCH   2   5
BRANCH   3  45
ATOM     45  C   UNL     1       3.047   1.293   0.582  1.00  0.00     0.171 C 
BRANCH  45  46
ATOM     46  N   UNL     1       3.372   1.777  -0.753  1.00  0.00    -0.342 N 
ATOM     47  C   UNL     1       2.876   2.955  -1.251  1.00  0.00     0.247 C 
ATOM     48  O   UNL     1       2.181   3.723  -0.583  1.00  0.00    -0.273 OA
ATOM     49  H   UNL     1       3.990   1.199  -1.320  1.00  0.00     0.164 HD
BRANCH  47  50
ATOM     50  C   UNL     1       3.225   3.240  -2.719  1.00  0.00     0.212 CG0
ATOM     51  G   UNL     1       2.684   4.641  -3.065  1.00  0.00     0.000 G0
BRANCH  50  52
ATOM     52  N   UNL     1       4.680   3.148  -2.797  1.00  0.00    -0.339 N 
ATOM     53  C   UNL     1       5.504   4.245  -2.867  1.00  0.00     0.243 C 
ATOM     54  O   UNL     1       5.074   5.394  -2.922  1.00  0.00    -0.273 OA
ATOM     55  H   UNL     1       5.092   2.220  -2.868  1.00  0.00     0.164 HD
BRANCH  53  56
ATOM     56  C   UNL     1       6.998   3.899  -3.031  1.00  0.00     0.182 C 
BRANCH  56  57
ATOM     57  N   UNL     1       7.376   2.777  -2.164  1.00  0.00    -0.344 N 
ATOM     58  C   UNL     1       8.100   1.704  -2.624  1.00  0.00     0.220 C 
ATOM     59  O   UNL     1       8.416   1.572  -3.801  1.00  0.00    -0.275 OA
ATOM     60  H   UNL     1       7.223   2.895  -1.166  1.00  0.00     0.164 HD
BRANCH  58  61
ATOM     61  C   UNL     1       8.428   0.692  -1.542  1.00  0.00     0.100 C 
BRANCH  61  62
ATOM     62  C   UNL     1       7.674  -0.630  -1.686  1.00  0.00     0.010 C 
BRANCH  62  63
ATOM     63  C   UNL     1       8.382  -1.663  -2.573  1.00  0.00     0.000 C 
BRANCH  63  64
ATOM     64  C   UNL     1       7.499  -2.257  -3.669  1.00  0.00    -0.003 C 
ATOM     65  C   UNL     1       6.393  -1.294  -4.075  1.00  0.00     0.004 C 
ENDBRANCH  63  64
ENDBRANCH  62  63
ENDBRANCH  61  62
ENDBRANCH  58  61
ENDBRANCH  56  57
BRANCH  56  66
ATOM     66  C   UNL     1       7.885   5.123  -2.809  1.00  0.00     0.157 C 
BRANCH  66  67
ATOM     67  C   UNL     1       8.618   5.034  -1.502  1.00  0.00     0.305 C 
ATOM     68  O   UNL     1       9.745   4.599  -1.322  1.00  0.00    -0.252 OA
BRANCH  67  69
ATOM     69  O   UNL     1       7.908   5.551  -0.481  1.00  0.00    -0.481 OA
ATOM     70  H   UNL     1       8.174   6.494  -0.443  1.00  0.00     0.296 HD
ENDBRANCH  67  69
ENDBRANCH  66  67
ENDBRANCH  56  66
ENDBRANCH  53  56
ENDBRANCH  50  52
ENDBRANCH  47  50
ENDBRANCH  45  46
BRANCH  45  71
ATOM     71  C   UNL     1       4.287   0.758   1.307  1.00  0.00     0.037 C 
BRANCH  71  72
ATOM     72  C   UNL     1       5.586   1.295   0.699  1.00  0.00     0.026 C 
BRANCH  72  73
ATOM     73  C   UNL     1       6.115   2.496   1.479  1.00  0.00     0.146 C 
BRANCH  73  74
ATOM     74  N   UNL     1       5.951   3.680   0.641  1.00  0.00    -0.254 NA
ATOM     75  C   UNL     1       5.021   4.507   0.948  1.00  0.00     0.185 C 
ATOM     76  N   UNL     1       4.846   5.607   0.197  1.00  0.00    -0.370 N 
ATOM     77  N   UNL     1       4.139   4.450   1.962  1.00  0.00    -0.370 N 
ATOM     78  H   UNL     1       5.464   5.724  -0.593  1.00  0.00     0.159 HD
ATOM     79  H   UNL     1       4.055   6.219   0.287  1.00  0.00     0.159 HD
ATOM     80  H   UNL     1       4.155   3.679   2.613  1.00  0.00     0.159 HD
ATOM     81  H   UNL     1       3.526   5.219   2.173  1.00  0.00     0.159 HD
ENDBRANCH  73  74
ENDBRANCH  72  73
ENDBRANCH  71  72
ENDBRANCH  45  71
ENDBRANCH   3  45
TORSDOF 20
ENDMDL
MODEL 7
REMARK VINA RESULT:    -5.900      8.246     11.834
REMARK INTER + INTRA:         -25.000
REMARK INTER:                 -17.476
REMARK INTRA:                  -7.525
REMARK UNBOUND:                -8.064
REMARK SMILES CCCCCC(=O)N[C@H](CC(=O)O)C(=O)N[C@H]1C(=O)N[C@H](CCCN=C(N)N)C(=O)N[C@@H]2CC[C@H](O)N(C2=O)[C@@H](CC(C)C)C(=O)N(C)[C@@H](Cc2ccccc2)C(=O)N[C@H](C(C)C)C(=O)O[C@@H]1C
REMARK SMILES IDX 30 1 31 2 29 3 32 5 35 6 37 7 34 8 38 9 33 10 39 11 36 12
REMARK SMILES IDX 40 14 41 15 42 16 43 17 44 18 45 19 46 20 47 21 48 22 49 23
REMARK SMILES IDX 50 24 51 25 52 26 56 27 53 28 55 29 54 30 57 31 58 32 59 33
REMARK SMILES IDX 60 35 61 36 62 37 63 38 64 39 65 40 66 41 67 42 68 43 21 45
REMARK SMILES IDX 20 46 18 47 19 48 17 50 16 52 14 53 15 54 9 56 8 57 6 58
REMARK SMILES IDX 7 59 5 61 4 62 3 63 2 64 1 65 10 66 11 67 12 68 13 69 22 71
REMARK SMILES IDX 23 72 24 73 25 74 26 75 27 76 28 77
REMARK H PARENT 31 4 36 13 59 34 20 49 16 55 8 60 13 70 27 78 27 79 28 80
REMARK H PARENT 28 81
REMARK Flexibility Score:  259.900
ROOT
ATOM      1  O   UNL     1      -3.283  -5.814   5.744  1.00  0.00    -0.273 OA
ATOM      2  N   UNL     1      -4.977  -6.738   6.971  1.00  0.00    -0.343 N 
ATOM      3  C   UNL     1      -4.024  -6.769   5.976  1.00  0.00     0.243 C 
ATOM      4  H   UNL     1      -5.560  -7.548   7.143  1.00  0.00     0.164 HD
ENDROOT
BRANCH   2   5
ATOM      5  C   UNL     1      -5.227  -5.512   7.721  1.00  0.00     0.171 C 
ATOM      6  C   UNL     1      -6.399  -5.006  10.324  1.00  0.00     0.214 C 
ATOM      7  N   UNL     1      -7.245  -5.014   9.153  1.00  0.00    -0.303 N 
ATOM      8  C   UNL     1      -4.975  -4.559  10.035  1.00  0.00     0.057 C 
ATOM      9  C   UNL     1      -6.759  -5.298   7.888  1.00  0.00     0.247 C 
ATOM     10  C   UNL     1      -4.362  -5.453   8.979  1.00  0.00     0.040 C 
ATOM     11  O   UNL     1      -7.504  -5.388   6.903  1.00  0.00    -0.272 OA
BRANCH   6  12
ATOM     12  O   UNL     1      -6.407  -6.306  10.868  1.00  0.00    -0.373 OA
ATOM     13  H   UNL     1      -7.338  -6.520  11.088  1.00  0.00     0.213 HD
ENDBRANCH   6  12
BRANCH   7  14
ATOM     14  C   UNL     1      -8.697  -4.848   9.374  1.00  0.00     0.177 C 
BRANCH  14  15
ATOM     15  C   UNL     1      -9.465  -6.146   9.692  1.00  0.00     0.038 C 
BRANCH  15  16
ATOM     16  C   UNL     1     -10.772  -6.462   8.933  1.00  0.00    -0.015 C 
ATOM     17  C   UNL     1     -11.097  -5.412   7.866  1.00  0.00     0.007 C 
ATOM     18  C   UNL     1     -11.945  -6.523   9.920  1.00  0.00     0.007 C 
ENDBRANCH  15  16
ENDBRANCH  14  15
BRANCH  14  19
ATOM     19  C   UNL     1      -8.995  -3.442   9.999  1.00  0.00     0.245 C 
ATOM     20  O   UNL     1      -8.500  -2.458   9.425  1.00  0.00    -0.272 OA
BRANCH  19  21
ATOM     21  N   UNL     1      -9.670  -3.255  11.193  1.00  0.00    -0.332 N 
ATOM     22  C   UNL     1      -9.494  -4.052  12.394  1.00  0.00     0.147 C 
BRANCH  21  23
ATOM     23  C   UNL     1     -10.672  -2.156  11.262  1.00  0.00     0.178 C 
BRANCH  23  24
ATOM     24  C   UNL     1     -12.115  -2.615  11.558  1.00  0.00     0.070 C 
BRANCH  24  25
ATOM     25  C   UNL     1     -13.052  -2.742  10.380  1.00  0.00    -0.045 A 
ATOM     26  C   UNL     1     -14.088  -3.685  10.385  1.00  0.00     0.004 A 
ATOM     27  C   UNL     1     -12.894  -1.916   9.257  1.00  0.00     0.004 A 
ATOM     28  C   UNL     1     -14.940  -3.807   9.286  1.00  0.00     0.000 A 
ATOM     29  C   UNL     1     -13.747  -2.038   8.159  1.00  0.00     0.000 A 
ATOM     30  C   UNL     1     -14.768  -2.986   8.173  1.00  0.00     0.000 A 
ENDBRANCH  24  25
ENDBRANCH  23  24
BRANCH  23  31
ATOM     31  C   UNL     1     -10.188  -0.949  12.099  1.00  0.00     0.243 C 
ATOM     32  O   UNL     1      -9.150  -0.330  11.876  1.00  0.00    -0.273 OA
ATOM     33  N   UNL     1     -10.934  -0.736  13.246  1.00  0.00    -0.341 N 
ATOM     34  H   UNL     1     -11.786  -1.287  13.380  1.00  0.00     0.164 HD
BRANCH  33  35
ATOM     35  C   UNL     1     -10.588   0.275  14.248  1.00  0.00     0.194 C 
BRANCH  35  36
ATOM     36  C   UNL     1      -9.971  -0.308  15.551  1.00  0.00     0.017 C 
ATOM     37  C   UNL     1      -8.521   0.170  15.746  1.00  0.00     0.010 C 
ATOM     38  C   UNL     1      -9.956  -1.841  15.579  1.00  0.00     0.010 C 
ENDBRANCH  35  36
BRANCH  35  39
ATOM     39  C   UNL     1     -11.763   1.248  14.547  1.00  0.00     0.329 C 
ATOM     40  O   UNL     1     -12.945   0.957  14.412  1.00  0.00    -0.250 OA
BRANCH  39  41
ATOM     41  O   UNL     1     -11.333   2.439  15.062  1.00  0.00    -0.458 OA
BRANCH  41  42
ATOM     42  C   UNL     1     -11.698   2.713  16.436  1.00  0.00     0.205 CG0
ATOM     43  C   UNL     1     -12.862   3.701  16.409  1.00  0.00     0.056 C 
ATOM     44  G   UNL     1     -10.464   3.275  17.170  1.00  0.00     0.000 G0
ENDBRANCH  41  42
ENDBRANCH  39  41
ENDBRANCH  35  39
ENDBRANCH  33  35
ENDBRANCH  23  31
ENDBRANCH  21  23
ENDBRANCH  19  21
ENDBRANCH  14  19
ENDBRANCH   7  14
ENDBRANCH   2   5
BRANCH   3  45
ATOM     45  C   UNL     1      -3.938  -8.085   5.190  1.00  0.00     0.171 C 
BRANCH  45  46
ATOM     46  N   UNL     1      -2.523  -8.433   5.160  1.00  0.00    -0.342 N 
ATOM     47  C   UNL     1      -2.060  -9.667   5.541  1.00  0.00     0.247 C 
ATOM     48  O   UNL     1      -2.808 -10.590   5.865  1.00  0.00    -0.273 OA
ATOM     49  H   UNL     1      -1.874  -7.715   4.843  1.00  0.00     0.164 HD
BRANCH  47  50
ATOM     50  C   UNL     1      -0.532  -9.810   5.561  1.00  0.00     0.212 CG0
ATOM     51  G   UNL     1      -0.147 -10.867   4.507  1.00  0.00     0.000 G0
BRANCH  50  52
ATOM     52  N   UNL     1      -0.012  -8.479   5.261  1.00  0.00    -0.339 N 
ATOM     53  C   UNL     1       1.021  -8.251   4.384  1.00  0.00     0.243 C 
ATOM     54  O   UNL     1       1.625  -9.161   3.822  1.00  0.00    -0.273 OA
ATOM     55  H   UNL     1      -0.398  -7.692   5.779  1.00  0.00     0.164 HD
BRANCH  53  56
ATOM     56  C   UNL     1       1.454  -6.774   4.294  1.00  0.00     0.182 C 
BRANCH  56  57
ATOM     57  N   UNL     1       1.086  -6.043   5.511  1.00  0.00    -0.344 N 
ATOM     58  C   UNL     1       2.023  -5.492   6.351  1.00  0.00     0.220 C 
ATOM     59  O   UNL     1       3.229  -5.635   6.183  1.00  0.00    -0.275 OA
ATOM     60  H   UNL     1       0.102  -5.815   5.631  1.00  0.00     0.164 HD
BRANCH  58  61
ATOM     61  C   UNL     1       1.415  -4.732   7.515  1.00  0.00     0.100 C 
BRANCH  61  62
ATOM     62  C   UNL     1      -0.081  -4.460   7.359  1.00  0.00     0.010 C 
BRANCH  62  63
ATOM     63  C   UNL     1      -0.829  -4.286   8.687  1.00  0.00     0.000 C 
BRANCH  63  64
ATOM     64  C   UNL     1      -1.547  -2.945   8.831  1.00  0.00    -0.003 C 
ATOM     65  C   UNL     1      -0.965  -1.900   7.890  1.00  0.00     0.004 C 
ENDBRANCH  63  64
ENDBRANCH  62  63
ENDBRANCH  61  62
ENDBRANCH  58  61
ENDBRANCH  56  57
BRANCH  56  66
ATOM     66  C   UNL     1       0.908  -6.106   3.033  1.00  0.00     0.157 C 
BRANCH  66  67
ATOM     67  C   UNL     1      -0.426  -5.466   3.290  1.00  0.00     0.305 C 
ATOM     68  O   UNL     1      -0.647  -4.275   3.453  1.00  0.00    -0.252 OA
BRANCH  67  69
ATOM     69  O   UNL     1      -1.433  -6.359   3.278  1.00  0.00    -0.481 OA
ATOM     70  H   UNL     1      -1.172  -7.022   2.605  1.00  0.00     0.296 HD
ENDBRANCH  67  69
ENDBRANCH  66  67
ENDBRANCH  56  66
ENDBRANCH  53  56
ENDBRANCH  50  52
ENDBRANCH  47  50
ENDBRANCH  45  46
BRANCH  45  71
ATOM     71  C   UNL     1      -4.506  -7.902   3.779  1.00  0.00     0.037 C 
BRANCH  71  72
ATOM     72  C   UNL     1      -5.129  -9.191   3.238  1.00  0.00     0.026 C 
BRANCH  72  73
ATOM     73  C   UNL     1      -4.121 -10.005   2.429  1.00  0.00     0.146 C 
BRANCH  73  74
ATOM     74  N   UNL     1      -3.007  -9.126   2.090  1.00  0.00    -0.254 NA
ATOM     75  C   UNL     1      -1.856  -9.660   1.909  1.00  0.00     0.185 C 
ATOM     76  N   UNL     1      -0.811  -8.877   1.595  1.00  0.00    -0.370 N 
ATOM     77  N   UNL     1      -1.504 -10.955   1.987  1.00  0.00    -0.370 N 
ATOM     78  H   UNL     1      -0.987  -7.885   1.523  1.00  0.00     0.159 HD
ATOM     79  H   UNL     1       0.140  -9.202   1.582  1.00  0.00     0.159 HD
ATOM     80  H   UNL     1      -2.189 -11.661   2.212  1.00  0.00     0.159 HD
ATOM     81  H   UNL     1      -0.589 -11.272   1.710  1.00  0.00     0.159 HD
ENDBRANCH  73  74
ENDBRANCH  72  73
ENDBRANCH  71  72
ENDBRANCH  45  71
ENDBRANCH   3  45
TORSDOF 20
ENDMDL
MODEL 8
REMARK VINA RESULT:    -5.899      2.816      6.367
REMARK INTER + INTRA:         -24.999
REMARK INTER:                 -18.121
REMARK INTRA:                  -6.878
REMARK UNBOUND:                -8.064
REMARK SMILES CCCCCC(=O)N[C@H](CC(=O)O)C(=O)N[C@H]1C(=O)N[C@H](CCCN=C(N)N)C(=O)N[C@@H]2CC[C@H](O)N(C2=O)[C@@H](CC(C)C)C(=O)N(C)[C@@H](Cc2ccccc2)C(=O)N[C@H](C(C)C)C(=O)O[C@@H]1C
REMARK SMILES IDX 30 1 31 2 29 3 32 5 35 6 37 7 34 8 38 9 33 10 39 11 36 12
REMARK SMILES IDX 40 14 41 15 42 16 43 17 44 18 45 19 46 20 47 21 48 22 49 23
REMARK SMILES IDX 50 24 51 25 52 26 56 27 53 28 55 29 54 30 57 31 58 32 59 33
REMARK SMILES IDX 60 35 61 36 62 37 63 38 64 39 65 40 66 41 67 42 68 43 21 45
REMARK SMILES IDX 20 46 18 47 19 48 17 50 16 52 14 53 15 54 9 56 8 57 6 58
REMARK SMILES IDX 7 59 5 61 4 62 3 63 2 64 1 65 10 66 11 67 12 68 13 69 22 71
REMARK SMILES IDX 23 72 24 73 25 74 26 75 27 76 28 77
REMARK H PARENT 31 4 36 13 59 34 20 49 16 55 8 60 13 70 27 78 27 79 28 80
REMARK H PARENT 28 81
REMARK Flexibility Score:  259.900
ROOT
ATOM      1  O   UNL     1       1.444  -6.524   2.756  1.00  0.00    -0.273 OA
ATOM      2  N   UNL     1       0.365  -4.998   1.436  1.00  0.00    -0.343 N 
ATOM      3  C   UNL     1       0.996  -6.205   1.654  1.00  0.00     0.243 C 
ATOM      4  H   UNL     1      -0.004  -4.776   0.520  1.00  0.00     0.164 HD
ENDROOT
BRANCH   2   5
ATOM      5  C   UNL     1       0.308  -3.990   2.488  1.00  0.00     0.171 C 
ATOM      6  C   UNL     1      -0.744  -1.290   2.566  1.00  0.00     0.214 C 
ATOM      7  N   UNL     1       0.637  -1.503   2.203  1.00  0.00    -0.303 N 
ATOM      8  C   UNL     1      -1.285  -2.341   3.521  1.00  0.00     0.057 C 
ATOM      9  C   UNL     1       1.190  -2.769   2.097  1.00  0.00     0.247 C 
ATOM     10  C   UNL     1      -1.135  -3.716   2.908  1.00  0.00     0.040 C 
ATOM     11  O   UNL     1       2.350  -2.948   1.702  1.00  0.00    -0.272 OA
BRANCH   6  12
ATOM     12  O   UNL     1      -1.502  -1.267   1.379  1.00  0.00    -0.373 OA
ATOM     13  H   UNL     1      -2.150  -0.535   1.465  1.00  0.00     0.213 HD
ENDBRANCH   6  12
BRANCH   7  14
ATOM     14  C   UNL     1       1.416  -0.313   1.800  1.00  0.00     0.177 C 
BRANCH  14  15
ATOM     15  C   UNL     1       2.055  -0.391   0.400  1.00  0.00     0.038 C 
BRANCH  15  16
ATOM     16  C   UNL     1       3.530   0.028   0.211  1.00  0.00    -0.015 C 
ATOM     17  C   UNL     1       4.248  -0.820  -0.842  1.00  0.00     0.007 C 
ATOM     18  C   UNL     1       4.283  -0.116   1.540  1.00  0.00     0.007 C 
ENDBRANCH  15  16
ENDBRANCH  14  15
BRANCH  14  19
ATOM     19  C   UNL     1       0.812   0.978   2.451  1.00  0.00     0.245 C 
ATOM     20  O   UNL     1      -0.096   1.549   1.824  1.00  0.00    -0.272 OA
BRANCH  19  21
ATOM     21  N   UNL     1       1.305   1.563   3.604  1.00  0.00    -0.332 N 
ATOM     22  C   UNL     1       2.555   2.293   3.711  1.00  0.00     0.147 C 
BRANCH  21  23
ATOM     23  C   UNL     1       0.500   1.431   4.850  1.00  0.00     0.178 C 
BRANCH  23  24
ATOM     24  C   UNL     1       0.772   0.148   5.661  1.00  0.00     0.070 C 
BRANCH  24  25
ATOM     25  C   UNL     1       2.205  -0.324   5.742  1.00  0.00    -0.045 A 
ATOM     26  C   UNL     1       3.118   0.298   6.604  1.00  0.00     0.004 A 
ATOM     27  C   UNL     1       2.644  -1.394   4.948  1.00  0.00     0.004 A 
ATOM     28  C   UNL     1       4.445  -0.133   6.660  1.00  0.00     0.000 A 
ATOM     29  C   UNL     1       3.970  -1.825   5.006  1.00  0.00     0.000 A 
ATOM     30  C   UNL     1       4.871  -1.192   5.860  1.00  0.00     0.000 A 
ENDBRANCH  24  25
ENDBRANCH  23  24
BRANCH  23  31
ATOM     31  C   UNL     1       0.460   2.733   5.685  1.00  0.00     0.243 C 
ATOM     32  O   UNL     1       0.850   2.816   6.847  1.00  0.00    -0.273 OA
ATOM     33  N   UNL     1      -0.228   3.764   5.069  1.00  0.00    -0.341 N 
ATOM     34  H   UNL     1      -0.534   3.634   4.101  1.00  0.00     0.164 HD
BRANCH  33  35
ATOM     35  C   UNL     1      -0.494   5.049   5.721  1.00  0.00     0.194 C 
BRANCH  35  36
ATOM     36  C   UNL     1      -2.005   5.379   5.883  1.00  0.00     0.017 C 
ATOM     37  C   UNL     1      -2.400   5.478   7.367  1.00  0.00     0.010 C 
ATOM     38  C   UNL     1      -2.923   4.338   5.232  1.00  0.00     0.010 C 
ENDBRANCH  35  36
BRANCH  35  39
ATOM     39  C   UNL     1       0.290   6.223   5.071  1.00  0.00     0.329 C 
ATOM     40  O   UNL     1       1.330   6.087   4.438  1.00  0.00    -0.250 OA
BRANCH  39  41
ATOM     41  O   UNL     1      -0.357   7.420   5.209  1.00  0.00    -0.458 OA
BRANCH  41  42
ATOM     42  C   UNL     1       0.370   8.467   5.895  1.00  0.00     0.205 CG0
ATOM     43  C   UNL     1      -0.004   8.384   7.374  1.00  0.00     0.056 C 
ATOM     44  G   UNL     1      -0.008   9.822   5.266  1.00  0.00     0.000 G0
ENDBRANCH  41  42
ENDBRANCH  39  41
ENDBRANCH  35  39
ENDBRANCH  33  35
ENDBRANCH  23  31
ENDBRANCH  21  23
ENDBRANCH  19  21
ENDBRANCH  14  19
ENDBRANCH   7  14
ENDBRANCH   2   5
BRANCH   3  45
ATOM     45  C   UNL     1       1.082  -7.131   0.434  1.00  0.00     0.171 C 
BRANCH  45  46
ATOM     46  N   UNL     1       0.290  -8.306   0.774  1.00  0.00    -0.342 N 
ATOM     47  C   UNL     1      -1.009  -8.462   0.362  1.00  0.00     0.247 C 
ATOM     48  O   UNL     1      -1.575  -7.662  -0.383  1.00  0.00    -0.273 OA
ATOM     49  H   UNL     1       0.740  -9.021   1.343  1.00  0.00     0.164 HD
BRANCH  47  50
ATOM     50  C   UNL     1      -1.723  -9.702   0.920  1.00  0.00     0.212 CG0
ATOM     51  G   UNL     1      -1.044 -10.945   0.314  1.00  0.00     0.000 G0
BRANCH  50  52
ATOM     52  N   UNL     1      -1.577  -9.615   2.371  1.00  0.00    -0.339 N 
ATOM     53  C   UNL     1      -2.482  -8.977   3.185  1.00  0.00     0.243 C 
ATOM     54  O   UNL     1      -3.463  -8.382   2.746  1.00  0.00    -0.273 OA
ATOM     55  H   UNL     1      -0.727  -9.993   2.784  1.00  0.00     0.164 HD
BRANCH  53  56
ATOM     56  C   UNL     1      -2.073  -8.940   4.671  1.00  0.00     0.182 C 
BRANCH  56  57
ATOM     57  N   UNL     1      -1.473  -7.648   5.020  1.00  0.00    -0.344 N 
ATOM     58  C   UNL     1      -2.217  -6.597   5.497  1.00  0.00     0.220 C 
ATOM     59  O   UNL     1      -3.439  -6.639   5.596  1.00  0.00    -0.275 OA
ATOM     60  H   UNL     1      -0.458  -7.605   5.049  1.00  0.00     0.164 HD
BRANCH  58  61
ATOM     61  C   UNL     1      -1.382  -5.379   5.848  1.00  0.00     0.100 C 
BRANCH  61  62
ATOM     62  C   UNL     1       0.118  -5.663   5.924  1.00  0.00     0.010 C 
BRANCH  62  63
ATOM     63  C   UNL     1       0.986  -4.408   6.087  1.00  0.00     0.000 C 
BRANCH  63  64
ATOM     64  C   UNL     1       2.213  -4.607   6.976  1.00  0.00    -0.003 C 
ATOM     65  C   UNL     1       3.314  -5.360   6.243  1.00  0.00     0.004 C 
ENDBRANCH  63  64
ENDBRANCH  62  63
ENDBRANCH  61  62
ENDBRANCH  58  61
ENDBRANCH  56  57
BRANCH  56  66
ATOM     66  C   UNL     1      -1.163 -10.114   5.030  1.00  0.00     0.157 C 
BRANCH  66  67
ATOM     67  C   UNL     1      -0.533  -9.920   6.380  1.00  0.00     0.305 C 
ATOM     68  O   UNL     1       0.383  -9.162   6.659  1.00  0.00    -0.252 OA
BRANCH  67  69
ATOM     69  O   UNL     1      -1.129 -10.661   7.333  1.00  0.00    -0.481 OA
ATOM     70  H   UNL     1      -0.405 -10.908   7.947  1.00  0.00     0.296 HD
ENDBRANCH  67  69
ENDBRANCH  66  67
ENDBRANCH  56  66
ENDBRANCH  53  56
ENDBRANCH  50  52
ENDBRANCH  47  50
ENDBRANCH  45  46
BRANCH  45  71
ATOM     71  C   UNL     1       2.542  -7.497   0.143  1.00  0.00     0.037 C 
BRANCH  71  72
ATOM     72  C   UNL     1       2.805  -8.995   0.319  1.00  0.00     0.026 C 
BRANCH  72  73
ATOM     73  C   UNL     1       3.024  -9.687  -1.024  1.00  0.00     0.146 C 
BRANCH  73  74
ATOM     74  N   UNL     1       1.739  -9.743  -1.713  1.00  0.00    -0.254 NA
ATOM     75  C   UNL     1       1.124 -10.867  -1.744  1.00  0.00     0.185 C 
ATOM     76  N   UNL     1      -0.062 -10.950  -2.369  1.00  0.00    -0.370 N 
ATOM     77  N   UNL     1       1.496 -12.048  -1.220  1.00  0.00    -0.370 N 
ATOM     78  H   UNL     1      -0.412 -10.106  -2.799  1.00  0.00     0.159 HD
ATOM     79  H   UNL     1      -0.528 -11.819  -2.559  1.00  0.00     0.159 HD
ATOM     80  H   UNL     1       2.366 -12.136  -0.716  1.00  0.00     0.159 HD
ATOM     81  H   UNL     1       0.874 -12.840  -1.208  1.00  0.00     0.159 HD
ENDBRANCH  73  74
ENDBRANCH  72  73
ENDBRANCH  71  72
ENDBRANCH  45  71
ENDBRANCH   3  45
TORSDOF 20
ENDMDL
MODEL 9
REMARK VINA RESULT:    -5.871      2.661      6.067
REMARK INTER + INTRA:         -24.918
REMARK INTER:                 -18.074
REMARK INTRA:                  -6.843
REMARK UNBOUND:                -8.064
REMARK SMILES CCCCCC(=O)N[C@H](CC(=O)O)C(=O)N[C@H]1C(=O)N[C@H](CCCN=C(N)N)C(=O)N[C@@H]2CC[C@H](O)N(C2=O)[C@@H](CC(C)C)C(=O)N(C)[C@@H](Cc2ccccc2)C(=O)N[C@H](C(C)C)C(=O)O[C@@H]1C
REMARK SMILES IDX 30 1 31 2 29 3 32 5 35 6 37 7 34 8 38 9 33 10 39 11 36 12
REMARK SMILES IDX 40 14 41 15 42 16 43 17 44 18 45 19 46 20 47 21 48 22 49 23
REMARK SMILES IDX 50 24 51 25 52 26 56 27 53 28 55 29 54 30 57 31 58 32 59 33
REMARK SMILES IDX 60 35 61 36 62 37 63 38 64 39 65 40 66 41 67 42 68 43 21 45
REMARK SMILES IDX 20 46 18 47 19 48 17 50 16 52 14 53 15 54 9 56 8 57 6 58
REMARK SMILES IDX 7 59 5 61 4 62 3 63 2 64 1 65 10 66 11 67 12 68 13 69 22 71
REMARK SMILES IDX 23 72 24 73 25 74 26 75 27 76 28 77
REMARK H PARENT 31 4 36 13 59 34 20 49 16 55 8 60 13 70 27 78 27 79 28 80
REMARK H PARENT 28 81
REMARK Flexibility Score:  259.900
ROOT
ATOM      1  O   UNL     1      -0.312  -7.100   2.720  1.00  0.00    -0.273 OA
ATOM      2  N   UNL     1       0.395  -5.298   1.501  1.00  0.00    -0.343 N 
ATOM      3  C   UNL     1       0.164  -6.646   1.679  1.00  0.00     0.243 C 
ATOM      4  H   UNL     1       0.774  -4.959   0.625  1.00  0.00     0.164 HD
ENDROOT
BRANCH   2   5
ATOM      5  C   UNL     1       0.190  -4.358   2.597  1.00  0.00     0.171 C 
ATOM      6  C   UNL     1      -0.680  -1.594   2.678  1.00  0.00     0.214 C 
ATOM      7  N   UNL     1       0.729  -1.892   2.580  1.00  0.00    -0.303 N 
ATOM      8  C   UNL     1      -1.471  -2.659   3.422  1.00  0.00     0.057 C 
ATOM      9  C   UNL     1       1.209  -3.189   2.486  1.00  0.00     0.247 C 
ATOM     10  C   UNL     1      -1.288  -4.000   2.743  1.00  0.00     0.040 C 
ATOM     11  O   UNL     1       2.411  -3.432   2.315  1.00  0.00    -0.272 OA
BRANCH   6  12
ATOM     12  O   UNL     1      -1.179  -1.435   1.370  1.00  0.00    -0.373 OA
ATOM     13  H   UNL     1      -1.384  -2.332   1.029  1.00  0.00     0.213 HD
ENDBRANCH   6  12
BRANCH   7  14
ATOM     14  C   UNL     1       1.649  -0.744   2.435  1.00  0.00     0.177 C 
BRANCH  14  15
ATOM     15  C   UNL     1       1.705  -0.123   1.025  1.00  0.00     0.038 C 
BRANCH  15  16
ATOM     16  C   UNL     1       2.988  -0.274   0.178  1.00  0.00    -0.015 C 
ATOM     17  C   UNL     1       4.262  -0.099   1.010  1.00  0.00     0.007 C 
ATOM     18  C   UNL     1       2.996   0.776  -0.941  1.00  0.00     0.007 C 
ENDBRANCH  15  16
ENDBRANCH  14  15
BRANCH  14  19
ATOM     19  C   UNL     1       1.741   0.053   3.781  1.00  0.00     0.245 C 
ATOM     20  O   UNL     1       2.580  -0.341   4.608  1.00  0.00    -0.272 OA
BRANCH  19  21
ATOM     21  N   UNL     1       0.878   1.076   4.132  1.00  0.00    -0.332 N 
ATOM     22  C   UNL     1      -0.421   0.906   4.758  1.00  0.00     0.147 C 
BRANCH  21  23
ATOM     23  C   UNL     1       1.301   2.474   3.838  1.00  0.00     0.178 C 
BRANCH  23  24
ATOM     24  C   UNL     1       0.810   3.025   2.484  1.00  0.00     0.070 C 
BRANCH  24  25
ATOM     25  C   UNL     1       1.866   3.488   1.507  1.00  0.00    -0.045 A 
ATOM     26  C   UNL     1       3.227   3.381   1.817  1.00  0.00     0.004 A 
ATOM     27  C   UNL     1       1.493   4.040   0.272  1.00  0.00     0.004 A 
ATOM     28  C   UNL     1       4.196   3.827   0.915  1.00  0.00     0.000 A 
ATOM     29  C   UNL     1       2.462   4.484  -0.629  1.00  0.00     0.000 A 
ATOM     30  C   UNL     1       3.814   4.380  -0.305  1.00  0.00     0.000 A 
ENDBRANCH  24  25
ENDBRANCH  23  24
BRANCH  23  31
ATOM     31  C   UNL     1       1.105   3.429   5.040  1.00  0.00     0.243 C 
ATOM     32  O   UNL     1       1.634   3.270   6.137  1.00  0.00    -0.273 OA
ATOM     33  N   UNL     1       0.128   4.387   4.831  1.00  0.00    -0.341 N 
ATOM     34  H   UNL     1      -0.282   4.467   3.897  1.00  0.00     0.164 HD
BRANCH  33  35
ATOM     35  C   UNL     1      -0.310   5.322   5.872  1.00  0.00     0.194 C 
BRANCH  35  36
ATOM     36  C   UNL     1      -1.852   5.495   5.962  1.00  0.00     0.017 C 
ATOM     37  C   UNL     1      -2.293   5.840   7.395  1.00  0.00     0.010 C 
ATOM     38  C   UNL     1      -2.627   4.244   5.532  1.00  0.00     0.010 C 
ENDBRANCH  35  36
BRANCH  35  39
ATOM     39  C   UNL     1       0.424   6.690   5.793  1.00  0.00     0.329 C 
ATOM     40  O   UNL     1       0.009   7.656   5.165  1.00  0.00    -0.250 OA
BRANCH  39  41
ATOM     41  O   UNL     1       1.545   6.724   6.576  1.00  0.00    -0.458 OA
BRANCH  41  42
ATOM     42  C   UNL     1       2.723   7.321   5.983  1.00  0.00     0.205 CG0
ATOM     43  C   UNL     1       3.415   6.238   5.158  1.00  0.00     0.056 C 
ATOM     44  G   UNL     1       3.620   7.866   7.112  1.00  0.00     0.000 G0
ENDBRANCH  41  42
ENDBRANCH  39  41
ENDBRANCH  35  39
ENDBRANCH  33  35
ENDBRANCH  23  31
ENDBRANCH  21  23
ENDBRANCH  19  21
ENDBRANCH  14  19
ENDBRANCH   7  14
ENDBRANCH   2   5
BRANCH   3  45
ATOM     45  C   UNL     1       0.523  -7.538   0.484  1.00  0.00     0.171 C 
BRANCH  45  46
ATOM     46  N   UNL     1      -0.048  -8.845   0.782  1.00  0.00    -0.342 N 
ATOM     47  C   UNL     1      -1.182  -9.310   0.167  1.00  0.00     0.247 C 
ATOM     48  O   UNL     1      -1.757  -8.693  -0.731  1.00  0.00    -0.273 OA
ATOM     49  H   UNL     1       0.430  -9.413   1.479  1.00  0.00     0.164 HD
BRANCH  47  50
ATOM     50  C   UNL     1      -1.706 -10.652   0.698  1.00  0.00     0.212 CG0
ATOM     51  G   UNL     1      -0.944 -11.774  -0.036  1.00  0.00     0.000 G0
BRANCH  50  52
ATOM     52  N   UNL     1      -1.453 -10.628   2.136  1.00  0.00    -0.339 N 
ATOM     53  C   UNL     1      -2.423 -10.358   3.070  1.00  0.00     0.243 C 
ATOM     54  O   UNL     1      -3.575 -10.062   2.761  1.00  0.00    -0.273 OA
ATOM     55  H   UNL     1      -0.492 -10.755   2.449  1.00  0.00     0.164 HD
BRANCH  53  56
ATOM     56  C   UNL     1      -1.901 -10.302   4.520  1.00  0.00     0.182 C 
BRANCH  56  57
ATOM     57  N   UNL     1      -0.501  -9.867   4.559  1.00  0.00    -0.344 N 
ATOM     58  C   UNL     1      -0.056  -8.895   5.421  1.00  0.00     0.220 C 
ATOM     59  O   UNL     1      -0.807  -8.273   6.163  1.00  0.00    -0.275 OA
ATOM     60  H   UNL     1       0.169 -10.425   4.035  1.00  0.00     0.164 HD
BRANCH  58  61
ATOM     61  C   UNL     1       1.438  -8.648   5.329  1.00  0.00     0.100 C 
BRANCH  61  62
ATOM     62  C   UNL     1       1.917  -7.450   6.150  1.00  0.00     0.010 C 
BRANCH  62  63
ATOM     63  C   UNL     1       1.698  -6.094   5.467  1.00  0.00     0.000 C 
BRANCH  63  64
ATOM     64  C   UNL     1       2.987  -5.337   5.151  1.00  0.00    -0.003 C 
ATOM     65  C   UNL     1       3.784  -5.045   6.415  1.00  0.00     0.004 C 
ENDBRANCH  63  64
ENDBRANCH  62  63
ENDBRANCH  61  62
ENDBRANCH  58  61
ENDBRANCH  56  57
BRANCH  56  66
ATOM     66  C   UNL     1      -2.113 -11.631   5.243  1.00  0.00     0.157 C 
BRANCH  66  67
ATOM     67  C   UNL     1      -2.532 -11.414   6.668  1.00  0.00     0.305 C 
ATOM     68  O   UNL     1      -3.646 -11.587   7.139  1.00  0.00    -0.252 OA
BRANCH  67  69
ATOM     69  O   UNL     1      -1.504 -11.035   7.451  1.00  0.00    -0.481 OA
ATOM     70  H   UNL     1      -1.698 -11.430   8.328  1.00  0.00     0.296 HD
ENDBRANCH  67  69
ENDBRANCH  66  67
ENDBRANCH  56  66
ENDBRANCH  53  56
ENDBRANCH  50  52
ENDBRANCH  47  50
ENDBRANCH  45  46
BRANCH  45  71
ATOM     71  C   UNL     1       2.044  -7.611   0.310  1.00  0.00     0.037 C 
BRANCH  71  72
ATOM     72  C   UNL     1       2.560  -9.052   0.355  1.00  0.00     0.026 C 
BRANCH  72  73
ATOM     73  C   UNL     1       2.889  -9.574  -1.042  1.00  0.00     0.146 C 
BRANCH  73  74
ATOM     74  N   UNL     1       1.767 -10.393  -1.490  1.00  0.00    -0.254 NA
ATOM     75  C   UNL     1       1.030  -9.935  -2.434  1.00  0.00     0.185 C 
ATOM     76  N   UNL     1      -0.009 -10.666  -2.868  1.00  0.00    -0.370 N 
ATOM     77  N   UNL     1       1.136  -8.772  -3.100  1.00  0.00    -0.370 N 
ATOM     78  H   UNL     1      -0.165 -11.554  -2.414  1.00  0.00     0.159 HD
ATOM     79  H   UNL     1      -0.710 -10.314  -3.496  1.00  0.00     0.159 HD
ATOM     80  H   UNL     1       1.876  -8.121  -2.882  1.00  0.00     0.159 HD
ATOM     81  H   UNL     1       0.566  -8.570  -3.905  1.00  0.00     0.159 HD
ENDBRANCH  73  74
ENDBRANCH  72  73
ENDBRANCH  71  72
ENDBRANCH  45  71
ENDBRANCH   3  45
TORSDOF 20
ENDMDL
MODEL 10
REMARK VINA RESULT:    -5.867      4.548      7.975
REMARK INTER + INTRA:         -24.907
REMARK INTER:                 -18.386
REMARK INTRA:                  -6.521
REMARK UNBOUND:                -8.064
REMARK SMILES CCCCCC(=O)N[C@H](CC(=O)O)C(=O)N[C@H]1C(=O)N[C@H](CCCN=C(N)N)C(=O)N[C@@H]2CC[C@H](O)N(C2=O)[C@@H](CC(C)C)C(=O)N(C)[C@@H](Cc2ccccc2)C(=O)N[C@H](C(C)C)C(=O)O[C@@H]1C
REMARK SMILES IDX 30 1 31 2 29 3 32 5 35 6 37 7 34 8 38 9 33 10 39 11 36 12
REMARK SMILES IDX 40 14 41 15 42 16 43 17 44 18 45 19 46 20 47 21 48 22 49 23
REMARK SMILES IDX 50 24 51 25 52 26 56 27 53 28 55 29 54 30 57 31 58 32 59 33
REMARK SMILES IDX 60 35 61 36 62 37 63 38 64 39 65 40 66 41 67 42 68 43 21 45
REMARK SMILES IDX 20 46 18 47 19 48 17 50 16 52 14 53 15 54 9 56 8 57 6 58
REMARK SMILES IDX 7 59 5 61 4 62 3 63 2 64 1 65 10 66 11 67 12 68 13 69 22 71
REMARK SMILES IDX 23 72 24 73 25 74 26 75 27 76 28 77
REMARK H PARENT 31 4 36 13 59 34 20 49 16 55 8 60 13 70 27 78 27 79 28 80
REMARK H PARENT 28 81
REMARK Flexibility Score:  259.900
ROOT
ATOM      1  O   UNL     1       1.662  -7.174   1.342  1.00  0.00    -0.273 OA
ATOM      2  N   UNL     1       1.951  -5.469  -0.155  1.00  0.00    -0.343 N 
ATOM      3  C   UNL     1       1.686  -6.780   0.175  1.00  0.00     0.243 C 
ATOM      4  H   UNL     1       1.948  -5.178  -1.125  1.00  0.00     0.164 HD
ENDROOT
BRANCH   2   5
ATOM      5  C   UNL     1       2.335  -4.507   0.872  1.00  0.00     0.171 C 
ATOM      6  C   UNL     1       2.276  -1.611   0.973  1.00  0.00     0.214 C 
ATOM      7  N   UNL     1       3.464  -2.281   0.498  1.00  0.00    -0.303 N 
ATOM      8  C   UNL     1       1.497  -2.420   1.997  1.00  0.00     0.057 C 
ATOM      9  C   UNL     1       3.541  -3.659   0.376  1.00  0.00     0.247 C 
ATOM     10  C   UNL     1       1.114  -3.760   1.408  1.00  0.00     0.040 C 
ATOM     11  O   UNL     1       4.530  -4.220  -0.112  1.00  0.00    -0.272 OA
BRANCH   6  12
ATOM     12  O   UNL     1       1.468  -1.323  -0.145  1.00  0.00    -0.373 OA
ATOM     13  H   UNL     1       0.916  -2.117  -0.313  1.00  0.00     0.213 HD
ENDBRANCH   6  12
BRANCH   7  14
ATOM     14  C   UNL     1       4.562  -1.426  -0.001  1.00  0.00     0.177 C 
BRANCH  14  15
ATOM     15  C   UNL     1       4.170  -0.438  -1.117  1.00  0.00     0.038 C 
BRANCH  15  16
ATOM     16  C   UNL     1       4.428   1.072  -0.923  1.00  0.00    -0.015 C 
ATOM     17  C   UNL     1       3.442   1.711   0.060  1.00  0.00     0.007 C 
ATOM     18  C   UNL     1       4.303   1.797  -2.269  1.00  0.00     0.007 C 
ENDBRANCH  15  16
ENDBRANCH  14  15
BRANCH  14  19
ATOM     19  C   UNL     1       5.588  -1.135   1.148  1.00  0.00     0.245 C 
ATOM     20  O   UNL     1       5.225  -1.406   2.305  1.00  0.00    -0.272 OA
BRANCH  19  21
ATOM     21  N   UNL     1       6.803  -0.502   0.954  1.00  0.00    -0.332 N 
ATOM     22  C   UNL     1       7.162   0.809   1.467  1.00  0.00     0.147 C 
BRANCH  21  23
ATOM     23  C   UNL     1       7.835  -1.208   0.145  1.00  0.00     0.178 C 
BRANCH  23  24
ATOM     24  C   UNL     1       7.514  -2.685  -0.163  1.00  0.00     0.070 C 
BRANCH  24  25
ATOM     25  C   UNL     1       8.682  -3.595  -0.461  1.00  0.00    -0.045 A 
ATOM     26  C   UNL     1       9.385  -4.224   0.575  1.00  0.00     0.004 A 
ATOM     27  C   UNL     1       9.084  -3.820  -1.787  1.00  0.00     0.004 A 
ATOM     28  C   UNL     1      10.474  -5.050   0.292  1.00  0.00     0.000 A 
ATOM     29  C   UNL     1      10.173  -4.647  -2.068  1.00  0.00     0.000 A 
ATOM     30  C   UNL     1      10.869  -5.260  -1.028  1.00  0.00     0.000 A 
ENDBRANCH  24  25
ENDBRANCH  23  24
BRANCH  23  31
ATOM     31  C   UNL     1       8.322  -0.380  -1.068  1.00  0.00     0.243 C 
ATOM     32  O   UNL     1       7.616  -0.094  -2.032  1.00  0.00    -0.273 OA
ATOM     33  N   UNL     1       9.686  -0.141  -1.063  1.00  0.00    -0.341 N 
ATOM     34  H   UNL     1      10.222  -0.407  -0.234  1.00  0.00     0.164 HD
BRANCH  33  35
ATOM     35  C   UNL     1      10.385   0.520  -2.169  1.00  0.00     0.194 C 
BRANCH  35  36
ATOM     36  C   UNL     1      11.617  -0.265  -2.700  1.00  0.00     0.017 C 
ATOM     37  C   UNL     1      11.194  -1.385  -3.666  1.00  0.00     0.010 C 
ATOM     38  C   UNL     1      12.448  -0.911  -1.585  1.00  0.00     0.010 C 
ENDBRANCH  35  36
BRANCH  35  39
ATOM     39  C   UNL     1      10.731   2.002  -1.856  1.00  0.00     0.329 C 
ATOM     40  O   UNL     1      10.015   2.751  -1.203  1.00  0.00    -0.250 OA
BRANCH  39  41
ATOM     41  O   UNL     1      11.969   2.355  -2.318  1.00  0.00    -0.458 OA
BRANCH  41  42
ATOM     42  C   UNL     1      12.015   3.470  -3.240  1.00  0.00     0.205 CG0
ATOM     43  C   UNL     1      12.328   2.902  -4.623  1.00  0.00     0.056 C 
ATOM     44  G   UNL     1      13.088   4.465  -2.756  1.00  0.00     0.000 G0
ENDBRANCH  41  42
ENDBRANCH  39  41
ENDBRANCH  35  39
ENDBRANCH  33  35
ENDBRANCH  23  31
ENDBRANCH  21  23
ENDBRANCH  19  21
ENDBRANCH  14  19
ENDBRANCH   7  14
ENDBRANCH   2   5
BRANCH   3  45
ATOM     45  C   UNL     1       1.402  -7.712  -1.011  1.00  0.00     0.171 C 
BRANCH  45  46
ATOM     46  N   UNL     1       0.125  -8.347  -0.715  1.00  0.00    -0.342 N 
ATOM     47  C   UNL     1      -0.814  -8.598  -1.684  1.00  0.00     0.247 C 
ATOM     48  O   UNL     1      -0.619  -8.373  -2.879  1.00  0.00    -0.273 OA
ATOM     49  H   UNL     1      -0.055  -8.602   0.254  1.00  0.00     0.164 HD
BRANCH  47  50
ATOM     50  C   UNL     1      -2.147  -9.158  -1.168  1.00  0.00     0.212 CG0
ATOM     51  G   UNL     1      -2.248 -10.625  -1.629  1.00  0.00     0.000 G0
BRANCH  50  52
ATOM     52  N   UNL     1      -2.095  -9.011   0.284  1.00  0.00    -0.339 N 
ATOM     53  C   UNL     1      -2.388  -7.838   0.937  1.00  0.00     0.243 C 
ATOM     54  O   UNL     1      -2.666  -6.801   0.341  1.00  0.00    -0.273 OA
ATOM     55  H   UNL     1      -1.763  -9.805   0.828  1.00  0.00     0.164 HD
BRANCH  53  56
ATOM     56  C   UNL     1      -2.179  -7.900   2.463  1.00  0.00     0.182 C 
BRANCH  56  57
ATOM     57  N   UNL     1      -1.170  -6.929   2.897  1.00  0.00    -0.344 N 
ATOM     58  C   UNL     1      -1.415  -6.003   3.882  1.00  0.00     0.220 C 
ATOM     59  O   UNL     1      -2.512  -5.876   4.415  1.00  0.00    -0.275 OA
ATOM     60  H   UNL     1      -0.222  -7.065   2.555  1.00  0.00     0.164 HD
BRANCH  58  61
ATOM     61  C   UNL     1      -0.210  -5.140   4.208  1.00  0.00     0.100 C 
BRANCH  61  62
ATOM     62  C   UNL     1       1.021  -5.937   4.640  1.00  0.00     0.010 C 
BRANCH  62  63
ATOM     63  C   UNL     1       1.437  -5.709   6.099  1.00  0.00     0.000 C 
BRANCH  63  64
ATOM     64  C   UNL     1       2.115  -6.912   6.752  1.00  0.00    -0.003 C 
ATOM     65  C   UNL     1       1.118  -8.028   7.031  1.00  0.00     0.004 C 
ENDBRANCH  63  64
ENDBRANCH  62  63
ENDBRANCH  61  62
ENDBRANCH  58  61
ENDBRANCH  56  57
BRANCH  56  66
ATOM     66  C   UNL     1      -1.850  -9.318   2.927  1.00  0.00     0.157 C 
BRANCH  66  67
ATOM     67  C   UNL     1      -0.367  -9.527   3.028  1.00  0.00     0.305 C 
ATOM     68  O   UNL     1       0.303  -9.540   4.049  1.00  0.00    -0.252 OA
BRANCH  67  69
ATOM     69  O   UNL     1       0.200  -9.764   1.830  1.00  0.00    -0.481 OA
ATOM     70  H   UNL     1       0.992  -9.188   1.809  1.00  0.00     0.296 HD
ENDBRANCH  67  69
ENDBRANCH  66  67
ENDBRANCH  56  66
ENDBRANCH  53  56
ENDBRANCH  50  52
ENDBRANCH  47  50
ENDBRANCH  45  46
BRANCH  45  71
ATOM     71  C   UNL     1       2.526  -8.744  -1.160  1.00  0.00     0.037 C 
BRANCH  71  72
ATOM     72  C   UNL     1       2.668  -9.236  -2.603  1.00  0.00     0.026 C 
BRANCH  72  73
ATOM     73  C   UNL     1       2.174 -10.673  -2.755  1.00  0.00     0.146 C 
BRANCH  73  74
ATOM     74  N   UNL     1       1.513 -11.054  -1.510  1.00  0.00    -0.254 NA
ATOM     75  C   UNL     1       0.531 -11.874  -1.580  1.00  0.00     0.185 C 
ATOM     76  N   UNL     1      -0.097 -12.244  -0.452  1.00  0.00    -0.370 N 
ATOM     77  N   UNL     1      -0.005 -12.460  -2.665  1.00  0.00    -0.370 N 
ATOM     78  H   UNL     1       0.239 -11.842   0.411  1.00  0.00     0.159 HD
ATOM     79  H   UNL     1      -0.957 -12.763  -0.442  1.00  0.00     0.159 HD
ATOM     80  H   UNL     1       0.369 -12.279  -3.585  1.00  0.00     0.159 HD
ATOM     81  H   UNL     1      -0.704 -13.180  -2.586  1.00  0.00     0.159 HD
ENDBRANCH  73  74
ENDBRANCH  72  73
ENDBRANCH  71  72
ENDBRANCH  45  71
ENDBRANCH   3  45
TORSDOF 20
ENDMDL
MODEL 11
REMARK VINA RESULT:    -5.830      5.334      9.102
REMARK INTER + INTRA:         -24.799
REMARK INTER:                 -18.364
REMARK INTRA:                  -6.435
REMARK UNBOUND:                -8.064
REMARK SMILES CCCCCC(=O)N[C@H](CC(=O)O)C(=O)N[C@H]1C(=O)N[C@H](CCCN=C(N)N)C(=O)N[C@@H]2CC[C@H](O)N(C2=O)[C@@H](CC(C)C)C(=O)N(C)[C@@H](Cc2ccccc2)C(=O)N[C@H](C(C)C)C(=O)O[C@@H]1C
REMARK SMILES IDX 30 1 31 2 29 3 32 5 35 6 37 7 34 8 38 9 33 10 39 11 36 12
REMARK SMILES IDX 40 14 41 15 42 16 43 17 44 18 45 19 46 20 47 21 48 22 49 23
REMARK SMILES IDX 50 24 51 25 52 26 56 27 53 28 55 29 54 30 57 31 58 32 59 33
REMARK SMILES IDX 60 35 61 36 62 37 63 38 64 39 65 40 66 41 67 42 68 43 21 45
REMARK SMILES IDX 20 46 18 47 19 48 17 50 16 52 14 53 15 54 9 56 8 57 6 58
REMARK SMILES IDX 7 59 5 61 4 62 3 63 2 64 1 65 10 66 11 67 12 68 13 69 22 71
REMARK SMILES IDX 23 72 24 73 25 74 26 75 27 76 28 77
REMARK H PARENT 31 4 36 13 59 34 20 49 16 55 8 60 13 70 27 78 27 79 28 80
REMARK H PARENT 28 81
REMARK Flexibility Score:  259.900
ROOT
ATOM      1  O   UNL     1       2.742  -5.530   3.185  1.00  0.00    -0.273 OA
ATOM      2  N   UNL     1       4.020  -3.766   3.884  1.00  0.00    -0.343 N 
ATOM      3  C   UNL     1       2.984  -4.665   4.027  1.00  0.00     0.243 C 
ATOM      4  H   UNL     1       4.199  -3.078   4.604  1.00  0.00     0.164 HD
ENDROOT
BRANCH   2   5
ATOM      5  C   UNL     1       4.806  -3.729   2.655  1.00  0.00     0.171 C 
ATOM      6  C   UNL     1       6.956  -2.007   1.751  1.00  0.00     0.214 C 
ATOM      7  N   UNL     1       5.589  -1.661   1.437  1.00  0.00    -0.303 N 
ATOM      8  C   UNL     1       7.185  -3.506   1.871  1.00  0.00     0.057 C 
ATOM      9  C   UNL     1       4.512  -2.412   1.881  1.00  0.00     0.247 C 
ATOM     10  C   UNL     1       6.267  -4.081   2.929  1.00  0.00     0.040 C 
ATOM     11  O   UNL     1       3.342  -2.062   1.682  1.00  0.00    -0.272 OA
BRANCH   6  12
ATOM     12  O   UNL     1       7.299  -1.358   2.953  1.00  0.00    -0.373 OA
ATOM     13  H   UNL     1       6.651  -1.647   3.630  1.00  0.00     0.213 HD
ENDBRANCH   6  12
BRANCH   7  14
ATOM     14  C   UNL     1       5.366  -0.378   0.738  1.00  0.00     0.177 C 
BRANCH  14  15
ATOM     15  C   UNL     1       4.960   0.801   1.643  1.00  0.00     0.038 C 
BRANCH  15  16
ATOM     16  C   UNL     1       4.559   2.149   1.004  1.00  0.00    -0.015 C 
ATOM     17  C   UNL     1       5.385   3.320   1.544  1.00  0.00     0.007 C 
ATOM     18  C   UNL     1       3.079   2.436   1.284  1.00  0.00     0.007 C 
ENDBRANCH  15  16
ENDBRANCH  14  15
BRANCH  14  19
ATOM     19  C   UNL     1       6.294  -0.277  -0.522  1.00  0.00     0.245 C 
ATOM     20  O   UNL     1       6.139  -1.141  -1.401  1.00  0.00    -0.272 OA
BRANCH  19  21
ATOM     21  N   UNL     1       7.326   0.635  -0.648  1.00  0.00    -0.332 N 
ATOM     22  C   UNL     1       8.232   1.035   0.415  1.00  0.00     0.147 C 
BRANCH  21  23
ATOM     23  C   UNL     1       7.529   1.277  -1.976  1.00  0.00     0.178 C 
BRANCH  23  24
ATOM     24  C   UNL     1       7.385   2.813  -1.979  1.00  0.00     0.070 C 
BRANCH  24  25
ATOM     25  C   UNL     1       5.994   3.373  -2.169  1.00  0.00    -0.045 A 
ATOM     26  C   UNL     1       5.734   4.733  -1.957  1.00  0.00     0.004 A 
ATOM     27  C   UNL     1       4.940   2.533  -2.556  1.00  0.00     0.004 A 
ATOM     28  C   UNL     1       4.442   5.240  -2.118  1.00  0.00     0.000 A 
ATOM     29  C   UNL     1       3.650   3.041  -2.718  1.00  0.00     0.000 A 
ATOM     30  C   UNL     1       3.402   4.394  -2.495  1.00  0.00     0.000 A 
ENDBRANCH  24  25
ENDBRANCH  23  24
BRANCH  23  31
ATOM     31  C   UNL     1       8.772   0.738  -2.723  1.00  0.00     0.243 C 
ATOM     32  O   UNL     1       8.849  -0.389  -3.204  1.00  0.00    -0.273 OA
ATOM     33  N   UNL     1       9.872   1.575  -2.643  1.00  0.00    -0.341 N 
ATOM     34  H   UNL     1       9.748   2.501  -2.225  1.00  0.00     0.164 HD
BRANCH  33  35
ATOM     35  C   UNL     1      11.190   1.216  -3.174  1.00  0.00     0.194 C 
BRANCH  35  36
ATOM     36  C   UNL     1      11.855   0.007  -2.458  1.00  0.00     0.017 C 
ATOM     37  C   UNL     1      11.896   0.214  -0.933  1.00  0.00     0.010 C 
ATOM     38  C   UNL     1      13.293  -0.255  -2.923  1.00  0.00     0.010 C 
ENDBRANCH  35  36
BRANCH  35  39
ATOM     39  C   UNL     1      12.149   2.435  -3.268  1.00  0.00     0.329 C 
ATOM     40  O   UNL     1      12.373   3.205  -2.341  1.00  0.00    -0.250 OA
BRANCH  39  41
ATOM     41  O   UNL     1      12.786   2.505  -4.476  1.00  0.00    -0.458 OA
BRANCH  41  42
ATOM     42  C   UNL     1      11.998   2.146  -5.637  1.00  0.00     0.205 CG0
ATOM     43  C   UNL     1      12.815   1.142  -6.448  1.00  0.00     0.056 C 
ATOM     44  G   UNL     1      11.683   3.429  -6.432  1.00  0.00     0.000 G0
ENDBRANCH  41  42
ENDBRANCH  39  41
ENDBRANCH  35  39
ENDBRANCH  33  35
ENDBRANCH  23  31
ENDBRANCH  21  23
ENDBRANCH  19  21
ENDBRANCH  14  19
ENDBRANCH   7  14
ENDBRANCH   2   5
BRANCH   3  45
ATOM     45  C   UNL     1       2.169  -4.526   5.319  1.00  0.00     0.171 C 
BRANCH  45  46
ATOM     46  N   UNL     1       1.525  -5.818   5.519  1.00  0.00    -0.342 N 
ATOM     47  C   UNL     1       1.445  -6.418   6.751  1.00  0.00     0.247 C 
ATOM     48  O   UNL     1       1.843  -5.879   7.784  1.00  0.00    -0.273 OA
ATOM     49  H   UNL     1       1.132  -6.275   4.698  1.00  0.00     0.164 HD
BRANCH  47  50
ATOM     50  C   UNL     1       0.845  -7.831   6.748  1.00  0.00     0.212 CG0
ATOM     51  G   UNL     1       0.397  -8.151   8.188  1.00  0.00     0.000 G0
BRANCH  50  52
ATOM     52  N   UNL     1      -0.263  -7.782   5.797  1.00  0.00    -0.339 N 
ATOM     53  C   UNL     1      -0.497  -8.757   4.858  1.00  0.00     0.243 C 
ATOM     54  O   UNL     1       0.244  -9.726   4.711  1.00  0.00    -0.273 OA
ATOM     55  H   UNL     1      -0.847  -6.948   5.795  1.00  0.00     0.164 HD
BRANCH  53  56
ATOM     56  C   UNL     1      -1.671  -8.445   3.908  1.00  0.00     0.182 C 
BRANCH  56  57
ATOM     57  N   UNL     1      -1.663  -7.035   3.506  1.00  0.00    -0.344 N 
ATOM     58  C   UNL     1      -1.043  -6.600   2.360  1.00  0.00     0.220 C 
ATOM     59  O   UNL     1      -0.394  -7.345   1.634  1.00  0.00    -0.275 OA
ATOM     60  H   UNL     1      -2.271  -6.406   4.023  1.00  0.00     0.164 HD
BRANCH  58  61
ATOM     61  C   UNL     1      -1.212  -5.113   2.113  1.00  0.00     0.100 C 
BRANCH  61  62
ATOM     62  C   UNL     1       0.095  -4.390   1.784  1.00  0.00     0.010 C 
BRANCH  62  63
ATOM     63  C   UNL     1      -0.016  -2.860   1.784  1.00  0.00     0.000 C 
BRANCH  63  64
ATOM     64  C   UNL     1      -1.251  -2.322   2.506  1.00  0.00    -0.003 C 
ATOM     65  C   UNL     1      -1.504  -0.862   2.159  1.00  0.00     0.004 C 
ENDBRANCH  63  64
ENDBRANCH  62  63
ENDBRANCH  61  62
ENDBRANCH  58  61
ENDBRANCH  56  57
BRANCH  56  66
ATOM     66  C   UNL     1      -3.009  -8.864   4.516  1.00  0.00     0.157 C 
BRANCH  66  67
ATOM     67  C   UNL     1      -3.867  -7.669   4.816  1.00  0.00     0.305 C 
ATOM     68  O   UNL     1      -4.838  -7.286   4.181  1.00  0.00    -0.252 OA
BRANCH  67  69
ATOM     69  O   UNL     1      -3.489  -7.038   5.944  1.00  0.00    -0.481 OA
ATOM     70  H   UNL     1      -3.802  -7.617   6.671  1.00  0.00     0.296 HD
ENDBRANCH  67  69
ENDBRANCH  66  67
ENDBRANCH  56  66
ENDBRANCH  53  56
ENDBRANCH  50  52
ENDBRANCH  47  50
ENDBRANCH  45  46
BRANCH  45  71
ATOM     71  C   UNL     1       1.140  -3.398   5.183  1.00  0.00     0.037 C 
BRANCH  71  72
ATOM     72  C   UNL     1       1.581  -2.127   5.913  1.00  0.00     0.026 C 
BRANCH  72  73
ATOM     73  C   UNL     1       2.888  -2.341   6.673  1.00  0.00     0.146 C 
BRANCH  73  74
ATOM     74  N   UNL     1       3.408  -1.030   7.047  1.00  0.00    -0.254 NA
ATOM     75  C   UNL     1       4.357  -0.538   6.340  1.00  0.00     0.185 C 
ATOM     76  N   UNL     1       4.856   0.668   6.659  1.00  0.00    -0.370 N 
ATOM     77  N   UNL     1       4.971  -1.064   5.266  1.00  0.00    -0.370 N 
ATOM     78  H   UNL     1       4.454   1.131   7.461  1.00  0.00     0.159 HD
ATOM     79  H   UNL     1       5.688   1.049   6.245  1.00  0.00     0.159 HD
ATOM     80  H   UNL     1       4.697  -1.967   4.909  1.00  0.00     0.159 HD
ATOM     81  H   UNL     1       5.629  -0.533   4.720  1.00  0.00     0.159 HD
ENDBRANCH  73  74
ENDBRANCH  72  73
ENDBRANCH  71  72
ENDBRANCH  45  71
ENDBRANCH   3  45
TORSDOF 20
ENDMDL
MODEL 12
REMARK VINA RESULT:    -5.803      4.533      8.766
REMARK INTER + INTRA:         -24.723
REMARK INTER:                 -19.065
REMARK INTRA:                  -5.658
REMARK UNBOUND:                -8.064
REMARK SMILES CCCCCC(=O)N[C@H](CC(=O)O)C(=O)N[C@H]1C(=O)N[C@H](CCCN=C(N)N)C(=O)N[C@@H]2CC[C@H](O)N(C2=O)[C@@H](CC(C)C)C(=O)N(C)[C@@H](Cc2ccccc2)C(=O)N[C@H](C(C)C)C(=O)O[C@@H]1C
REMARK SMILES IDX 30 1 31 2 29 3 32 5 35 6 37 7 34 8 38 9 33 10 39 11 36 12
REMARK SMILES IDX 40 14 41 15 42 16 43 17 44 18 45 19 46 20 47 21 48 22 49 23
REMARK SMILES IDX 50 24 51 25 52 26 56 27 53 28 55 29 54 30 57 31 58 32 59 33
REMARK SMILES IDX 60 35 61 36 62 37 63 38 64 39 65 40 66 41 67 42 68 43 21 45
REMARK SMILES IDX 20 46 18 47 19 48 17 50 16 52 14 53 15 54 9 56 8 57 6 58
REMARK SMILES IDX 7 59 5 61 4 62 3 63 2 64 1 65 10 66 11 67 12 68 13 69 22 71
REMARK SMILES IDX 23 72 24 73 25 74 26 75 27 76 28 77
REMARK H PARENT 31 4 36 13 59 34 20 49 16 55 8 60 13 70 27 78 27 79 28 80
REMARK H PARENT 28 81
REMARK Flexibility Score:  259.900
ROOT
ATOM      1  O   UNL     1      -1.750  -4.761   5.776  1.00  0.00    -0.273 OA
ATOM      2  N   UNL     1      -1.588  -4.312   3.539  1.00  0.00    -0.343 N 
ATOM      3  C   UNL     1      -1.893  -5.127   4.609  1.00  0.00     0.243 C 
ATOM      4  H   UNL     1      -1.733  -4.641   2.593  1.00  0.00     0.164 HD
ENDROOT
BRANCH   2   5
ATOM      5  C   UNL     1      -0.964  -3.011   3.751  1.00  0.00     0.171 C 
ATOM      6  C   UNL     1       0.338  -1.142   1.957  1.00  0.00     0.214 C 
ATOM      7  N   UNL     1       1.127  -2.149   2.628  1.00  0.00    -0.303 N 
ATOM      8  C   UNL     1      -0.882  -0.705   2.752  1.00  0.00     0.057 C 
ATOM      9  C   UNL     1       0.561  -3.104   3.458  1.00  0.00     0.247 C 
ATOM     10  C   UNL     1      -1.754  -1.904   3.054  1.00  0.00     0.040 C 
ATOM     11  O   UNL     1       1.231  -4.016   3.960  1.00  0.00    -0.272 OA
BRANCH   6  12
ATOM     12  O   UNL     1      -0.050  -1.662   0.706  1.00  0.00    -0.373 OA
ATOM     13  H   UNL     1      -0.086  -0.907   0.080  1.00  0.00     0.213 HD
ENDBRANCH   6  12
BRANCH   7  14
ATOM     14  C   UNL     1       2.562  -2.219   2.280  1.00  0.00     0.177 C 
BRANCH  14  15
ATOM     15  C   UNL     1       2.882  -2.945   0.959  1.00  0.00     0.038 C 
BRANCH  15  16
ATOM     16  C   UNL     1       3.729  -4.237   0.986  1.00  0.00    -0.015 C 
ATOM     17  C   UNL     1       5.084  -4.062   0.294  1.00  0.00     0.007 C 
ATOM     18  C   UNL     1       2.971  -5.368   0.280  1.00  0.00     0.007 C 
ENDBRANCH  15  16
ENDBRANCH  14  15
BRANCH  14  19
ATOM     19  C   UNL     1       3.316  -0.959   2.829  1.00  0.00     0.245 C 
ATOM     20  O   UNL     1       2.755  -0.323   3.737  1.00  0.00    -0.272 OA
BRANCH  19  21
ATOM     21  N   UNL     1       4.491  -0.468   2.288  1.00  0.00    -0.332 N 
ATOM     22  C   UNL     1       5.811  -1.041   2.480  1.00  0.00     0.147 C 
BRANCH  21  23
ATOM     23  C   UNL     1       4.411   0.757   1.446  1.00  0.00     0.178 C 
BRANCH  23  24
ATOM     24  C   UNL     1       3.007   1.064   0.885  1.00  0.00     0.070 C 
BRANCH  24  25
ATOM     25  C   UNL     1       2.929   1.995  -0.303  1.00  0.00    -0.045 A 
ATOM     26  C   UNL     1       3.330   1.569  -1.576  1.00  0.00     0.004 A 
ATOM     27  C   UNL     1       2.456   3.306  -0.144  1.00  0.00     0.004 A 
ATOM     28  C   UNL     1       3.270   2.441  -2.665  1.00  0.00     0.000 A 
ATOM     29  C   UNL     1       2.396   4.176  -1.234  1.00  0.00     0.000 A 
ATOM     30  C   UNL     1       2.806   3.743  -2.493  1.00  0.00     0.000 A 
ENDBRANCH  24  25
ENDBRANCH  23  24
BRANCH  23  31
ATOM     31  C   UNL     1       5.142   1.969   2.071  1.00  0.00     0.243 C 
ATOM     32  O   UNL     1       4.687   2.645   2.990  1.00  0.00    -0.273 OA
ATOM     33  N   UNL     1       6.280   2.346   1.379  1.00  0.00    -0.341 N 
ATOM     34  H   UNL     1       6.607   1.745   0.618  1.00  0.00     0.164 HD
BRANCH  33  35
ATOM     35  C   UNL     1       7.065   3.536   1.720  1.00  0.00     0.194 C 
BRANCH  35  36
ATOM     36  C   UNL     1       6.850   4.735   0.754  1.00  0.00     0.017 C 
ATOM     37  C   UNL     1       6.006   5.840   1.413  1.00  0.00     0.010 C 
ATOM     38  C   UNL     1       6.152   4.341  -0.553  1.00  0.00     0.010 C 
ENDBRANCH  35  36
BRANCH  35  39
ATOM     39  C   UNL     1       8.572   3.219   1.926  1.00  0.00     0.329 C 
ATOM     40  O   UNL     1       9.013   2.100   2.160  1.00  0.00    -0.250 OA
BRANCH  39  41
ATOM     41  O   UNL     1       9.365   4.316   1.732  1.00  0.00    -0.458 OA
BRANCH  41  42
ATOM     42  C   UNL     1       9.721   5.068   2.917  1.00  0.00     0.205 CG0
ATOM     43  C   UNL     1       9.732   6.546   2.530  1.00  0.00     0.056 C 
ATOM     44  G   UNL     1      11.096   4.579   3.415  1.00  0.00     0.000 G0
ENDBRANCH  41  42
ENDBRANCH  39  41
ENDBRANCH  35  39
ENDBRANCH  33  35
ENDBRANCH  23  31
ENDBRANCH  21  23
ENDBRANCH  19  21
ENDBRANCH  14  19
ENDBRANCH   7  14
ENDBRANCH   2   5
BRANCH   3  45
ATOM     45  C   UNL     1      -2.444  -6.512   4.244  1.00  0.00     0.171 C 
BRANCH  45  46
ATOM     46  N   UNL     1      -3.230  -6.938   5.394  1.00  0.00    -0.342 N 
ATOM     47  C   UNL     1      -4.561  -7.259   5.297  1.00  0.00     0.247 C 
ATOM     48  O   UNL     1      -5.167  -7.283   4.225  1.00  0.00    -0.273 OA
ATOM     49  H   UNL     1      -2.753  -6.987   6.293  1.00  0.00     0.164 HD
BRANCH  47  50
ATOM     50  C   UNL     1      -5.255  -7.565   6.633  1.00  0.00     0.212 CG0
ATOM     51  G   UNL     1      -4.587  -8.819   7.230  1.00  0.00     0.000 G0
BRANCH  50  52
ATOM     52  N   UNL     1      -5.071  -6.368   7.450  1.00  0.00    -0.339 N 
ATOM     53  C   UNL     1      -6.022  -5.384   7.574  1.00  0.00     0.243 C 
ATOM     54  O   UNL     1      -7.085  -5.411   6.962  1.00  0.00    -0.273 OA
ATOM     55  H   UNL     1      -4.165  -6.234   7.895  1.00  0.00     0.164 HD
BRANCH  53  56
ATOM     56  C   UNL     1      -5.568  -4.177   8.420  1.00  0.00     0.182 C 
BRANCH  56  57
ATOM     57  N   UNL     1      -6.705  -3.314   8.756  1.00  0.00    -0.344 N 
ATOM     58  C   UNL     1      -7.188  -3.198  10.037  1.00  0.00     0.220 C 
ATOM     59  O   UNL     1      -6.752  -3.862  10.972  1.00  0.00    -0.275 OA
ATOM     60  H   UNL     1      -7.027  -2.674   8.035  1.00  0.00     0.164 HD
BRANCH  58  61
ATOM     61  C   UNL     1      -8.329  -2.206  10.163  1.00  0.00     0.100 C 
BRANCH  61  62
ATOM     62  C   UNL     1      -9.629  -2.824  10.677  1.00  0.00     0.010 C 
BRANCH  62  63
ATOM     63  C   UNL     1     -10.342  -3.724   9.660  1.00  0.00     0.000 C 
BRANCH  63  64
ATOM     64  C   UNL     1     -10.601  -5.146  10.155  1.00  0.00    -0.003 C 
ATOM     65  C   UNL     1      -9.936  -5.395  11.501  1.00  0.00     0.004 C 
ENDBRANCH  63  64
ENDBRANCH  62  63
ENDBRANCH  61  62
ENDBRANCH  58  61
ENDBRANCH  56  57
BRANCH  56  66
ATOM     66  C   UNL     1      -4.441  -3.406   7.735  1.00  0.00     0.157 C 
BRANCH  66  67
ATOM     67  C   UNL     1      -3.728  -2.509   8.706  1.00  0.00     0.305 C 
ATOM     68  O   UNL     1      -3.593  -2.689   9.906  1.00  0.00    -0.252 OA
BRANCH  67  69
ATOM     69  O   UNL     1      -3.170  -1.442   8.102  1.00  0.00    -0.481 OA
ATOM     70  H   UNL     1      -3.924  -0.854   7.887  1.00  0.00     0.296 HD
ENDBRANCH  67  69
ENDBRANCH  66  67
ENDBRANCH  56  66
ENDBRANCH  53  56
ENDBRANCH  50  52
ENDBRANCH  47  50
ENDBRANCH  45  46
BRANCH  45  71
ATOM     71  C   UNL     1      -1.294  -7.483   3.954  1.00  0.00     0.037 C 
BRANCH  71  72
ATOM     72  C   UNL     1      -1.305  -8.687   4.901  1.00  0.00     0.026 C 
BRANCH  72  73
ATOM     73  C   UNL     1      -0.196  -8.587   5.946  1.00  0.00     0.146 C 
BRANCH  73  74
ATOM     74  N   UNL     1       0.682  -7.485   5.563  1.00  0.00    -0.254 NA
ATOM     75  C   UNL     1       1.414  -6.958   6.473  1.00  0.00     0.185 C 
ATOM     76  N   UNL     1       2.232  -5.943   6.151  1.00  0.00    -0.370 N 
ATOM     77  N   UNL     1       1.501  -7.276   7.777  1.00  0.00    -0.370 N 
ATOM     78  H   UNL     1       2.223  -5.636   5.189  1.00  0.00     0.159 HD
ATOM     79  H   UNL     1       2.723  -5.390   6.832  1.00  0.00     0.159 HD
ATOM     80  H   UNL     1       0.944  -8.024   8.161  1.00  0.00     0.159 HD
ATOM     81  H   UNL     1       2.199  -6.866   8.375  1.00  0.00     0.159 HD
ENDBRANCH  73  74
ENDBRANCH  72  73
ENDBRANCH  71  72
ENDBRANCH  45  71
ENDBRANCH   3  45
TORSDOF 20
ENDMDL
MODEL 13
REMARK VINA RESULT:    -5.802      3.783     11.347
REMARK INTER + INTRA:         -24.720
REMARK INTER:                 -16.910
REMARK INTRA:                  -7.810
REMARK UNBOUND:                -8.064
REMARK SMILES CCCCCC(=O)N[C@H](CC(=O)O)C(=O)N[C@H]1C(=O)N[C@H](CCCN=C(N)N)C(=O)N[C@@H]2CC[C@H](O)N(C2=O)[C@@H](CC(C)C)C(=O)N(C)[C@@H](Cc2ccccc2)C(=O)N[C@H](C(C)C)C(=O)O[C@@H]1C
REMARK SMILES IDX 30 1 31 2 29 3 32 5 35 6 37 7 34 8 38 9 33 10 39 11 36 12
REMARK SMILES IDX 40 14 41 15 42 16 43 17 44 18 45 19 46 20 47 21 48 22 49 23
REMARK SMILES IDX 50 24 51 25 52 26 56 27 53 28 55 29 54 30 57 31 58 32 59 33
REMARK SMILES IDX 60 35 61 36 62 37 63 38 64 39 65 40 66 41 67 42 68 43 21 45
REMARK SMILES IDX 20 46 18 47 19 48 17 50 16 52 14 53 15 54 9 56 8 57 6 58
REMARK SMILES IDX 7 59 5 61 4 62 3 63 2 64 1 65 10 66 11 67 12 68 13 69 22 71
REMARK SMILES IDX 23 72 24 73 25 74 26 75 27 76 28 77
REMARK H PARENT 31 4 36 13 59 34 20 49 16 55 8 60 13 70 27 78 27 79 28 80
REMARK H PARENT 28 81
REMARK Flexibility Score:  259.900
ROOT
ATOM      1  O   UNL     1      -2.437   0.040   6.643  1.00  0.00    -0.273 OA
ATOM      2  N   UNL     1      -1.793  -1.993   5.817  1.00  0.00    -0.343 N 
ATOM      3  C   UNL     1      -2.297  -1.173   6.803  1.00  0.00     0.243 C 
ATOM      4  H   UNL     1      -1.705  -2.989   5.979  1.00  0.00     0.164 HD
ENDROOT
BRANCH   2   5
ATOM      5  C   UNL     1      -1.289  -1.430   4.569  1.00  0.00     0.171 C 
ATOM      6  C   UNL     1      -0.302  -2.639   2.126  1.00  0.00     0.214 C 
ATOM      7  N   UNL     1       0.626  -2.321   3.186  1.00  0.00    -0.303 N 
ATOM      8  C   UNL     1      -1.504  -1.709   2.079  1.00  0.00     0.057 C 
ATOM      9  C   UNL     1       0.215  -1.790   4.398  1.00  0.00     0.247 C 
ATOM     10  C   UNL     1      -2.230  -1.742   3.407  1.00  0.00     0.040 C 
ATOM     11  O   UNL     1       1.004  -1.601   5.333  1.00  0.00    -0.272 OA
BRANCH   6  12
ATOM     12  O   UNL     1      -0.719  -3.973   2.303  1.00  0.00    -0.373 OA
ATOM     13  H   UNL     1      -1.636  -4.036   1.960  1.00  0.00     0.213 HD
ENDBRANCH   6  12
BRANCH   7  14
ATOM     14  C   UNL     1       2.034  -2.724   2.987  1.00  0.00     0.177 C 
BRANCH  14  15
ATOM     15  C   UNL     1       3.056  -1.570   3.007  1.00  0.00     0.038 C 
BRANCH  15  16
ATOM     16  C   UNL     1       2.743  -0.264   2.245  1.00  0.00    -0.015 C 
ATOM     17  C   UNL     1       2.419  -0.512   0.769  1.00  0.00     0.007 C 
ATOM     18  C   UNL     1       3.949   0.682   2.320  1.00  0.00     0.007 C 
ENDBRANCH  15  16
ENDBRANCH  14  15
BRANCH  14  19
ATOM     19  C   UNL     1       2.276  -4.160   3.568  1.00  0.00     0.245 C 
ATOM     20  O   UNL     1       2.643  -4.230   4.753  1.00  0.00    -0.272 OA
BRANCH  19  21
ATOM     21  N   UNL     1       2.213  -5.318   2.813  1.00  0.00    -0.332 N 
ATOM     22  C   UNL     1       1.857  -6.633   3.315  1.00  0.00     0.147 C 
BRANCH  21  23
ATOM     23  C   UNL     1       2.547  -5.224   1.365  1.00  0.00     0.178 C 
BRANCH  23  24
ATOM     24  C   UNL     1       4.045  -5.380   1.036  1.00  0.00     0.070 C 
BRANCH  24  25
ATOM     25  C   UNL     1       4.897  -4.134   1.094  1.00  0.00    -0.045 A 
ATOM     26  C   UNL     1       4.861  -3.192   0.058  1.00  0.00     0.004 A 
ATOM     27  C   UNL     1       5.742  -3.904   2.190  1.00  0.00     0.004 A 
ATOM     28  C   UNL     1       5.664  -2.050   0.111  1.00  0.00     0.000 A 
ATOM     29  C   UNL     1       6.543  -2.762   2.242  1.00  0.00     0.000 A 
ATOM     30  C   UNL     1       6.505  -1.837   1.201  1.00  0.00     0.000 A 
ENDBRANCH  24  25
ENDBRANCH  23  24
BRANCH  23  31
ATOM     31  C   UNL     1       1.593  -6.052   0.471  1.00  0.00     0.243 C 
ATOM     32  O   UNL     1       0.383  -6.146   0.659  1.00  0.00    -0.273 OA
ATOM     33  N   UNL     1       2.251  -6.836  -0.462  1.00  0.00    -0.341 N 
ATOM     34  H   UNL     1       3.262  -6.717  -0.569  1.00  0.00     0.164 HD
BRANCH  33  35
ATOM     35  C   UNL     1       1.560  -7.789  -1.335  1.00  0.00     0.194 C 
BRANCH  35  36
ATOM     36  C   UNL     1       1.808  -9.279  -0.970  1.00  0.00     0.017 C 
ATOM     37  C   UNL     1       0.567  -9.908  -0.313  1.00  0.00     0.010 C 
ATOM     38  C   UNL     1       2.986  -9.478  -0.008  1.00  0.00     0.010 C 
ENDBRANCH  35  36
BRANCH  35  39
ATOM     39  C   UNL     1       1.814  -7.511  -2.843  1.00  0.00     0.329 C 
ATOM     40  O   UNL     1       1.107  -6.789  -3.536  1.00  0.00    -0.250 OA
BRANCH  39  41
ATOM     41  O   UNL     1       2.967  -8.093  -3.292  1.00  0.00    -0.458 OA
BRANCH  41  42
ATOM     42  C   UNL     1       2.958  -8.560  -4.662  1.00  0.00     0.205 CG0
ATOM     43  C   UNL     1       2.247  -9.912  -4.676  1.00  0.00     0.056 C 
ATOM     44  G   UNL     1       4.414  -8.655  -5.159  1.00  0.00     0.000 G0
ENDBRANCH  41  42
ENDBRANCH  39  41
ENDBRANCH  35  39
ENDBRANCH  33  35
ENDBRANCH  23  31
ENDBRANCH  21  23
ENDBRANCH  19  21
ENDBRANCH  14  19
ENDBRANCH   7  14
ENDBRANCH   2   5
BRANCH   3  45
ATOM     45  C   UNL     1      -2.691  -1.879   8.107  1.00  0.00     0.171 C 
BRANCH  45  46
ATOM     46  N   UNL     1      -2.904  -0.817   9.081  1.00  0.00    -0.342 N 
ATOM     47  C   UNL     1      -4.094  -0.656   9.746  1.00  0.00     0.247 C 
ATOM     48  O   UNL     1      -5.039  -1.437   9.624  1.00  0.00    -0.273 OA
ATOM     49  H   UNL     1      -2.128  -0.181   9.255  1.00  0.00     0.164 HD
BRANCH  47  50
ATOM     50  C   UNL     1      -4.176   0.590  10.640  1.00  0.00     0.212 CG0
ATOM     51  G   UNL     1      -4.763   0.154  11.997  1.00  0.00     0.000 G0
BRANCH  50  52
ATOM     52  N   UNL     1      -2.807   1.090  10.737  1.00  0.00    -0.339 N 
ATOM     53  C   UNL     1      -2.386   2.256  10.146  1.00  0.00     0.243 C 
ATOM     54  O   UNL     1      -3.119   2.944   9.441  1.00  0.00    -0.273 OA
ATOM     55  H   UNL     1      -2.123   0.507  11.215  1.00  0.00     0.164 HD
BRANCH  53  56
ATOM     56  C   UNL     1      -0.878   2.535  10.313  1.00  0.00     0.182 C 
BRANCH  56  57
ATOM     57  N   UNL     1      -0.188   2.490   9.020  1.00  0.00    -0.344 N 
ATOM     58  C   UNL     1       0.622   3.510   8.583  1.00  0.00     0.220 C 
ATOM     59  O   UNL     1       0.766   4.557   9.205  1.00  0.00    -0.275 OA
ATOM     60  H   UNL     1      -0.199   1.604   8.523  1.00  0.00     0.164 HD
BRANCH  58  61
ATOM     61  C   UNL     1       1.279   3.224   7.245  1.00  0.00     0.100 C 
BRANCH  61  62
ATOM     62  C   UNL     1       1.485   1.735   6.965  1.00  0.00     0.010 C 
BRANCH  62  63
ATOM     63  C   UNL     1       2.414   1.442   5.780  1.00  0.00     0.000 C 
BRANCH  63  64
ATOM     64  C   UNL     1       3.680   0.671   6.152  1.00  0.00    -0.003 C 
ATOM     65  C   UNL     1       3.474  -0.160   7.410  1.00  0.00     0.004 C 
ENDBRANCH  63  64
ENDBRANCH  62  63
ENDBRANCH  61  62
ENDBRANCH  58  61
ENDBRANCH  56  57
BRANCH  56  66
ATOM     66  C   UNL     1      -0.245   1.595  11.338  1.00  0.00     0.157 C 
BRANCH  66  67
ATOM     67  C   UNL     1       1.243   1.513  11.154  1.00  0.00     0.305 C 
ATOM     68  O   UNL     1       1.871   0.587  10.663  1.00  0.00    -0.252 OA
BRANCH  67  69
ATOM     69  O   UNL     1       1.870   2.635  11.555  1.00  0.00    -0.481 OA
ATOM     70  H   UNL     1       1.150   3.241  11.829  1.00  0.00     0.296 HD
ENDBRANCH  67  69
ENDBRANCH  66  67
ENDBRANCH  56  66
ENDBRANCH  53  56
ENDBRANCH  50  52
ENDBRANCH  47  50
ENDBRANCH  45  46
BRANCH  45  71
ATOM     71  C   UNL     1      -1.581  -2.839   8.551  1.00  0.00     0.037 C 
BRANCH  71  72
ATOM     72  C   UNL     1      -2.005  -4.305   8.428  1.00  0.00     0.026 C 
BRANCH  72  73
ATOM     73  C   UNL     1      -1.190  -5.036   7.363  1.00  0.00     0.146 C 
BRANCH  73  74
ATOM     74  N   UNL     1       0.141  -4.436   7.328  1.00  0.00    -0.254 NA
ATOM     75  C   UNL     1       1.148  -5.202   7.533  1.00  0.00     0.185 C 
ATOM     76  N   UNL     1       2.385  -4.679   7.507  1.00  0.00    -0.370 N 
ATOM     77  N   UNL     1       1.169  -6.522   7.786  1.00  0.00    -0.370 N 
ATOM     78  H   UNL     1       2.459  -3.687   7.330  1.00  0.00     0.159 HD
ATOM     79  H   UNL     1       3.205  -5.182   7.799  1.00  0.00     0.159 HD
ATOM     80  H   UNL     1       0.310  -7.050   7.831  1.00  0.00     0.159 HD
ATOM     81  H   UNL     1       2.031  -7.041   7.815  1.00  0.00     0.159 HD
ENDBRANCH  73  74
ENDBRANCH  72  73
ENDBRANCH  71  72
ENDBRANCH  45  71
ENDBRANCH   3  45
TORSDOF 20
ENDMDL
MODEL 14
REMARK VINA RESULT:    -5.780      7.525     11.351
REMARK INTER + INTRA:         -24.656
REMARK INTER:                 -18.669
REMARK INTRA:                  -5.988
REMARK UNBOUND:                -8.064
REMARK SMILES CCCCCC(=O)N[C@H](CC(=O)O)C(=O)N[C@H]1C(=O)N[C@H](CCCN=C(N)N)C(=O)N[C@@H]2CC[C@H](O)N(C2=O)[C@@H](CC(C)C)C(=O)N(C)[C@@H](Cc2ccccc2)C(=O)N[C@H](C(C)C)C(=O)O[C@@H]1C
REMARK SMILES IDX 30 1 31 2 29 3 32 5 35 6 37 7 34 8 38 9 33 10 39 11 36 12
REMARK SMILES IDX 40 14 41 15 42 16 43 17 44 18 45 19 46 20 47 21 48 22 49 23
REMARK SMILES IDX 50 24 51 25 52 26 56 27 53 28 55 29 54 30 57 31 58 32 59 33
REMARK SMILES IDX 60 35 61 36 62 37 63 38 64 39 65 40 66 41 67 42 68 43 21 45
REMARK SMILES IDX 20 46 18 47 19 48 17 50 16 52 14 53 15 54 9 56 8 57 6 58
REMARK SMILES IDX 7 59 5 61 4 62 3 63 2 64 1 65 10 66 11 67 12 68 13 69 22 71
REMARK SMILES IDX 23 72 24 73 25 74 26 75 27 76 28 77
REMARK H PARENT 31 4 36 13 59 34 20 49 16 55 8 60 13 70 27 78 27 79 28 80
REMARK H PARENT 28 81
REMARK Flexibility Score:  259.900
ROOT
ATOM      1  O   UNL     1       8.290  -1.157  -0.321  1.00  0.00    -0.273 OA
ATOM      2  N   UNL     1       7.011   0.288  -1.548  1.00  0.00    -0.343 N 
ATOM      3  C   UNL     1       8.176  -0.399  -1.284  1.00  0.00     0.243 C 
ATOM      4  H   UNL     1       6.949   0.892  -2.358  1.00  0.00     0.164 HD
ENDROOT
BRANCH   2   5
ATOM      5  C   UNL     1       5.890   0.233  -0.616  1.00  0.00     0.171 C 
ATOM      6  C   UNL     1       3.131   1.104  -0.808  1.00  0.00     0.214 C 
ATOM      7  N   UNL     1       4.127   2.009  -0.283  1.00  0.00    -0.303 N 
ATOM      8  C   UNL     1       3.447  -0.359  -0.539  1.00  0.00     0.057 C 
ATOM      9  C   UNL     1       5.470   1.676  -0.212  1.00  0.00     0.247 C 
ATOM     10  C   UNL     1       4.799  -0.707  -1.124  1.00  0.00     0.040 C 
ATOM     11  O   UNL     1       6.329   2.487   0.158  1.00  0.00    -0.272 OA
BRANCH   6  12
ATOM     12  O   UNL     1       3.023   1.338  -2.193  1.00  0.00    -0.373 OA
ATOM     13  H   UNL     1       2.704   2.259  -2.305  1.00  0.00     0.213 HD
ENDBRANCH   6  12
BRANCH   7  14
ATOM     14  C   UNL     1       3.680   3.380   0.044  1.00  0.00     0.177 C 
BRANCH  14  15
ATOM     15  C   UNL     1       3.402   4.287  -1.170  1.00  0.00     0.038 C 
BRANCH  15  16
ATOM     16  C   UNL     1       4.568   5.060  -1.826  1.00  0.00    -0.015 C 
ATOM     17  C   UNL     1       4.121   6.400  -2.418  1.00  0.00     0.007 C 
ATOM     18  C   UNL     1       5.180   4.217  -2.952  1.00  0.00     0.007 C 
ENDBRANCH  15  16
ENDBRANCH  14  15
BRANCH  14  19
ATOM     19  C   UNL     1       2.865   3.380   1.383  1.00  0.00     0.245 C 
ATOM     20  O   UNL     1       1.657   3.102   1.302  1.00  0.00    -0.272 OA
BRANCH  19  21
ATOM     21  N   UNL     1       3.384   3.776   2.603  1.00  0.00    -0.332 N 
ATOM     22  C   UNL     1       4.446   4.749   2.791  1.00  0.00     0.147 C 
BRANCH  21  23
ATOM     23  C   UNL     1       2.824   3.152   3.833  1.00  0.00     0.178 C 
BRANCH  23  24
ATOM     24  C   UNL     1       3.875   2.541   4.782  1.00  0.00     0.070 C 
BRANCH  24  25
ATOM     25  C   UNL     1       3.569   1.179   5.362  1.00  0.00    -0.045 A 
ATOM     26  C   UNL     1       2.580   0.365   4.797  1.00  0.00     0.004 A 
ATOM     27  C   UNL     1       4.272   0.714   6.484  1.00  0.00     0.004 A 
ATOM     28  C   UNL     1       2.291  -0.885   5.350  1.00  0.00     0.000 A 
ATOM     29  C   UNL     1       3.983  -0.536   7.034  1.00  0.00     0.000 A 
ATOM     30  C   UNL     1       2.990  -1.333   6.468  1.00  0.00     0.000 A 
ENDBRANCH  24  25
ENDBRANCH  23  24
BRANCH  23  31
ATOM     31  C   UNL     1       1.756   4.033   4.525  1.00  0.00     0.243 C 
ATOM     32  O   UNL     1       0.710   4.391   3.990  1.00  0.00    -0.273 OA
ATOM     33  N   UNL     1       2.166   4.543   5.745  1.00  0.00    -0.341 N 
ATOM     34  H   UNL     1       3.051   4.212   6.137  1.00  0.00     0.164 HD
BRANCH  33  35
ATOM     35  C   UNL     1       1.367   5.496   6.521  1.00  0.00     0.194 C 
BRANCH  35  36
ATOM     36  C   UNL     1       1.767   6.983   6.307  1.00  0.00     0.017 C 
ATOM     37  C   UNL     1       0.678   7.749   5.535  1.00  0.00     0.010 C 
ATOM     38  C   UNL     1       3.081   7.150   5.534  1.00  0.00     0.010 C 
ENDBRANCH  35  36
BRANCH  35  39
ATOM     39  C   UNL     1       1.295   5.126   8.029  1.00  0.00     0.329 C 
ATOM     40  O   UNL     1       0.983   4.018   8.450  1.00  0.00    -0.250 OA
BRANCH  39  41
ATOM     41  O   UNL     1       1.704   6.152   8.836  1.00  0.00    -0.458 OA
BRANCH  41  42
ATOM     42  C   UNL     1       0.849   6.461   9.963  1.00  0.00     0.205 CG0
ATOM     43  C   UNL     1      -0.337   7.261   9.426  1.00  0.00     0.056 C 
ATOM     44  G   UNL     1       1.671   7.249  11.002  1.00  0.00     0.000 G0
ENDBRANCH  41  42
ENDBRANCH  39  41
ENDBRANCH  35  39
ENDBRANCH  33  35
ENDBRANCH  23  31
ENDBRANCH  21  23
ENDBRANCH  19  21
ENDBRANCH  14  19
ENDBRANCH   7  14
ENDBRANCH   2   5
BRANCH   3  45
ATOM     45  C   UNL     1       9.315  -0.170  -2.287  1.00  0.00     0.171 C 
BRANCH  45  46
ATOM     46  N   UNL     1       9.873  -1.488  -2.557  1.00  0.00    -0.342 N 
ATOM     47  C   UNL     1       9.324  -2.346  -3.476  1.00  0.00     0.247 C 
ATOM     48  O   UNL     1       8.368  -2.039  -4.189  1.00  0.00    -0.273 OA
ATOM     49  H   UNL     1      10.700  -1.761  -2.028  1.00  0.00     0.164 HD
BRANCH  47  50
ATOM     50  C   UNL     1       9.971  -3.737  -3.535  1.00  0.00     0.212 CG0
ATOM     51  G   UNL     1      11.316  -3.596  -4.276  1.00  0.00     0.000 G0
BRANCH  50  52
ATOM     52  N   UNL     1      10.120  -4.157  -2.145  1.00  0.00    -0.339 N 
ATOM     53  C   UNL     1       9.142  -4.825  -1.448  1.00  0.00     0.243 C 
ATOM     54  O   UNL     1       8.040  -5.074  -1.929  1.00  0.00    -0.273 OA
ATOM     55  H   UNL     1      10.969  -3.881  -1.656  1.00  0.00     0.164 HD
BRANCH  53  56
ATOM     56  C   UNL     1       9.493  -5.087   0.031  1.00  0.00     0.182 C 
BRANCH  56  57
ATOM     57  N   UNL     1       8.961  -4.027   0.894  1.00  0.00    -0.344 N 
ATOM     58  C   UNL     1       7.722  -4.109   1.482  1.00  0.00     0.220 C 
ATOM     59  O   UNL     1       6.947  -5.036   1.270  1.00  0.00    -0.275 OA
ATOM     60  H   UNL     1       9.607  -3.295   1.175  1.00  0.00     0.164 HD
BRANCH  58  61
ATOM     61  C   UNL     1       7.403  -2.928   2.379  1.00  0.00     0.100 C 
BRANCH  61  62
ATOM     62  C   UNL     1       6.005  -2.350   2.163  1.00  0.00     0.010 C 
BRANCH  62  63
ATOM     63  C   UNL     1       5.110  -2.386   3.408  1.00  0.00     0.000 C 
BRANCH  63  64
ATOM     64  C   UNL     1       5.450  -3.506   4.391  1.00  0.00    -0.003 C 
ATOM     65  C   UNL     1       4.207  -4.286   4.795  1.00  0.00     0.004 C 
ENDBRANCH  63  64
ENDBRANCH  62  63
ENDBRANCH  61  62
ENDBRANCH  58  61
ENDBRANCH  56  57
BRANCH  56  66
ATOM     66  C   UNL     1      10.995  -5.287   0.223  1.00  0.00     0.157 C 
BRANCH  66  67
ATOM     67  C   UNL     1      11.371  -6.735   0.095  1.00  0.00     0.305 C 
ATOM     68  O   UNL     1      10.844  -7.682   0.659  1.00  0.00    -0.252 OA
BRANCH  67  69
ATOM     69  O   UNL     1      12.369  -6.928  -0.788  1.00  0.00    -0.481 OA
ATOM     70  H   UNL     1      13.154  -6.512  -0.373  1.00  0.00     0.296 HD
ENDBRANCH  67  69
ENDBRANCH  66  67
ENDBRANCH  56  66
ENDBRANCH  53  56
ENDBRANCH  50  52
ENDBRANCH  47  50
ENDBRANCH  45  46
BRANCH  45  71
ATOM     71  C   UNL     1      10.364   0.778  -1.696  1.00  0.00     0.037 C 
BRANCH  71  72
ATOM     72  C   UNL     1      10.065   2.243  -2.022  1.00  0.00     0.026 C 
BRANCH  72  73
ATOM     73  C   UNL     1      11.241   2.912  -2.730  1.00  0.00     0.146 C 
BRANCH  73  74
ATOM     74  N   UNL     1      12.360   1.975  -2.720  1.00  0.00    -0.254 NA
ATOM     75  C   UNL     1      13.157   1.982  -3.723  1.00  0.00     0.185 C 
ATOM     76  N   UNL     1      14.197   1.133  -3.742  1.00  0.00    -0.370 N 
ATOM     77  N   UNL     1      13.120   2.750  -4.827  1.00  0.00    -0.370 N 
ATOM     78  H   UNL     1      14.295   0.512  -2.951  1.00  0.00     0.159 HD
ATOM     79  H   UNL     1      14.774   0.981  -4.550  1.00  0.00     0.159 HD
ATOM     80  H   UNL     1      12.393   3.439  -4.948  1.00  0.00     0.159 HD
ATOM     81  H   UNL     1      13.870   2.747  -5.498  1.00  0.00     0.159 HD
ENDBRANCH  73  74
ENDBRANCH  72  73
ENDBRANCH  71  72
ENDBRANCH  45  71
ENDBRANCH   3  45
TORSDOF 20
ENDMDL
MODEL 15
REMARK VINA RESULT:    -5.770      1.695      2.598
REMARK INTER + INTRA:         -24.628
REMARK INTER:                 -16.808
REMARK INTRA:                  -7.820
REMARK UNBOUND:                -8.064
REMARK SMILES CCCCCC(=O)N[C@H](CC(=O)O)C(=O)N[C@H]1C(=O)N[C@H](CCCN=C(N)N)C(=O)N[C@@H]2CC[C@H](O)N(C2=O)[C@@H](CC(C)C)C(=O)N(C)[C@@H](Cc2ccccc2)C(=O)N[C@H](C(C)C)C(=O)O[C@@H]1C
REMARK SMILES IDX 30 1 31 2 29 3 32 5 35 6 37 7 34 8 38 9 33 10 39 11 36 12
REMARK SMILES IDX 40 14 41 15 42 16 43 17 44 18 45 19 46 20 47 21 48 22 49 23
REMARK SMILES IDX 50 24 51 25 52 26 56 27 53 28 55 29 54 30 57 31 58 32 59 33
REMARK SMILES IDX 60 35 61 36 62 37 63 38 64 39 65 40 66 41 67 42 68 43 21 45
REMARK SMILES IDX 20 46 18 47 19 48 17 50 16 52 14 53 15 54 9 56 8 57 6 58
REMARK SMILES IDX 7 59 5 61 4 62 3 63 2 64 1 65 10 66 11 67 12 68 13 69 22 71
REMARK SMILES IDX 23 72 24 73 25 74 26 75 27 76 28 77
REMARK H PARENT 31 4 36 13 59 34 20 49 16 55 8 60 13 70 27 78 27 79 28 80
REMARK H PARENT 28 81
REMARK Flexibility Score:  259.900
ROOT
ATOM      1  O   UNL     1       0.979  -9.196   3.126  1.00  0.00    -0.273 OA
ATOM      2  N   UNL     1      -0.191  -7.826   4.534  1.00  0.00    -0.343 N 
ATOM      3  C   UNL     1      -0.100  -8.818   3.582  1.00  0.00     0.243 C 
ATOM      4  H   UNL     1      -1.095  -7.551   4.897  1.00  0.00     0.164 HD
ENDROOT
BRANCH   2   5
ATOM      5  C   UNL     1       0.997  -7.092   4.957  1.00  0.00     0.171 C 
ATOM      6  C   UNL     1       1.488  -5.232   7.126  1.00  0.00     0.214 C 
ATOM      7  N   UNL     1       1.066  -4.728   5.839  1.00  0.00    -0.303 N 
ATOM      8  C   UNL     1       2.294  -6.518   7.034  1.00  0.00     0.057 C 
ATOM      9  C   UNL     1       0.766  -5.565   4.776  1.00  0.00     0.247 C 
ATOM     10  C   UNL     1       1.485  -7.579   6.321  1.00  0.00     0.040 C 
ATOM     11  O   UNL     1       0.322  -5.131   3.705  1.00  0.00    -0.272 OA
BRANCH   6  12
ATOM     12  O   UNL     1       0.334  -5.429   7.910  1.00  0.00    -0.373 OA
ATOM     13  H   UNL     1       0.239  -4.640   8.485  1.00  0.00     0.213 HD
ENDBRANCH   6  12
BRANCH   7  14
ATOM     14  C   UNL     1       0.821  -3.274   5.736  1.00  0.00     0.177 C 
BRANCH  14  15
ATOM     15  C   UNL     1      -0.631  -2.832   6.005  1.00  0.00     0.038 C 
BRANCH  15  16
ATOM     16  C   UNL     1      -1.283  -1.768   5.095  1.00  0.00    -0.015 C 
ATOM     17  C   UNL     1      -0.917  -1.957   3.620  1.00  0.00     0.007 C 
ATOM     18  C   UNL     1      -0.829  -0.368   5.527  1.00  0.00     0.007 C 
ENDBRANCH  15  16
ENDBRANCH  14  15
BRANCH  14  19
ATOM     19  C   UNL     1       2.104  -2.475   6.154  1.00  0.00     0.245 C 
ATOM     20  O   UNL     1       2.065  -1.889   7.249  1.00  0.00    -0.272 OA
BRANCH  19  21
ATOM     21  N   UNL     1       3.205  -2.303   5.336  1.00  0.00    -0.332 N 
ATOM     22  C   UNL     1       4.163  -3.335   4.982  1.00  0.00     0.147 C 
BRANCH  21  23
ATOM     23  C   UNL     1       3.447  -0.946   4.772  1.00  0.00     0.178 C 
BRANCH  23  24
ATOM     24  C   UNL     1       2.389  -0.471   3.755  1.00  0.00     0.070 C 
BRANCH  24  25
ATOM     25  C   UNL     1       2.781  -0.484   2.296  1.00  0.00    -0.045 A 
ATOM     26  C   UNL     1       1.883  -0.061   1.308  1.00  0.00     0.004 A 
ATOM     27  C   UNL     1       4.055  -0.926   1.910  1.00  0.00     0.004 A 
ATOM     28  C   UNL     1       2.247  -0.092  -0.040  1.00  0.00     0.000 A 
ATOM     29  C   UNL     1       4.418  -0.955   0.562  1.00  0.00     0.000 A 
ATOM     30  C   UNL     1       3.512  -0.540  -0.412  1.00  0.00     0.000 A 
ENDBRANCH  24  25
ENDBRANCH  23  24
BRANCH  23  31
ATOM     31  C   UNL     1       3.829   0.097   5.849  1.00  0.00     0.243 C 
ATOM     32  O   UNL     1       4.775  -0.030   6.623  1.00  0.00    -0.273 OA
ATOM     33  N   UNL     1       2.897   1.110   5.994  1.00  0.00    -0.341 N 
ATOM     34  H   UNL     1       2.127   1.160   5.322  1.00  0.00     0.164 HD
BRANCH  33  35
ATOM     35  C   UNL     1       2.991   2.140   7.032  1.00  0.00     0.194 C 
BRANCH  35  36
ATOM     36  C   UNL     1       1.660   2.397   7.794  1.00  0.00     0.017 C 
ATOM     37  C   UNL     1       1.860   3.397   8.946  1.00  0.00     0.010 C 
ATOM     38  C   UNL     1       1.050   1.123   8.391  1.00  0.00     0.010 C 
ENDBRANCH  35  36
BRANCH  35  39
ATOM     39  C   UNL     1       3.625   3.459   6.510  1.00  0.00     0.329 C 
ATOM     40  O   UNL     1       3.049   4.253   5.775  1.00  0.00    -0.250 OA
BRANCH  39  41
ATOM     41  O   UNL     1       4.870   3.680   7.031  1.00  0.00    -0.458 OA
BRANCH  41  42
ATOM     42  C   UNL     1       5.042   4.907   7.781  1.00  0.00     0.205 CG0
ATOM     43  C   UNL     1       6.051   5.765   7.021  1.00  0.00     0.056 C 
ATOM     44  G   UNL     1       5.523   4.551   9.202  1.00  0.00     0.000 G0
ENDBRANCH  41  42
ENDBRANCH  39  41
ENDBRANCH  35  39
ENDBRANCH  33  35
ENDBRANCH  23  31
ENDBRANCH  21  23
ENDBRANCH  19  21
ENDBRANCH  14  19
ENDBRANCH   7  14
ENDBRANCH   2   5
BRANCH   3  45
ATOM     45  C   UNL     1      -1.436  -9.434   3.146  1.00  0.00     0.171 C 
BRANCH  45  46
ATOM     46  N   UNL     1      -1.125 -10.283   2.003  1.00  0.00    -0.342 N 
ATOM     47  C   UNL     1      -1.678 -11.527   1.838  1.00  0.00     0.247 C 
ATOM     48  O   UNL     1      -2.529 -11.987   2.599  1.00  0.00    -0.273 OA
ATOM     49  H   UNL     1      -0.466  -9.917   1.318  1.00  0.00     0.164 HD
BRANCH  47  50
ATOM     50  C   UNL     1      -1.137 -12.325   0.642  1.00  0.00     0.212 CG0
ATOM     51  G   UNL     1      -2.344 -12.771  -0.207  1.00  0.00     0.000 G0
BRANCH  50  52
ATOM     52  N   UNL     1      -0.241 -11.412  -0.062  1.00  0.00    -0.339 N 
ATOM     53  C   UNL     1       0.594 -11.808  -1.079  1.00  0.00     0.243 C 
ATOM     54  O   UNL     1       0.690 -12.978  -1.439  1.00  0.00    -0.273 OA
ATOM     55  H   UNL     1      -0.194 -10.450   0.266  1.00  0.00     0.164 HD
BRANCH  53  56
ATOM     56  C   UNL     1       1.509 -10.686  -1.611  1.00  0.00     0.182 C 
BRANCH  56  57
ATOM     57  N   UNL     1       1.261  -9.425  -0.905  1.00  0.00    -0.344 N 
ATOM     58  C   UNL     1       2.232  -8.789  -0.171  1.00  0.00     0.220 C 
ATOM     59  O   UNL     1       3.348  -9.265   0.006  1.00  0.00    -0.275 OA
ATOM     60  H   UNL     1       0.386  -8.948  -1.109  1.00  0.00     0.164 HD
BRANCH  58  61
ATOM     61  C   UNL     1       1.771  -7.471   0.423  1.00  0.00     0.100 C 
BRANCH  61  62
ATOM     62  C   UNL     1       2.239  -6.245  -0.361  1.00  0.00     0.010 C 
BRANCH  62  63
ATOM     63  C   UNL     1       3.413  -5.497   0.286  1.00  0.00     0.000 C 
BRANCH  63  64
ATOM     64  C   UNL     1       3.008  -4.558   1.421  1.00  0.00    -0.003 C 
ATOM     65  C   UNL     1       1.802  -3.713   1.039  1.00  0.00     0.004 C 
ENDBRANCH  63  64
ENDBRANCH  62  63
ENDBRANCH  61  62
ENDBRANCH  58  61
ENDBRANCH  56  57
BRANCH  56  66
ATOM     66  C   UNL     1       1.384 -10.533  -3.126  1.00  0.00     0.157 C 
BRANCH  66  67
ATOM     67  C   UNL     1       0.471  -9.396  -3.485  1.00  0.00     0.305 C 
ATOM     68  O   UNL     1      -0.748  -9.384  -3.411  1.00  0.00    -0.252 OA
BRANCH  67  69
ATOM     69  O   UNL     1       1.148  -8.299  -3.873  1.00  0.00    -0.481 OA
ATOM     70  H   UNL     1       0.534  -7.554  -3.706  1.00  0.00     0.296 HD
ENDBRANCH  67  69
ENDBRANCH  66  67
ENDBRANCH  56  66
ENDBRANCH  53  56
ENDBRANCH  50  52
ENDBRANCH  47  50
ENDBRANCH  45  46
BRANCH  45  71
ATOM     71  C   UNL     1      -2.437  -8.333   2.777  1.00  0.00     0.037 C 
BRANCH  71  72
ATOM     72  C   UNL     1      -3.882  -8.748   3.065  1.00  0.00     0.026 C 
BRANCH  72  73
ATOM     73  C   UNL     1      -4.594  -9.215   1.798  1.00  0.00     0.146 C 
BRANCH  73  74
ATOM     74  N   UNL     1      -3.765  -8.844   0.656  1.00  0.00    -0.254 NA
ATOM     75  C   UNL     1      -3.691  -9.667  -0.324  1.00  0.00     0.185 C 
ATOM     76  N   UNL     1      -2.937  -9.353  -1.390  1.00  0.00    -0.370 N 
ATOM     77  N   UNL     1      -4.282 -10.866  -0.466  1.00  0.00    -0.370 N 
ATOM     78  H   UNL     1      -2.450  -8.469  -1.361  1.00  0.00     0.159 HD
ATOM     79  H   UNL     1      -2.716 -10.003  -2.123  1.00  0.00     0.159 HD
ATOM     80  H   UNL     1      -4.884 -11.231   0.257  1.00  0.00     0.159 HD
ATOM     81  H   UNL     1      -4.242 -11.375  -1.334  1.00  0.00     0.159 HD
ENDBRANCH  73  74
ENDBRANCH  72  73
ENDBRANCH  71  72
ENDBRANCH  45  71
ENDBRANCH   3  45
TORSDOF 20
ENDMDL
MODEL 16
REMARK VINA RESULT:    -5.751      2.762      3.840
REMARK INTER + INTRA:         -24.575
REMARK INTER:                 -18.027
REMARK INTRA:                  -6.548
REMARK UNBOUND:                -8.064
REMARK SMILES CCCCCC(=O)N[C@H](CC(=O)O)C(=O)N[C@H]1C(=O)N[C@H](CCCN=C(N)N)C(=O)N[C@@H]2CC[C@H](O)N(C2=O)[C@@H](CC(C)C)C(=O)N(C)[C@@H](Cc2ccccc2)C(=O)N[C@H](C(C)C)C(=O)O[C@@H]1C
REMARK SMILES IDX 30 1 31 2 29 3 32 5 35 6 37 7 34 8 38 9 33 10 39 11 36 12
REMARK SMILES IDX 40 14 41 15 42 16 43 17 44 18 45 19 46 20 47 21 48 22 49 23
REMARK SMILES IDX 50 24 51 25 52 26 56 27 53 28 55 29 54 30 57 31 58 32 59 33
REMARK SMILES IDX 60 35 61 36 62 37 63 38 64 39 65 40 66 41 67 42 68 43 21 45
REMARK SMILES IDX 20 46 18 47 19 48 17 50 16 52 14 53 15 54 9 56 8 57 6 58
REMARK SMILES IDX 7 59 5 61 4 62 3 63 2 64 1 65 10 66 11 67 12 68 13 69 22 71
REMARK SMILES IDX 23 72 24 73 25 74 26 75 27 76 28 77
REMARK H PARENT 31 4 36 13 59 34 20 49 16 55 8 60 13 70 27 78 27 79 28 80
REMARK H PARENT 28 81
REMARK Flexibility Score:  259.900
ROOT
ATOM      1  O   UNL     1      -0.319  -6.325   1.717  1.00  0.00    -0.273 OA
ATOM      2  N   UNL     1      -0.570  -6.873   3.924  1.00  0.00    -0.343 N 
ATOM      3  C   UNL     1      -0.804  -7.060   2.578  1.00  0.00     0.243 C 
ATOM      4  H   UNL     1      -0.974  -7.506   4.603  1.00  0.00     0.164 HD
ENDROOT
BRANCH   2   5
ATOM      5  C   UNL     1       0.175  -5.709   4.393  1.00  0.00     0.171 C 
ATOM      6  C   UNL     1       0.975  -4.824   7.035  1.00  0.00     0.214 C 
ATOM      7  N   UNL     1      -0.285  -4.378   6.488  1.00  0.00    -0.303 N 
ATOM      8  C   UNL     1       2.030  -5.093   5.974  1.00  0.00     0.057 C 
ATOM      9  C   UNL     1      -0.751  -4.803   5.254  1.00  0.00     0.247 C 
ATOM     10  C   UNL     1       1.518  -6.123   4.991  1.00  0.00     0.040 C 
ATOM     11  O   UNL     1      -1.870  -4.485   4.830  1.00  0.00    -0.272 OA
BRANCH   6  12
ATOM     12  O   UNL     1       0.729  -5.987   7.790  1.00  0.00    -0.373 OA
ATOM     13  H   UNL     1       0.767  -6.746   7.169  1.00  0.00     0.213 HD
ENDBRANCH   6  12
BRANCH   7  14
ATOM     14  C   UNL     1      -1.143  -3.554   7.365  1.00  0.00     0.177 C 
BRANCH  14  15
ATOM     15  C   UNL     1      -1.756  -4.296   8.569  1.00  0.00     0.038 C 
BRANCH  15  16
ATOM     16  C   UNL     1      -3.265  -4.152   8.863  1.00  0.00    -0.015 C 
ATOM     17  C   UNL     1      -3.719  -5.032  10.031  1.00  0.00     0.007 C 
ATOM     18  C   UNL     1      -4.076  -4.544   7.622  1.00  0.00     0.007 C 
ENDBRANCH  15  16
ENDBRANCH  14  15
BRANCH  14  19
ATOM     19  C   UNL     1      -0.642  -2.068   7.376  1.00  0.00     0.245 C 
ATOM     20  O   UNL     1       0.400  -1.834   8.010  1.00  0.00    -0.272 OA
BRANCH  19  21
ATOM     21  N   UNL     1      -1.346  -1.013   6.823  1.00  0.00    -0.332 N 
ATOM     22  C   UNL     1      -2.791  -0.938   6.696  1.00  0.00     0.147 C 
BRANCH  21  23
ATOM     23  C   UNL     1      -0.569   0.144   6.300  1.00  0.00     0.178 C 
BRANCH  23  24
ATOM     24  C   UNL     1      -0.733   0.402   4.788  1.00  0.00     0.070 C 
BRANCH  24  25
ATOM     25  C   UNL     1      -0.427  -0.747   3.857  1.00  0.00    -0.045 A 
ATOM     26  C   UNL     1      -1.412  -1.262   3.004  1.00  0.00     0.004 A 
ATOM     27  C   UNL     1       0.853  -1.321   3.837  1.00  0.00     0.004 A 
ATOM     28  C   UNL     1      -1.126  -2.336   2.158  1.00  0.00     0.000 A 
ATOM     29  C   UNL     1       1.138  -2.393   2.991  1.00  0.00     0.000 A 
ATOM     30  C   UNL     1       0.147  -2.902   2.154  1.00  0.00     0.000 A 
ENDBRANCH  24  25
ENDBRANCH  23  24
BRANCH  23  31
ATOM     31  C   UNL     1      -0.686   1.403   7.192  1.00  0.00     0.243 C 
ATOM     32  O   UNL     1      -1.035   1.380   8.370  1.00  0.00    -0.273 OA
ATOM     33  N   UNL     1      -0.542   2.590   6.495  1.00  0.00    -0.341 N 
ATOM     34  H   UNL     1      -0.255   2.546   5.514  1.00  0.00     0.164 HD
BRANCH  33  35
ATOM     35  C   UNL     1      -0.731   3.907   7.111  1.00  0.00     0.194 C 
BRANCH  35  36
ATOM     36  C   UNL     1      -1.774   4.803   6.386  1.00  0.00     0.017 C 
ATOM     37  C   UNL     1      -2.735   5.465   7.389  1.00  0.00     0.010 C 
ATOM     38  C   UNL     1      -2.629   4.035   5.371  1.00  0.00     0.010 C 
ENDBRANCH  35  36
BRANCH  35  39
ATOM     39  C   UNL     1       0.611   4.654   7.349  1.00  0.00     0.329 C 
ATOM     40  O   UNL     1       1.391   4.964   6.456  1.00  0.00    -0.250 OA
BRANCH  39  41
ATOM     41  O   UNL     1       0.785   5.007   8.659  1.00  0.00    -0.458 OA
BRANCH  41  42
ATOM     42  C   UNL     1       0.529   6.393   8.989  1.00  0.00     0.205 CG0
ATOM     43  C   UNL     1       1.875   7.039   9.311  1.00  0.00     0.056 C 
ATOM     44  G   UNL     1      -0.448   6.442  10.181  1.00  0.00     0.000 G0
ENDBRANCH  41  42
ENDBRANCH  39  41
ENDBRANCH  35  39
ENDBRANCH  33  35
ENDBRANCH  23  31
ENDBRANCH  21  23
ENDBRANCH  19  21
ENDBRANCH  14  19
ENDBRANCH   7  14
ENDBRANCH   2   5
BRANCH   3  45
ATOM     45  C   UNL     1      -1.692  -8.261   2.227  1.00  0.00     0.171 C 
BRANCH  45  46
ATOM     46  N   UNL     1      -1.013  -8.947   1.136  1.00  0.00    -0.342 N 
ATOM     47  C   UNL     1      -0.937 -10.315   1.060  1.00  0.00     0.247 C 
ATOM     48  O   UNL     1      -1.497 -11.061   1.865  1.00  0.00    -0.273 OA
ATOM     49  H   UNL     1      -0.583  -8.368   0.417  1.00  0.00     0.164 HD
BRANCH  47  50
ATOM     50  C   UNL     1      -0.077 -10.856  -0.090  1.00  0.00     0.212 CG0
ATOM     51  G   UNL     1      -0.951 -11.824  -0.913  1.00  0.00     0.000 G0
BRANCH  50  52
ATOM     52  N   UNL     1       0.349  -9.680  -0.845  1.00  0.00    -0.339 N 
ATOM     53  C   UNL     1       1.667  -9.353  -1.054  1.00  0.00     0.243 C 
ATOM     54  O   UNL     1       2.594 -10.000  -0.574  1.00  0.00    -0.273 OA
ATOM     55  H   UNL     1      -0.373  -9.043  -1.174  1.00  0.00     0.164 HD
BRANCH  53  56
ATOM     56  C   UNL     1       1.871  -8.021  -1.804  1.00  0.00     0.182 C 
BRANCH  56  57
ATOM     57  N   UNL     1       1.770  -6.881  -0.888  1.00  0.00    -0.344 N 
ATOM     58  C   UNL     1       2.855  -6.387  -0.205  1.00  0.00     0.220 C 
ATOM     59  O   UNL     1       3.964  -6.907  -0.256  1.00  0.00    -0.275 OA
ATOM     60  H   UNL     1       0.897  -6.360  -0.895  1.00  0.00     0.164 HD
BRANCH  58  61
ATOM     61  C   UNL     1       2.530  -5.168   0.639  1.00  0.00     0.100 C 
BRANCH  61  62
ATOM     62  C   UNL     1       3.398  -5.037   1.891  1.00  0.00     0.010 C 
BRANCH  62  63
ATOM     63  C   UNL     1       4.416  -3.891   1.831  1.00  0.00     0.000 C 
BRANCH  63  64
ATOM     64  C   UNL     1       5.422  -3.885   2.982  1.00  0.00    -0.003 C 
ATOM     65  C   UNL     1       4.766  -3.468   4.290  1.00  0.00     0.004 C 
ENDBRANCH  63  64
ENDBRANCH  62  63
ENDBRANCH  61  62
ENDBRANCH  58  61
ENDBRANCH  56  57
BRANCH  56  66
ATOM     66  C   UNL     1       0.917  -7.894  -2.990  1.00  0.00     0.157 C 
BRANCH  66  67
ATOM     67  C   UNL     1       1.541  -7.109  -4.108  1.00  0.00     0.305 C 
ATOM     68  O   UNL     1       2.644  -7.285  -4.601  1.00  0.00    -0.252 OA
BRANCH  67  69
ATOM     69  O   UNL     1       0.714  -6.161  -4.590  1.00  0.00    -0.481 OA
ATOM     70  H   UNL     1       0.043  -6.033  -3.887  1.00  0.00     0.296 HD
ENDBRANCH  67  69
ENDBRANCH  66  67
ENDBRANCH  56  66
ENDBRANCH  53  56
ENDBRANCH  50  52
ENDBRANCH  47  50
ENDBRANCH  45  46
BRANCH  45  71
ATOM     71  C   UNL     1      -3.090  -7.788   1.814  1.00  0.00     0.037 C 
BRANCH  71  72
ATOM     72  C   UNL     1      -4.129  -8.036   2.910  1.00  0.00     0.026 C 
BRANCH  72  73
ATOM     73  C   UNL     1      -3.612  -9.018   3.960  1.00  0.00     0.146 C 
BRANCH  73  74
ATOM     74  N   UNL     1      -4.028  -8.529   5.272  1.00  0.00    -0.254 NA
ATOM     75  C   UNL     1      -4.855  -9.243   5.942  1.00  0.00     0.185 C 
ATOM     76  N   UNL     1      -5.255  -8.821   7.152  1.00  0.00    -0.370 N 
ATOM     77  N   UNL     1      -5.421 -10.416   5.610  1.00  0.00    -0.370 N 
ATOM     78  H   UNL     1      -4.881  -7.940   7.476  1.00  0.00     0.159 HD
ATOM     79  H   UNL     1      -6.004  -9.248   7.668  1.00  0.00     0.159 HD
ATOM     80  H   UNL     1      -5.209 -10.857   4.728  1.00  0.00     0.159 HD
ATOM     81  H   UNL     1      -5.969 -10.943   6.269  1.00  0.00     0.159 HD
ENDBRANCH  73  74
ENDBRANCH  72  73
ENDBRANCH  71  72
ENDBRANCH  45  71
ENDBRANCH   3  45
TORSDOF 20
ENDMDL
MODEL 17
REMARK VINA RESULT:    -5.751      6.479     10.876
REMARK INTER + INTRA:         -24.573
REMARK INTER:                 -18.097
REMARK INTRA:                  -6.476
REMARK UNBOUND:                -8.064
REMARK SMILES CCCCCC(=O)N[C@H](CC(=O)O)C(=O)N[C@H]1C(=O)N[C@H](CCCN=C(N)N)C(=O)N[C@@H]2CC[C@H](O)N(C2=O)[C@@H](CC(C)C)C(=O)N(C)[C@@H](Cc2ccccc2)C(=O)N[C@H](C(C)C)C(=O)O[C@@H]1C
REMARK SMILES IDX 30 1 31 2 29 3 32 5 35 6 37 7 34 8 38 9 33 10 39 11 36 12
REMARK SMILES IDX 40 14 41 15 42 16 43 17 44 18 45 19 46 20 47 21 48 22 49 23
REMARK SMILES IDX 50 24 51 25 52 26 56 27 53 28 55 29 54 30 57 31 58 32 59 33
REMARK SMILES IDX 60 35 61 36 62 37 63 38 64 39 65 40 66 41 67 42 68 43 21 45
REMARK SMILES IDX 20 46 18 47 19 48 17 50 16 52 14 53 15 54 9 56 8 57 6 58
REMARK SMILES IDX 7 59 5 61 4 62 3 63 2 64 1 65 10 66 11 67 12 68 13 69 22 71
REMARK SMILES IDX 23 72 24 73 25 74 26 75 27 76 28 77
REMARK H PARENT 31 4 36 13 59 34 20 49 16 55 8 60 13 70 27 78 27 79 28 80
REMARK H PARENT 28 81
REMARK Flexibility Score:  259.900
ROOT
ATOM      1  O   UNL     1       7.818  -0.781   0.499  1.00  0.00    -0.273 OA
ATOM      2  N   UNL     1       6.012  -0.064  -0.709  1.00  0.00    -0.343 N 
ATOM      3  C   UNL     1       7.365  -0.153  -0.459  1.00  0.00     0.243 C 
ATOM      4  H   UNL     1       5.677   0.449  -1.515  1.00  0.00     0.164 HD
ENDROOT
BRANCH   2   5
ATOM      5  C   UNL     1       5.045  -0.618   0.233  1.00  0.00     0.171 C 
ATOM      6  C   UNL     1       2.199  -0.206   0.595  1.00  0.00     0.214 C 
ATOM      7  N   UNL     1       3.134   0.619   1.323  1.00  0.00    -0.303 N 
ATOM      8  C   UNL     1       2.731  -1.599   0.296  1.00  0.00     0.057 C 
ATOM      9  C   UNL     1       4.505   0.510   1.159  1.00  0.00     0.247 C 
ATOM     10  C   UNL     1       4.023  -1.497  -0.485  1.00  0.00     0.040 C 
ATOM     11  O   UNL     1       5.297   1.278   1.720  1.00  0.00    -0.272 OA
BRANCH   6  12
ATOM     12  O   UNL     1       1.874   0.463  -0.601  1.00  0.00    -0.373 OA
ATOM     13  H   UNL     1       2.719   0.666  -1.056  1.00  0.00     0.213 HD
ENDBRANCH   6  12
BRANCH   7  14
ATOM     14  C   UNL     1       2.566   1.702   2.154  1.00  0.00     0.177 C 
BRANCH  14  15
ATOM     15  C   UNL     1       1.554   2.617   1.438  1.00  0.00     0.038 C 
BRANCH  15  16
ATOM     16  C   UNL     1       1.957   4.064   1.080  1.00  0.00    -0.015 C 
ATOM     17  C   UNL     1       1.495   4.469  -0.323  1.00  0.00     0.007 C 
ATOM     18  C   UNL     1       3.483   4.209   1.144  1.00  0.00     0.007 C 
ENDBRANCH  15  16
ENDBRANCH  14  15
BRANCH  14  19
ATOM     19  C   UNL     1       2.477   1.247   3.652  1.00  0.00     0.245 C 
ATOM     20  O   UNL     1       3.464   1.486   4.368  1.00  0.00    -0.272 OA
BRANCH  19  21
ATOM     21  N   UNL     1       1.428   0.512   4.173  1.00  0.00    -0.332 N 
ATOM     22  C   UNL     1       1.195  -0.903   3.945  1.00  0.00     0.147 C 
BRANCH  21  23
ATOM     23  C   UNL     1       0.440   1.221   5.033  1.00  0.00     0.178 C 
BRANCH  23  24
ATOM     24  C   UNL     1      -0.586   2.079   4.265  1.00  0.00     0.070 C 
BRANCH  24  25
ATOM     25  C   UNL     1      -0.770   3.507   4.724  1.00  0.00    -0.045 A 
ATOM     26  C   UNL     1       0.179   4.488   4.412  1.00  0.00     0.004 A 
ATOM     27  C   UNL     1      -1.898   3.868   5.476  1.00  0.00     0.004 A 
ATOM     28  C   UNL     1       0.010   5.802   4.855  1.00  0.00     0.000 A 
ATOM     29  C   UNL     1      -2.066   5.182   5.916  1.00  0.00     0.000 A 
ATOM     30  C   UNL     1      -1.110   6.147   5.608  1.00  0.00     0.000 A 
ENDBRANCH  24  25
ENDBRANCH  23  24
BRANCH  23  31
ATOM     31  C   UNL     1      -0.161   0.316   6.135  1.00  0.00     0.243 C 
ATOM     32  O   UNL     1       0.494  -0.187   7.044  1.00  0.00    -0.273 OA
ATOM     33  N   UNL     1      -1.480  -0.035   5.903  1.00  0.00    -0.341 N 
ATOM     34  H   UNL     1      -1.972   0.413   5.126  1.00  0.00     0.164 HD
BRANCH  33  35
ATOM     35  C   UNL     1      -2.217  -0.978   6.749  1.00  0.00     0.194 C 
BRANCH  35  36
ATOM     36  C   UNL     1      -2.356  -2.402   6.141  1.00  0.00     0.017 C 
ATOM     37  C   UNL     1      -1.271  -3.349   6.681  1.00  0.00     0.010 C 
ATOM     38  C   UNL     1      -2.259  -2.417   4.611  1.00  0.00     0.010 C 
ENDBRANCH  35  36
BRANCH  35  39
ATOM     39  C   UNL     1      -3.585  -0.413   7.224  1.00  0.00     0.329 C 
ATOM     40  O   UNL     1      -3.759   0.741   7.596  1.00  0.00    -0.250 OA
BRANCH  39  41
ATOM     41  O   UNL     1      -4.596  -1.325   7.096  1.00  0.00    -0.458 OA
BRANCH  41  42
ATOM     42  C   UNL     1      -5.646  -1.261   8.091  1.00  0.00     0.205 CG0
ATOM     43  C   UNL     1      -5.198  -2.109   9.280  1.00  0.00     0.056 C 
ATOM     44  G   UNL     1      -6.954  -1.776   7.459  1.00  0.00     0.000 G0
ENDBRANCH  41  42
ENDBRANCH  39  41
ENDBRANCH  35  39
ENDBRANCH  33  35
ENDBRANCH  23  31
ENDBRANCH  21  23
ENDBRANCH  19  21
ENDBRANCH  14  19
ENDBRANCH   7  14
ENDBRANCH   2   5
BRANCH   3  45
ATOM     45  C   UNL     1       8.268   0.565  -1.470  1.00  0.00     0.171 C 
BRANCH  45  46
ATOM     46  N   UNL     1       9.539  -0.148  -1.439  1.00  0.00    -0.342 N 
ATOM     47  C   UNL     1       9.916  -1.024  -2.426  1.00  0.00     0.247 C 
ATOM     48  O   UNL     1       9.245  -1.216  -3.441  1.00  0.00    -0.273 OA
ATOM     49  H   UNL     1      10.150   0.025  -0.644  1.00  0.00     0.164 HD
BRANCH  47  50
ATOM     50  C   UNL     1      11.228  -1.775  -2.162  1.00  0.00     0.212 CG0
ATOM     51  G   UNL     1      12.223  -0.774  -1.541  1.00  0.00     0.000 G0
BRANCH  50  52
ATOM     52  N   UNL     1      10.876  -2.871  -1.263  1.00  0.00    -0.339 N 
ATOM     53  C   UNL     1      10.449  -4.101  -1.702  1.00  0.00     0.243 C 
ATOM     54  O   UNL     1      10.280  -4.357  -2.891  1.00  0.00    -0.273 OA
ATOM     55  H   UNL     1      10.890  -2.685  -0.263  1.00  0.00     0.164 HD
BRANCH  53  56
ATOM     56  C   UNL     1      10.053  -5.068  -0.569  1.00  0.00     0.182 C 
BRANCH  56  57
ATOM     57  N   UNL     1       8.962  -4.514   0.239  1.00  0.00    -0.344 N 
ATOM     58  C   UNL     1       7.648  -4.578  -0.155  1.00  0.00     0.220 C 
ATOM     59  O   UNL     1       7.302  -5.036  -1.239  1.00  0.00    -0.275 OA
ATOM     60  H   UNL     1       9.193  -4.219   1.184  1.00  0.00     0.164 HD
BRANCH  58  61
ATOM     61  C   UNL     1       6.686  -3.994   0.863  1.00  0.00     0.100 C 
BRANCH  61  62
ATOM     62  C   UNL     1       5.318  -4.678   0.881  1.00  0.00     0.010 C 
BRANCH  62  63
ATOM     63  C   UNL     1       4.427  -4.268   2.061  1.00  0.00     0.000 C 
BRANCH  63  64
ATOM     64  C   UNL     1       5.167  -3.540   3.182  1.00  0.00    -0.003 C 
ATOM     65  C   UNL     1       4.593  -3.892   4.546  1.00  0.00     0.004 C 
ENDBRANCH  63  64
ENDBRANCH  62  63
ENDBRANCH  61  62
ENDBRANCH  58  61
ENDBRANCH  56  57
BRANCH  56  66
ATOM     66  C   UNL     1      11.260  -5.459   0.282  1.00  0.00     0.157 C 
BRANCH  66  67
ATOM     67  C   UNL     1      11.254  -6.929   0.592  1.00  0.00     0.305 C 
ATOM     68  O   UNL     1      10.868  -7.830  -0.137  1.00  0.00    -0.252 OA
BRANCH  67  69
ATOM     69  O   UNL     1      11.789  -7.199   1.797  1.00  0.00    -0.481 OA
ATOM     70  H   UNL     1      12.494  -6.528   1.915  1.00  0.00     0.296 HD
ENDBRANCH  67  69
ENDBRANCH  66  67
ENDBRANCH  56  66
ENDBRANCH  53  56
ENDBRANCH  50  52
ENDBRANCH  47  50
ENDBRANCH  45  46
BRANCH  45  71
ATOM     71  C   UNL     1       8.437   2.038  -1.083  1.00  0.00     0.037 C 
BRANCH  71  72
ATOM     72  C   UNL     1       7.644   2.970  -2.003  1.00  0.00     0.026 C 
BRANCH  72  73
ATOM     73  C   UNL     1       6.409   3.532  -1.301  1.00  0.00     0.146 C 
BRANCH  73  74
ATOM     74  N   UNL     1       5.295   2.627  -1.565  1.00  0.00    -0.254 NA
ATOM     75  C   UNL     1       4.338   3.054  -2.303  1.00  0.00     0.185 C 
ATOM     76  N   UNL     1       3.299   2.244  -2.564  1.00  0.00    -0.370 N 
ATOM     77  N   UNL     1       4.198   4.253  -2.894  1.00  0.00    -0.370 N 
ATOM     78  H   UNL     1       3.322   1.323  -2.150  1.00  0.00     0.159 HD
ATOM     79  H   UNL     1       2.454   2.554  -3.009  1.00  0.00     0.159 HD
ATOM     80  H   UNL     1       4.906   4.964  -2.789  1.00  0.00     0.159 HD
ATOM     81  H   UNL     1       3.455   4.436  -3.549  1.00  0.00     0.159 HD
ENDBRANCH  73  74
ENDBRANCH  72  73
ENDBRANCH  71  72
ENDBRANCH  45  71
ENDBRANCH   3  45
TORSDOF 20
ENDMDL
MODEL 18
REMARK VINA RESULT:    -5.724      6.877     12.263
REMARK INTER + INTRA:         -24.498
REMARK INTER:                 -18.086
REMARK INTRA:                  -6.412
REMARK UNBOUND:                -8.064
REMARK SMILES CCCCCC(=O)N[C@H](CC(=O)O)C(=O)N[C@H]1C(=O)N[C@H](CCCN=C(N)N)C(=O)N[C@@H]2CC[C@H](O)N(C2=O)[C@@H](CC(C)C)C(=O)N(C)[C@@H](Cc2ccccc2)C(=O)N[C@H](C(C)C)C(=O)O[C@@H]1C
REMARK SMILES IDX 30 1 31 2 29 3 32 5 35 6 37 7 34 8 38 9 33 10 39 11 36 12
REMARK SMILES IDX 40 14 41 15 42 16 43 17 44 18 45 19 46 20 47 21 48 22 49 23
REMARK SMILES IDX 50 24 51 25 52 26 56 27 53 28 55 29 54 30 57 31 58 32 59 33
REMARK SMILES IDX 60 35 61 36 62 37 63 38 64 39 65 40 66 41 67 42 68 43 21 45
REMARK SMILES IDX 20 46 18 47 19 48 17 50 16 52 14 53 15 54 9 56 8 57 6 58
REMARK SMILES IDX 7 59 5 61 4 62 3 63 2 64 1 65 10 66 11 67 12 68 13 69 22 71
REMARK SMILES IDX 23 72 24 73 25 74 26 75 27 76 28 77
REMARK H PARENT 31 4 36 13 59 34 20 49 16 55 8 60 13 70 27 78 27 79 28 80
REMARK H PARENT 28 81
REMARK Flexibility Score:  259.900
ROOT
ATOM      1  O   UNL     1       9.142  -1.085  -3.499  1.00  0.00    -0.273 OA
ATOM      2  N   UNL     1       9.305  -1.104  -1.218  1.00  0.00    -0.343 N 
ATOM      3  C   UNL     1       9.701  -1.491  -2.480  1.00  0.00     0.243 C 
ATOM      4  H   UNL     1       9.798  -1.447  -0.403  1.00  0.00     0.164 HD
ENDROOT
BRANCH   2   5
ATOM      5  C   UNL     1       8.116  -0.279  -1.034  1.00  0.00     0.171 C 
ATOM      6  C   UNL     1       6.857   0.853   1.319  1.00  0.00     0.214 C 
ATOM      7  N   UNL     1       6.448  -0.451   0.853  1.00  0.00    -0.303 N 
ATOM      8  C   UNL     1       7.338   1.767   0.204  1.00  0.00     0.057 C 
ATOM      9  C   UNL     1       7.044  -1.072  -0.233  1.00  0.00     0.247 C 
ATOM     10  C   UNL     1       8.489   1.115  -0.532  1.00  0.00     0.040 C 
ATOM     11  O   UNL     1       6.748  -2.225  -0.573  1.00  0.00    -0.272 OA
BRANCH   6  12
ATOM     12  O   UNL     1       7.873   0.669   2.278  1.00  0.00    -0.373 OA
ATOM     13  H   UNL     1       8.416  -0.091   1.978  1.00  0.00     0.213 HD
ENDBRANCH   6  12
BRANCH   7  14
ATOM     14  C   UNL     1       5.457  -1.177   1.676  1.00  0.00     0.177 C 
BRANCH  14  15
ATOM     15  C   UNL     1       6.052  -2.123   2.737  1.00  0.00     0.038 C 
BRANCH  15  16
ATOM     16  C   UNL     1       5.850  -3.648   2.596  1.00  0.00    -0.015 C 
ATOM     17  C   UNL     1       7.117  -4.365   2.121  1.00  0.00     0.007 C 
ATOM     18  C   UNL     1       4.731  -3.931   1.585  1.00  0.00     0.007 C 
ENDBRANCH  15  16
ENDBRANCH  14  15
BRANCH  14  19
ATOM     19  C   UNL     1       4.163  -0.312   1.856  1.00  0.00     0.245 C 
ATOM     20  O   UNL     1       3.564   0.022   0.820  1.00  0.00    -0.272 OA
BRANCH  19  21
ATOM     21  N   UNL     1       3.728   0.181   3.074  1.00  0.00    -0.332 N 
ATOM     22  C   UNL     1       4.078   1.475   3.632  1.00  0.00     0.147 C 
BRANCH  21  23
ATOM     23  C   UNL     1       2.835  -0.682   3.895  1.00  0.00     0.178 C 
BRANCH  23  24
ATOM     24  C   UNL     1       3.414  -1.091   5.265  1.00  0.00     0.070 C 
BRANCH  24  25
ATOM     25  C   UNL     1       3.103  -2.486   5.754  1.00  0.00    -0.045 A 
ATOM     26  C   UNL     1       2.545  -2.695   7.022  1.00  0.00     0.004 A 
ATOM     27  C   UNL     1       3.375  -3.598   4.942  1.00  0.00     0.004 A 
ATOM     28  C   UNL     1       2.277  -3.989   7.474  1.00  0.00     0.000 A 
ATOM     29  C   UNL     1       3.106  -4.890   5.395  1.00  0.00     0.000 A 
ATOM     30  C   UNL     1       2.559  -5.085   6.662  1.00  0.00     0.000 A 
ENDBRANCH  24  25
ENDBRANCH  23  24
BRANCH  23  31
ATOM     31  C   UNL     1       1.373  -0.176   3.931  1.00  0.00     0.243 C 
ATOM     32  O   UNL     1       0.627  -0.162   2.955  1.00  0.00    -0.273 OA
ATOM     33  N   UNL     1       1.028   0.437   5.123  1.00  0.00    -0.341 N 
ATOM     34  H   UNL     1       1.694   0.398   5.899  1.00  0.00     0.164 HD
BRANCH  33  35
ATOM     35  C   UNL     1      -0.264   1.094   5.340  1.00  0.00     0.194 C 
BRANCH  35  36
ATOM     36  C   UNL     1      -0.196   2.647   5.329  1.00  0.00     0.017 C 
ATOM     37  C   UNL     1      -1.594   3.269   5.492  1.00  0.00     0.010 C 
ATOM     38  C   UNL     1       0.413   3.217   4.042  1.00  0.00     0.010 C 
ENDBRANCH  35  36
BRANCH  35  39
ATOM     39  C   UNL     1      -1.006   0.554   6.594  1.00  0.00     0.329 C 
ATOM     40  O   UNL     1      -0.690   0.823   7.747  1.00  0.00    -0.250 OA
BRANCH  39  41
ATOM     41  O   UNL     1      -2.109  -0.186   6.267  1.00  0.00    -0.458 OA
BRANCH  41  42
ATOM     42  C   UNL     1      -2.933  -0.631   7.371  1.00  0.00     0.205 CG0
ATOM     43  C   UNL     1      -2.724  -2.137   7.516  1.00  0.00     0.056 C 
ATOM     44  G   UNL     1      -4.399  -0.266   7.068  1.00  0.00     0.000 G0
ENDBRANCH  41  42
ENDBRANCH  39  41
ENDBRANCH  35  39
ENDBRANCH  33  35
ENDBRANCH  23  31
ENDBRANCH  21  23
ENDBRANCH  19  21
ENDBRANCH  14  19
ENDBRANCH   7  14
ENDBRANCH   2   5
BRANCH   3  45
ATOM     45  C   UNL     1      10.901  -2.447  -2.528  1.00  0.00     0.171 C 
BRANCH  45  46
ATOM     46  N   UNL     1      12.018  -1.652  -3.020  1.00  0.00    -0.342 N 
ATOM     47  C   UNL     1      12.593  -0.651  -2.277  1.00  0.00     0.247 C 
ATOM     48  O   UNL     1      12.258  -0.401  -1.119  1.00  0.00    -0.273 OA
ATOM     49  H   UNL     1      12.365  -1.863  -3.954  1.00  0.00     0.164 HD
BRANCH  47  50
ATOM     50  C   UNL     1      13.674   0.160  -3.006  1.00  0.00     0.212 CG0
ATOM     51  G   UNL     1      14.575  -0.835  -3.764  1.00  0.00     0.000 G0
BRANCH  50  52
ATOM     52  N   UNL     1      12.949   1.070  -3.889  1.00  0.00    -0.339 N 
ATOM     53  C   UNL     1      12.584   2.344  -3.527  1.00  0.00     0.243 C 
ATOM     54  O   UNL     1      12.795   2.800  -2.407  1.00  0.00    -0.273 OA
ATOM     55  H   UNL     1      12.648   0.711  -4.793  1.00  0.00     0.164 HD
BRANCH  53  56
ATOM     56  C   UNL     1      11.752   3.085  -4.593  1.00  0.00     0.182 C 
BRANCH  56  57
ATOM     57  N   UNL     1      10.341   2.688  -4.528  1.00  0.00    -0.344 N 
ATOM     58  C   UNL     1       9.352   3.552  -4.125  1.00  0.00     0.220 C 
ATOM     59  O   UNL     1       9.585   4.686  -3.722  1.00  0.00    -0.275 OA
ATOM     60  H   UNL     1      10.094   1.796  -4.947  1.00  0.00     0.164 HD
BRANCH  58  61
ATOM     61  C   UNL     1       7.962   2.947  -4.191  1.00  0.00     0.100 C 
BRANCH  61  62
ATOM     62  C   UNL     1       6.989   3.523  -3.163  1.00  0.00     0.010 C 
BRANCH  62  63
ATOM     63  C   UNL     1       5.645   2.788  -3.089  1.00  0.00     0.000 C 
BRANCH  63  64
ATOM     64  C   UNL     1       5.759   1.265  -3.152  1.00  0.00    -0.003 C 
ATOM     65  C   UNL     1       4.503   0.592  -2.618  1.00  0.00     0.004 C 
ENDBRANCH  63  64
ENDBRANCH  62  63
ENDBRANCH  61  62
ENDBRANCH  58  61
ENDBRANCH  56  57
BRANCH  56  66
ATOM     66  C   UNL     1      12.339   2.900  -5.991  1.00  0.00     0.157 C 
BRANCH  66  67
ATOM     67  C   UNL     1      11.568   1.876  -6.774  1.00  0.00     0.305 C 
ATOM     68  O   UNL     1      10.677   2.090  -7.582  1.00  0.00    -0.252 OA
BRANCH  67  69
ATOM     69  O   UNL     1      11.996   0.621  -6.536  1.00  0.00    -0.481 OA
ATOM     70  H   UNL     1      12.348   0.310  -7.396  1.00  0.00     0.296 HD
ENDBRANCH  67  69
ENDBRANCH  66  67
ENDBRANCH  56  66
ENDBRANCH  53  56
ENDBRANCH  50  52
ENDBRANCH  47  50
ENDBRANCH  45  46
BRANCH  45  71
ATOM     71  C   UNL     1      10.602  -3.633  -3.451  1.00  0.00     0.037 C 
BRANCH  71  72
ATOM     72  C   UNL     1       9.489  -4.527  -2.898  1.00  0.00     0.026 C 
BRANCH  72  73
ATOM     73  C   UNL     1       9.918  -5.992  -2.849  1.00  0.00     0.146 C 
BRANCH  73  74
ATOM     74  N   UNL     1       8.728  -6.813  -3.045  1.00  0.00    -0.254 NA
ATOM     75  C   UNL     1       8.726  -7.641  -4.024  1.00  0.00     0.185 C 
ATOM     76  N   UNL     1       7.646  -8.412  -4.229  1.00  0.00    -0.370 N 
ATOM     77  N   UNL     1       9.689  -7.878  -4.932  1.00  0.00    -0.370 N 
ATOM     78  H   UNL     1       6.870  -8.291  -3.594  1.00  0.00     0.159 HD
ATOM     79  H   UNL     1       7.515  -8.974  -5.052  1.00  0.00     0.159 HD
ATOM     80  H   UNL     1      10.562  -7.374  -4.898  1.00  0.00     0.159 HD
ATOM     81  H   UNL     1       9.621  -8.638  -5.588  1.00  0.00     0.159 HD
ENDBRANCH  73  74
ENDBRANCH  72  73
ENDBRANCH  71  72
ENDBRANCH  45  71
ENDBRANCH   3  45
TORSDOF 20
ENDMDL
MODEL 19
REMARK VINA RESULT:    -5.716      2.536      5.644
REMARK INTER + INTRA:         -24.474
REMARK INTER:                 -17.241
REMARK INTRA:                  -7.233
REMARK UNBOUND:                -8.064
REMARK SMILES CCCCCC(=O)N[C@H](CC(=O)O)C(=O)N[C@H]1C(=O)N[C@H](CCCN=C(N)N)C(=O)N[C@@H]2CC[C@H](O)N(C2=O)[C@@H](CC(C)C)C(=O)N(C)[C@@H](Cc2ccccc2)C(=O)N[C@H](C(C)C)C(=O)O[C@@H]1C
REMARK SMILES IDX 30 1 31 2 29 3 32 5 35 6 37 7 34 8 38 9 33 10 39 11 36 12
REMARK SMILES IDX 40 14 41 15 42 16 43 17 44 18 45 19 46 20 47 21 48 22 49 23
REMARK SMILES IDX 50 24 51 25 52 26 56 27 53 28 55 29 54 30 57 31 58 32 59 33
REMARK SMILES IDX 60 35 61 36 62 37 63 38 64 39 65 40 66 41 67 42 68 43 21 45
REMARK SMILES IDX 20 46 18 47 19 48 17 50 16 52 14 53 15 54 9 56 8 57 6 58
REMARK SMILES IDX 7 59 5 61 4 62 3 63 2 64 1 65 10 66 11 67 12 68 13 69 22 71
REMARK SMILES IDX 23 72 24 73 25 74 26 75 27 76 28 77
REMARK H PARENT 31 4 36 13 59 34 20 49 16 55 8 60 13 70 27 78 27 79 28 80
REMARK H PARENT 28 81
REMARK Flexibility Score:  259.900
ROOT
ATOM      1  O   UNL     1      -1.369  -6.451   3.182  1.00  0.00    -0.273 OA
ATOM      2  N   UNL     1      -0.342  -4.880   1.874  1.00  0.00    -0.343 N 
ATOM      3  C   UNL     1      -0.784  -6.159   2.138  1.00  0.00     0.243 C 
ATOM      4  H   UNL     1       0.122  -4.673   0.999  1.00  0.00     0.164 HD
ENDROOT
BRANCH   2   5
ATOM      5  C   UNL     1      -0.446  -3.835   2.887  1.00  0.00     0.171 C 
ATOM      6  C   UNL     1      -1.023  -0.998   2.730  1.00  0.00     0.214 C 
ATOM      7  N   UNL     1       0.348  -1.449   2.668  1.00  0.00    -0.303 N 
ATOM      8  C   UNL     1      -1.919  -1.909   3.553  1.00  0.00     0.057 C 
ATOM      9  C   UNL     1       0.690  -2.792   2.686  1.00  0.00     0.247 C 
ATOM     10  C   UNL     1      -1.879  -3.313   2.991  1.00  0.00     0.040 C 
ATOM     11  O   UNL     1       1.859  -3.173   2.546  1.00  0.00    -0.272 OA
BRANCH   6  12
ATOM     12  O   UNL     1      -1.503  -0.899   1.409  1.00  0.00    -0.373 OA
ATOM     13  H   UNL     1      -0.801  -0.463   0.880  1.00  0.00     0.213 HD
ENDBRANCH   6  12
BRANCH   7  14
ATOM     14  C   UNL     1       1.382  -0.419   2.434  1.00  0.00     0.177 C 
BRANCH  14  15
ATOM     15  C   UNL     1       1.725  -0.158   0.954  1.00  0.00     0.038 C 
BRANCH  15  16
ATOM     16  C   UNL     1       3.080   0.487   0.590  1.00  0.00    -0.015 C 
ATOM     17  C   UNL     1       2.931   1.938   0.122  1.00  0.00     0.007 C 
ATOM     18  C   UNL     1       3.749  -0.313  -0.535  1.00  0.00     0.007 C 
ENDBRANCH  15  16
ENDBRANCH  14  15
BRANCH  14  19
ATOM     19  C   UNL     1       1.328   0.671   3.559  1.00  0.00     0.245 C 
ATOM     20  O   UNL     1       1.097   1.837   3.197  1.00  0.00    -0.272 OA
BRANCH  19  21
ATOM     21  N   UNL     1       1.628   0.425   4.887  1.00  0.00    -0.332 N 
ATOM     22  C   UNL     1       0.696  -0.071   5.884  1.00  0.00     0.147 C 
BRANCH  21  23
ATOM     23  C   UNL     1       3.018   0.698   5.348  1.00  0.00     0.178 C 
BRANCH  23  24
ATOM     24  C   UNL     1       4.112   0.431   4.294  1.00  0.00     0.070 C 
BRANCH  24  25
ATOM     25  C   UNL     1       4.508  -1.008   4.061  1.00  0.00    -0.045 A 
ATOM     26  C   UNL     1       5.209  -1.382   2.908  1.00  0.00     0.004 A 
ATOM     27  C   UNL     1       4.171  -1.995   5.000  1.00  0.00     0.004 A 
ATOM     28  C   UNL     1       5.557  -2.718   2.693  1.00  0.00     0.000 A 
ATOM     29  C   UNL     1       4.520  -3.329   4.784  1.00  0.00     0.000 A 
ATOM     30  C   UNL     1       5.210  -3.690   3.629  1.00  0.00     0.000 A 
ENDBRANCH  24  25
ENDBRANCH  23  24
BRANCH  23  31
ATOM     31  C   UNL     1       3.151   2.043   6.100  1.00  0.00     0.243 C 
ATOM     32  O   UNL     1       2.901   2.191   7.293  1.00  0.00    -0.273 OA
ATOM     33  N   UNL     1       3.402   3.120   5.266  1.00  0.00    -0.341 N 
ATOM     34  H   UNL     1       3.597   2.935   4.279  1.00  0.00     0.164 HD
BRANCH  33  35
ATOM     35  C   UNL     1       3.449   4.505   5.743  1.00  0.00     0.194 C 
BRANCH  35  36
ATOM     36  C   UNL     1       2.779   5.530   4.785  1.00  0.00     0.017 C 
ATOM     37  C   UNL     1       1.846   6.484   5.551  1.00  0.00     0.010 C 
ATOM     38  C   UNL     1       1.949   4.868   3.677  1.00  0.00     0.010 C 
ENDBRANCH  35  36
BRANCH  35  39
ATOM     39  C   UNL     1       4.882   4.947   6.154  1.00  0.00     0.329 C 
ATOM     40  O   UNL     1       5.541   4.406   7.034  1.00  0.00    -0.250 OA
BRANCH  39  41
ATOM     41  O   UNL     1       5.362   5.954   5.364  1.00  0.00    -0.458 OA
BRANCH  41  42
ATOM     42  C   UNL     1       6.029   7.043   6.047  1.00  0.00     0.205 CG0
ATOM     43  C   UNL     1       5.139   8.277   5.911  1.00  0.00     0.056 C 
ATOM     44  G   UNL     1       7.419   7.244   5.411  1.00  0.00     0.000 G0
ENDBRANCH  41  42
ENDBRANCH  39  41
ENDBRANCH  35  39
ENDBRANCH  33  35
ENDBRANCH  23  31
ENDBRANCH  21  23
ENDBRANCH  19  21
ENDBRANCH  14  19
ENDBRANCH   7  14
ENDBRANCH   2   5
BRANCH   3  45
ATOM     45  C   UNL     1      -0.517  -7.188   1.031  1.00  0.00     0.171 C 
BRANCH  45  46
ATOM     46  N   UNL     1      -1.579  -8.178   1.149  1.00  0.00    -0.342 N 
ATOM     47  C   UNL     1      -2.570  -8.309   0.210  1.00  0.00     0.247 C 
ATOM     48  O   UNL     1      -2.595  -7.654  -0.833  1.00  0.00    -0.273 OA
ATOM     49  H   UNL     1      -1.565  -8.781   1.970  1.00  0.00     0.164 HD
BRANCH  47  50
ATOM     50  C   UNL     1      -3.671  -9.319   0.563  1.00  0.00     0.212 CG0
ATOM     51  G   UNL     1      -3.762 -10.335  -0.592  1.00  0.00     0.000 G0
BRANCH  50  52
ATOM     52  N   UNL     1      -3.258  -9.920   1.829  1.00  0.00    -0.339 N 
ATOM     53  C   UNL     1      -4.080 -10.707   2.596  1.00  0.00     0.243 C 
ATOM     54  O   UNL     1      -5.252 -10.925   2.301  1.00  0.00    -0.273 OA
ATOM     55  H   UNL     1      -2.332  -9.685   2.183  1.00  0.00     0.164 HD
BRANCH  53  56
ATOM     56  C   UNL     1      -3.453 -11.157   3.931  1.00  0.00     0.182 C 
BRANCH  56  57
ATOM     57  N   UNL     1      -2.044 -10.758   4.011  1.00  0.00    -0.344 N 
ATOM     58  C   UNL     1      -1.633  -9.635   4.686  1.00  0.00     0.220 C 
ATOM     59  O   UNL     1      -2.418  -8.849   5.205  1.00  0.00    -0.275 OA
ATOM     60  H   UNL     1      -1.356 -11.432   3.683  1.00  0.00     0.164 HD
BRANCH  58  61
ATOM     61  C   UNL     1      -0.127  -9.450   4.687  1.00  0.00     0.100 C 
BRANCH  61  62
ATOM     62  C   UNL     1       0.462  -9.198   6.075  1.00  0.00     0.010 C 
BRANCH  62  63
ATOM     63  C   UNL     1       1.395  -7.982   6.149  1.00  0.00     0.000 C 
BRANCH  63  64
ATOM     64  C   UNL     1       1.870  -7.472   4.789  1.00  0.00    -0.003 C 
ATOM     65  C   UNL     1       1.933  -5.952   4.757  1.00  0.00     0.004 C 
ENDBRANCH  63  64
ENDBRANCH  62  63
ENDBRANCH  61  62
ENDBRANCH  58  61
ENDBRANCH  56  57
BRANCH  56  66
ATOM     66  C   UNL     1      -3.642 -12.655   4.163  1.00  0.00     0.157 C 
BRANCH  66  67
ATOM     67  C   UNL     1      -2.447 -13.255   4.846  1.00  0.00     0.305 C 
ATOM     68  O   UNL     1      -1.505 -13.819   4.312  1.00  0.00    -0.252 OA
BRANCH  67  69
ATOM     69  O   UNL     1      -2.472 -13.068   6.179  1.00  0.00    -0.481 OA
ATOM     70  H   UNL     1      -1.592 -13.368   6.491  1.00  0.00     0.296 HD
ENDBRANCH  67  69
ENDBRANCH  66  67
ENDBRANCH  56  66
ENDBRANCH  53  56
ENDBRANCH  50  52
ENDBRANCH  47  50
ENDBRANCH  45  46
BRANCH  45  71
ATOM     71  C   UNL     1       0.868  -7.819   1.214  1.00  0.00     0.037 C 
BRANCH  71  72
ATOM     72  C   UNL     1       0.839  -9.337   1.015  1.00  0.00     0.026 C 
BRANCH  72  73
ATOM     73  C   UNL     1       1.397  -9.733  -0.351  1.00  0.00     0.146 C 
BRANCH  73  74
ATOM     74  N   UNL     1       0.507  -9.190  -1.372  1.00  0.00    -0.254 NA
ATOM     75  C   UNL     1      -0.262 -10.007  -1.992  1.00  0.00     0.185 C 
ATOM     76  N   UNL     1      -1.093  -9.537  -2.937  1.00  0.00    -0.370 N 
ATOM     77  N   UNL     1      -0.379 -11.338  -1.841  1.00  0.00    -0.370 N 
ATOM     78  H   UNL     1      -1.063  -8.544  -3.119  1.00  0.00     0.159 HD
ATOM     79  H   UNL     1      -1.614 -10.128  -3.560  1.00  0.00     0.159 HD
ATOM     80  H   UNL     1       0.182 -11.829  -1.162  1.00  0.00     0.159 HD
ATOM     81  H   UNL     1      -1.103 -11.860  -2.306  1.00  0.00     0.159 HD
ENDBRANCH  73  74
ENDBRANCH  72  73
ENDBRANCH  71  72
ENDBRANCH  45  71
ENDBRANCH   3  45
TORSDOF 20
ENDMDL
MODEL 20
REMARK VINA RESULT:    -5.691      8.250     13.399
REMARK INTER + INTRA:         -24.401
REMARK INTER:                 -17.522
REMARK INTRA:                  -6.879
REMARK UNBOUND:                -8.064
REMARK SMILES CCCCCC(=O)N[C@H](CC(=O)O)C(=O)N[C@H]1C(=O)N[C@H](CCCN=C(N)N)C(=O)N[C@@H]2CC[C@H](O)N(C2=O)[C@@H](CC(C)C)C(=O)N(C)[C@@H](Cc2ccccc2)C(=O)N[C@H](C(C)C)C(=O)O[C@@H]1C
REMARK SMILES IDX 30 1 31 2 29 3 32 5 35 6 37 7 34 8 38 9 33 10 39 11 36 12
REMARK SMILES IDX 40 14 41 15 42 16 43 17 44 18 45 19 46 20 47 21 48 22 49 23
REMARK SMILES IDX 50 24 51 25 52 26 56 27 53 28 55 29 54 30 57 31 58 32 59 33
REMARK SMILES IDX 60 35 61 36 62 37 63 38 64 39 65 40 66 41 67 42 68 43 21 45
REMARK SMILES IDX 20 46 18 47 19 48 17 50 16 52 14 53 15 54 9 56 8 57 6 58
REMARK SMILES IDX 7 59 5 61 4 62 3 63 2 64 1 65 10 66 11 67 12 68 13 69 22 71
REMARK SMILES IDX 23 72 24 73 25 74 26 75 27 76 28 77
REMARK H PARENT 31 4 36 13 59 34 20 49 16 55 8 60 13 70 27 78 27 79 28 80
REMARK H PARENT 28 81
REMARK Flexibility Score:  259.900
ROOT
ATOM      1  O   UNL     1       7.492   2.072  -2.621  1.00  0.00    -0.273 OA
ATOM      2  N   UNL     1       7.745   2.001  -0.349  1.00  0.00    -0.343 N 
ATOM      3  C   UNL     1       8.019   1.568  -1.629  1.00  0.00     0.243 C 
ATOM      4  H   UNL     1       8.209   1.572   0.442  1.00  0.00     0.164 HD
ENDROOT
BRANCH   2   5
ATOM      5  C   UNL     1       6.716   3.007  -0.110  1.00  0.00     0.171 C 
ATOM      6  C   UNL     1       5.533   4.068   2.315  1.00  0.00     0.214 C 
ATOM      7  N   UNL     1       4.926   2.929   1.668  1.00  0.00    -0.303 N 
ATOM      8  C   UNL     1       6.244   5.001   1.347  1.00  0.00     0.057 C 
ATOM      9  C   UNL     1       5.468   2.341   0.536  1.00  0.00     0.247 C 
ATOM     10  C   UNL     1       7.302   4.236   0.582  1.00  0.00     0.040 C 
ATOM     11  O   UNL     1       4.990   1.313   0.038  1.00  0.00    -0.272 OA
BRANCH   6  12
ATOM     12  O   UNL     1       6.434   3.583   3.283  1.00  0.00    -0.373 OA
ATOM     13  H   UNL     1       5.970   3.611   4.147  1.00  0.00     0.213 HD
ENDBRANCH   6  12
BRANCH   7  14
ATOM     14  C   UNL     1       3.768   2.310   2.348  1.00  0.00     0.177 C 
BRANCH  14  15
ATOM     15  C   UNL     1       4.115   1.182   3.338  1.00  0.00     0.038 C 
BRANCH  15  16
ATOM     16  C   UNL     1       3.197  -0.057   3.432  1.00  0.00    -0.015 C 
ATOM     17  C   UNL     1       3.811  -1.177   4.277  1.00  0.00     0.007 C 
ATOM     18  C   UNL     1       2.926  -0.610   2.026  1.00  0.00     0.007 C 
ENDBRANCH  15  16
ENDBRANCH  14  15
BRANCH  14  19
ATOM     19  C   UNL     1       2.623   3.364   2.538  1.00  0.00     0.245 C 
ATOM     20  O   UNL     1       2.227   3.951   1.517  1.00  0.00    -0.272 OA
BRANCH  19  21
ATOM     21  N   UNL     1       2.123   3.745   3.771  1.00  0.00    -0.332 N 
ATOM     22  C   UNL     1       2.879   4.407   4.819  1.00  0.00     0.147 C 
BRANCH  21  23
ATOM     23  C   UNL     1       0.693   3.447   4.064  1.00  0.00     0.178 C 
BRANCH  23  24
ATOM     24  C   UNL     1       0.459   2.183   4.915  1.00  0.00     0.070 C 
BRANCH  24  25
ATOM     25  C   UNL     1      -0.051   0.954   4.198  1.00  0.00    -0.045 A 
ATOM     26  C   UNL     1      -0.207  -0.261   4.878  1.00  0.00     0.004 A 
ATOM     27  C   UNL     1      -0.373   1.014   2.834  1.00  0.00     0.004 A 
ATOM     28  C   UNL     1      -0.663  -1.395   4.203  1.00  0.00     0.000 A 
ATOM     29  C   UNL     1      -0.829  -0.120   2.162  1.00  0.00     0.000 A 
ATOM     30  C   UNL     1      -0.971  -1.325   2.847  1.00  0.00     0.000 A 
ENDBRANCH  24  25
ENDBRANCH  23  24
BRANCH  23  31
ATOM     31  C   UNL     1      -0.103   4.694   4.516  1.00  0.00     0.243 C 
ATOM     32  O   UNL     1      -0.079   5.774   3.931  1.00  0.00    -0.273 OA
ATOM     33  N   UNL     1      -0.706   4.546   5.754  1.00  0.00    -0.341 N 
ATOM     34  H   UNL     1      -0.687   3.624   6.196  1.00  0.00     0.164 HD
BRANCH  33  35
ATOM     35  C   UNL     1      -1.412   5.636   6.434  1.00  0.00     0.194 C 
BRANCH  35  36
ATOM     36  C   UNL     1      -0.500   6.523   7.328  1.00  0.00     0.017 C 
ATOM     37  C   UNL     1      -0.129   7.836   6.618  1.00  0.00     0.010 C 
ATOM     38  C   UNL     1       0.809   5.832   7.729  1.00  0.00     0.010 C 
ENDBRANCH  35  36
BRANCH  35  39
ATOM     39  C   UNL     1      -2.674   5.145   7.198  1.00  0.00     0.329 C 
ATOM     40  O   UNL     1      -3.661   5.840   7.408  1.00  0.00    -0.250 OA
BRANCH  39  41
ATOM     41  O   UNL     1      -2.595   3.823   7.536  1.00  0.00    -0.458 OA
BRANCH  41  42
ATOM     42  C   UNL     1      -2.256   3.531   8.913  1.00  0.00     0.205 CG0
ATOM     43  C   UNL     1      -0.941   2.755   8.901  1.00  0.00     0.056 C 
ATOM     44  G   UNL     1      -3.410   2.728   9.544  1.00  0.00     0.000 G0
ENDBRANCH  41  42
ENDBRANCH  39  41
ENDBRANCH  35  39
ENDBRANCH  33  35
ENDBRANCH  23  31
ENDBRANCH  21  23
ENDBRANCH  19  21
ENDBRANCH  14  19
ENDBRANCH   7  14
ENDBRANCH   2   5
BRANCH   3  45
ATOM     45  C   UNL     1       9.043   0.430  -1.733  1.00  0.00     0.171 C 
BRANCH  45  46
ATOM     46  N   UNL     1      10.180   0.987  -2.454  1.00  0.00    -0.342 N 
ATOM     47  C   UNL     1      11.449   0.998  -1.932  1.00  0.00     0.247 C 
ATOM     48  O   UNL     1      11.733   0.476  -0.854  1.00  0.00    -0.273 OA
ATOM     49  H   UNL     1       9.999   1.380  -3.376  1.00  0.00     0.164 HD
BRANCH  47  50
ATOM     50  C   UNL     1      12.494   1.738  -2.780  1.00  0.00     0.212 CG0
ATOM     51  G   UNL     1      13.134   0.709  -3.734  1.00  0.00     0.000 G0
BRANCH  50  52
ATOM     52  N   UNL     1      11.757   2.790  -3.476  1.00  0.00    -0.339 N 
ATOM     53  C   UNL     1      11.928   4.128  -3.218  1.00  0.00     0.243 C 
ATOM     54  O   UNL     1      12.680   4.543  -2.340  1.00  0.00    -0.273 OA
ATOM     55  H   UNL     1      11.038   2.505  -4.137  1.00  0.00     0.164 HD
BRANCH  53  56
ATOM     56  C   UNL     1      10.979   5.046  -4.015  1.00  0.00     0.182 C 
BRANCH  56  57
ATOM     57  N   UNL     1      10.870   6.365  -3.383  1.00  0.00    -0.344 N 
ATOM     58  C   UNL     1      11.487   7.480  -3.896  1.00  0.00     0.220 C 
ATOM     59  O   UNL     1      12.229   7.438  -4.871  1.00  0.00    -0.275 OA
ATOM     60  H   UNL     1      10.186   6.464  -2.637  1.00  0.00     0.164 HD
BRANCH  58  61
ATOM     61  C   UNL     1      11.189   8.746  -3.114  1.00  0.00     0.100 C 
BRANCH  61  62
ATOM     62  C   UNL     1      11.400   8.603  -1.607  1.00  0.00     0.010 C 
BRANCH  62  63
ATOM     63  C   UNL     1      10.123   8.778  -0.775  1.00  0.00     0.000 C 
BRANCH  63  64
ATOM     64  C   UNL     1      10.058  10.089   0.007  1.00  0.00    -0.003 C 
ATOM     65  C   UNL     1      11.395  10.413   0.658  1.00  0.00     0.004 C 
ENDBRANCH  63  64
ENDBRANCH  62  63
ENDBRANCH  61  62
ENDBRANCH  58  61
ENDBRANCH  56  57
BRANCH  56  66
ATOM     66  C   UNL     1       9.614   4.393  -4.225  1.00  0.00     0.157 C 
BRANCH  66  67
ATOM     67  C   UNL     1       8.499   5.355  -3.930  1.00  0.00     0.305 C 
ATOM     68  O   UNL     1       7.884   5.464  -2.880  1.00  0.00    -0.252 OA
BRANCH  67  69
ATOM     69  O   UNL     1       8.246   6.178  -4.965  1.00  0.00    -0.481 OA
ATOM     70  H   UNL     1       7.278   6.109  -5.108  1.00  0.00     0.296 HD
ENDBRANCH  67  69
ENDBRANCH  66  67
ENDBRANCH  56  66
ENDBRANCH  53  56
ENDBRANCH  50  52
ENDBRANCH  47  50
ENDBRANCH  45  46
BRANCH  45  71
ATOM     71  C   UNL     1       8.437  -0.768  -2.472  1.00  0.00     0.037 C 
BRANCH  71  72
ATOM     72  C   UNL     1       7.748  -1.746  -1.516  1.00  0.00     0.026 C 
BRANCH  72  73
ATOM     73  C   UNL     1       8.610  -2.031  -0.289  1.00  0.00     0.146 C 
BRANCH  73  74
ATOM     74  N   UNL     1       9.146  -3.382  -0.422  1.00  0.00    -0.254 NA
ATOM     75  C   UNL     1      10.346  -3.510  -0.853  1.00  0.00     0.185 C 
ATOM     76  N   UNL     1      10.868  -4.741  -0.985  1.00  0.00    -0.370 N 
ATOM     77  N   UNL     1      11.221  -2.556  -1.214  1.00  0.00    -0.370 N 
ATOM     78  H   UNL     1      10.271  -5.519  -0.742  1.00  0.00     0.159 HD
ATOM     79  H   UNL     1      11.740  -4.926  -1.449  1.00  0.00     0.159 HD
ATOM     80  H   UNL     1      10.968  -1.581  -1.162  1.00  0.00     0.159 HD
ATOM     81  H   UNL     1      12.181  -2.772  -1.428  1.00  0.00     0.159 HD
ENDBRANCH  73  74
ENDBRANCH  72  73
ENDBRANCH  71  72
ENDBRANCH  45  71
ENDBRANCH   3  45
TORSDOF 20
ENDMDL
MODEL 21
REMARK VINA RESULT:    -5.643      5.341      8.649
REMARK INTER + INTRA:         -24.265
REMARK INTER:                 -17.503
REMARK INTRA:                  -6.762
REMARK UNBOUND:                -8.064
REMARK SMILES CCCCCC(=O)N[C@H](CC(=O)O)C(=O)N[C@H]1C(=O)N[C@H](CCCN=C(N)N)C(=O)N[C@@H]2CC[C@H](O)N(C2=O)[C@@H](CC(C)C)C(=O)N(C)[C@@H](Cc2ccccc2)C(=O)N[C@H](C(C)C)C(=O)O[C@@H]1C
REMARK SMILES IDX 30 1 31 2 29 3 32 5 35 6 37 7 34 8 38 9 33 10 39 11 36 12
REMARK SMILES IDX 40 14 41 15 42 16 43 17 44 18 45 19 46 20 47 21 48 22 49 23
REMARK SMILES IDX 50 24 51 25 52 26 56 27 53 28 55 29 54 30 57 31 58 32 59 33
REMARK SMILES IDX 60 35 61 36 62 37 63 38 64 39 65 40 66 41 67 42 68 43 21 45
REMARK SMILES IDX 20 46 18 47 19 48 17 50 16 52 14 53 15 54 9 56 8 57 6 58
REMARK SMILES IDX 7 59 5 61 4 62 3 63 2 64 1 65 10 66 11 67 12 68 13 69 22 71
REMARK SMILES IDX 23 72 24 73 25 74 26 75 27 76 28 77
REMARK H PARENT 31 4 36 13 59 34 20 49 16 55 8 60 13 70 27 78 27 79 28 80
REMARK H PARENT 28 81
REMARK Flexibility Score:  259.900
ROOT
ATOM      1  O   UNL     1       2.823  -5.020   3.020  1.00  0.00    -0.273 OA
ATOM      2  N   UNL     1       4.566  -3.824   3.892  1.00  0.00    -0.343 N 
ATOM      3  C   UNL     1       3.338  -4.444   3.979  1.00  0.00     0.243 C 
ATOM      4  H   UNL     1       4.965  -3.372   4.706  1.00  0.00     0.164 HD
ENDROOT
BRANCH   2   5
ATOM      5  C   UNL     1       5.259  -3.723   2.613  1.00  0.00     0.171 C 
ATOM      6  C   UNL     1       7.455  -2.070   1.693  1.00  0.00     0.214 C 
ATOM      7  N   UNL     1       6.098  -1.607   1.523  1.00  0.00    -0.303 N 
ATOM      8  C   UNL     1       7.582  -3.585   1.661  1.00  0.00     0.057 C 
ATOM      9  C   UNL     1       5.006  -2.323   1.985  1.00  0.00     0.247 C 
ATOM     10  C   UNL     1       6.707  -4.195   2.734  1.00  0.00     0.040 C 
ATOM     11  O   UNL     1       3.852  -1.879   1.913  1.00  0.00    -0.272 OA
BRANCH   6  12
ATOM     12  O   UNL     1       7.934  -1.562   2.916  1.00  0.00    -0.373 OA
ATOM     13  H   UNL     1       8.914  -1.600   2.880  1.00  0.00     0.213 HD
ENDBRANCH   6  12
BRANCH   7  14
ATOM     14  C   UNL     1       5.918  -0.252   0.960  1.00  0.00     0.177 C 
BRANCH  14  15
ATOM     15  C   UNL     1       5.904   0.891   1.994  1.00  0.00     0.038 C 
BRANCH  15  16
ATOM     16  C   UNL     1       4.996   2.119   1.759  1.00  0.00    -0.015 C 
ATOM     17  C   UNL     1       5.359   3.297   2.668  1.00  0.00     0.007 C 
ATOM     18  C   UNL     1       3.533   1.740   2.023  1.00  0.00     0.007 C 
ENDBRANCH  15  16
ENDBRANCH  14  15
BRANCH  14  19
ATOM     19  C   UNL     1       6.547  -0.170  -0.473  1.00  0.00     0.245 C 
ATOM     20  O   UNL     1       7.104  -1.196  -0.899  1.00  0.00    -0.272 OA
BRANCH  19  21
ATOM     21  N   UNL     1       6.612   0.991  -1.222  1.00  0.00    -0.332 N 
ATOM     22  C   UNL     1       5.535   1.532  -2.032  1.00  0.00     0.147 C 
BRANCH  21  23
ATOM     23  C   UNL     1       7.890   1.755  -1.214  1.00  0.00     0.178 C 
BRANCH  23  24
ATOM     24  C   UNL     1       8.625   1.769   0.142  1.00  0.00     0.070 C 
BRANCH  24  25
ATOM     25  C   UNL     1       8.622   3.068   0.913  1.00  0.00    -0.045 A 
ATOM     26  C   UNL     1       9.048   3.112   2.247  1.00  0.00     0.004 A 
ATOM     27  C   UNL     1       8.187   4.253   0.301  1.00  0.00     0.004 A 
ATOM     28  C   UNL     1       9.026   4.314   2.958  1.00  0.00     0.000 A 
ATOM     29  C   UNL     1       8.167   5.454   1.012  1.00  0.00     0.000 A 
ATOM     30  C   UNL     1       8.584   5.482   2.341  1.00  0.00     0.000 A 
ENDBRANCH  24  25
ENDBRANCH  23  24
BRANCH  23  31
ATOM     31  C   UNL     1       8.786   1.445  -2.437  1.00  0.00     0.243 C 
ATOM     32  O   UNL     1       8.456   0.705  -3.361  1.00  0.00    -0.273 OA
ATOM     33  N   UNL     1      10.077   1.930  -2.315  1.00  0.00    -0.341 N 
ATOM     34  H   UNL     1      10.294   2.537  -1.520  1.00  0.00     0.164 HD
BRANCH  33  35
ATOM     35  C   UNL     1      11.130   1.655  -3.296  1.00  0.00     0.194 C 
BRANCH  35  36
ATOM     36  C   UNL     1      12.015   0.425  -2.950  1.00  0.00     0.017 C 
ATOM     37  C   UNL     1      12.064   0.181  -1.431  1.00  0.00     0.010 C 
ATOM     38  C   UNL     1      13.462   0.566  -3.438  1.00  0.00     0.010 C 
ENDBRANCH  35  36
BRANCH  35  39
ATOM     39  C   UNL     1      11.984   2.912  -3.624  1.00  0.00     0.329 C 
ATOM     40  O   UNL     1      12.369   3.206  -4.749  1.00  0.00    -0.250 OA
BRANCH  39  41
ATOM     41  O   UNL     1      12.187   3.703  -2.527  1.00  0.00    -0.458 OA
BRANCH  41  42
ATOM     42  C   UNL     1      11.995   5.125  -2.718  1.00  0.00     0.205 CG0
ATOM     43  C   UNL     1      10.512   5.416  -2.498  1.00  0.00     0.056 C 
ATOM     44  G   UNL     1      12.465   5.499  -4.137  1.00  0.00     0.000 G0
ENDBRANCH  41  42
ENDBRANCH  39  41
ENDBRANCH  35  39
ENDBRANCH  33  35
ENDBRANCH  23  31
ENDBRANCH  21  23
ENDBRANCH  19  21
ENDBRANCH  14  19
ENDBRANCH   7  14
ENDBRANCH   2   5
BRANCH   3  45
ATOM     45  C   UNL     1       2.667  -4.385   5.357  1.00  0.00     0.171 C 
BRANCH  45  46
ATOM     46  N   UNL     1       1.952  -5.646   5.502  1.00  0.00    -0.342 N 
ATOM     47  C   UNL     1       2.222  -6.534   6.512  1.00  0.00     0.247 C 
ATOM     48  O   UNL     1       3.033  -6.300   7.409  1.00  0.00    -0.273 OA
ATOM     49  H   UNL     1       1.231  -5.854   4.813  1.00  0.00     0.164 HD
BRANCH  47  50
ATOM     50  C   UNL     1       1.457  -7.863   6.432  1.00  0.00     0.212 CG0
ATOM     51  G   UNL     1       0.818  -8.118   7.812  1.00  0.00     0.000 G0
BRANCH  50  52
ATOM     52  N   UNL     1       0.475  -7.683   5.366  1.00  0.00    -0.339 N 
ATOM     53  C   UNL     1       0.330  -8.557   4.316  1.00  0.00     0.243 C 
ATOM     54  O   UNL     1       1.056  -9.535   4.165  1.00  0.00    -0.273 OA
ATOM     55  H   UNL     1      -0.083  -6.831   5.376  1.00  0.00     0.164 HD
BRANCH  53  56
ATOM     56  C   UNL     1      -0.712  -8.113   3.269  1.00  0.00     0.182 C 
BRANCH  56  57
ATOM     57  N   UNL     1      -0.666  -6.662   3.063  1.00  0.00    -0.344 N 
ATOM     58  C   UNL     1      -0.409  -6.101   1.836  1.00  0.00     0.220 C 
ATOM     59  O   UNL     1      -0.130  -6.769   0.846  1.00  0.00    -0.275 OA
ATOM     60  H   UNL     1      -0.990  -6.077   3.829  1.00  0.00     0.164 HD
BRANCH  58  61
ATOM     61  C   UNL     1      -0.469  -4.584   1.844  1.00  0.00     0.100 C 
BRANCH  61  62
ATOM     62  C   UNL     1      -1.224  -4.003   3.040  1.00  0.00     0.010 C 
BRANCH  62  63
ATOM     63  C   UNL     1      -1.494  -2.497   2.939  1.00  0.00     0.000 C 
BRANCH  63  64
ATOM     64  C   UNL     1      -1.729  -1.811   4.284  1.00  0.00    -0.003 C 
ATOM     65  C   UNL     1      -0.758  -0.659   4.497  1.00  0.00     0.004 C 
ENDBRANCH  63  64
ENDBRANCH  62  63
ENDBRANCH  61  62
ENDBRANCH  58  61
ENDBRANCH  56  57
BRANCH  56  66
ATOM     66  C   UNL     1      -2.113  -8.599   3.633  1.00  0.00     0.157 C 
BRANCH  66  67
ATOM     67  C   UNL     1      -3.086  -7.457   3.698  1.00  0.00     0.305 C 
ATOM     68  O   UNL     1      -3.267  -6.702   4.641  1.00  0.00    -0.252 OA
BRANCH  67  69
ATOM     69  O   UNL     1      -3.753  -7.286   2.541  1.00  0.00    -0.481 OA
ATOM     70  H   UNL     1      -3.088  -7.457   1.841  1.00  0.00     0.296 HD
ENDBRANCH  67  69
ENDBRANCH  66  67
ENDBRANCH  56  66
ENDBRANCH  53  56
ENDBRANCH  50  52
ENDBRANCH  47  50
ENDBRANCH  45  46
BRANCH  45  71
ATOM     71  C   UNL     1       1.718  -3.184   5.439  1.00  0.00     0.037 C 
BRANCH  71  72
ATOM     72  C   UNL     1       1.797  -2.478   6.795  1.00  0.00     0.026 C 
BRANCH  72  73
ATOM     73  C   UNL     1       0.620  -2.854   7.691  1.00  0.00     0.146 C 
BRANCH  73  74
ATOM     74  N   UNL     1      -0.214  -3.803   6.959  1.00  0.00    -0.254 NA
ATOM     75  C   UNL     1      -0.974  -4.581   7.639  1.00  0.00     0.185 C 
ATOM     76  N   UNL     1      -1.754  -5.463   6.993  1.00  0.00    -0.370 N 
ATOM     77  N   UNL     1      -1.125  -4.661   8.972  1.00  0.00    -0.370 N 
ATOM     78  H   UNL     1      -1.695  -5.474   5.985  1.00  0.00     0.159 HD
ATOM     79  H   UNL     1      -2.261  -6.196   7.457  1.00  0.00     0.159 HD
ATOM     80  H   UNL     1      -0.604  -4.054   9.586  1.00  0.00     0.159 HD
ATOM     81  H   UNL     1      -1.840  -5.234   9.389  1.00  0.00     0.159 HD
ENDBRANCH  73  74
ENDBRANCH  72  73
ENDBRANCH  71  72
ENDBRANCH  45  71
ENDBRANCH   3  45
TORSDOF 20
ENDMDL
MODEL 22
REMARK VINA RESULT:    -5.623      5.392     12.796
REMARK INTER + INTRA:         -24.208
REMARK INTER:                 -17.350
REMARK INTRA:                  -6.858
REMARK UNBOUND:                -8.064
REMARK SMILES CCCCCC(=O)N[C@H](CC(=O)O)C(=O)N[C@H]1C(=O)N[C@H](CCCN=C(N)N)C(=O)N[C@@H]2CC[C@H](O)N(C2=O)[C@@H](CC(C)C)C(=O)N(C)[C@@H](Cc2ccccc2)C(=O)N[C@H](C(C)C)C(=O)O[C@@H]1C
REMARK SMILES IDX 30 1 31 2 29 3 32 5 35 6 37 7 34 8 38 9 33 10 39 11 36 12
REMARK SMILES IDX 40 14 41 15 42 16 43 17 44 18 45 19 46 20 47 21 48 22 49 23
REMARK SMILES IDX 50 24 51 25 52 26 56 27 53 28 55 29 54 30 57 31 58 32 59 33
REMARK SMILES IDX 60 35 61 36 62 37 63 38 64 39 65 40 66 41 67 42 68 43 21 45
REMARK SMILES IDX 20 46 18 47 19 48 17 50 16 52 14 53 15 54 9 56 8 57 6 58
REMARK SMILES IDX 7 59 5 61 4 62 3 63 2 64 1 65 10 66 11 67 12 68 13 69 22 71
REMARK SMILES IDX 23 72 24 73 25 74 26 75 27 76 28 77
REMARK H PARENT 31 4 36 13 59 34 20 49 16 55 8 60 13 70 27 78 27 79 28 80
REMARK H PARENT 28 81
REMARK Flexibility Score:  259.900
ROOT
ATOM      1  O   UNL     1       1.871  -0.140  -0.568  1.00  0.00    -0.273 OA
ATOM      2  N   UNL     1       1.449  -0.307   1.674  1.00  0.00    -0.343 N 
ATOM      3  C   UNL     1       2.094   0.236   0.583  1.00  0.00     0.243 C 
ATOM      4  H   UNL     1       1.648   0.037   2.605  1.00  0.00     0.164 HD
ENDROOT
BRANCH   2   5
ATOM      5  C   UNL     1       0.550  -1.445   1.514  1.00  0.00     0.171 C 
ATOM      6  C   UNL     1      -0.605  -3.315   3.404  1.00  0.00     0.214 C 
ATOM      7  N   UNL     1       0.656  -3.629   2.775  1.00  0.00    -0.303 N 
ATOM      8  C   UNL     1      -1.512  -2.456   2.537  1.00  0.00     0.057 C 
ATOM      9  C   UNL     1       1.288  -2.758   1.902  1.00  0.00     0.247 C 
ATOM     10  C   UNL     1      -0.803  -1.171   2.169  1.00  0.00     0.040 C 
ATOM     11  O   UNL     1       2.410  -2.996   1.435  1.00  0.00    -0.272 OA
BRANCH   6  12
ATOM     12  O   UNL     1      -0.329  -2.665   4.623  1.00  0.00    -0.373 OA
ATOM     13  H   UNL     1       0.612  -2.388   4.594  1.00  0.00     0.213 HD
ENDBRANCH   6  12
BRANCH   7  14
ATOM     14  C   UNL     1       1.333  -4.868   3.213  1.00  0.00     0.177 C 
BRANCH  14  15
ATOM     15  C   UNL     1       1.933  -4.822   4.632  1.00  0.00     0.038 C 
BRANCH  15  16
ATOM     16  C   UNL     1       3.001  -3.759   4.972  1.00  0.00    -0.015 C 
ATOM     17  C   UNL     1       4.428  -4.284   4.788  1.00  0.00     0.007 C 
ATOM     18  C   UNL     1       2.839  -3.309   6.430  1.00  0.00     0.007 C 
ENDBRANCH  15  16
ENDBRANCH  14  15
BRANCH  14  19
ATOM     19  C   UNL     1       0.656  -6.119   2.555  1.00  0.00     0.245 C 
ATOM     20  O   UNL     1       1.279  -6.674   1.634  1.00  0.00    -0.272 OA
BRANCH  19  21
ATOM     21  N   UNL     1      -0.620  -6.557   2.864  1.00  0.00    -0.332 N 
ATOM     22  C   UNL     1      -1.756  -6.547   1.960  1.00  0.00     0.147 C 
BRANCH  21  23
ATOM     23  C   UNL     1      -0.864  -7.075   4.239  1.00  0.00     0.178 C 
BRANCH  23  24
ATOM     24  C   UNL     1      -2.038  -6.404   4.982  1.00  0.00     0.070 C 
BRANCH  24  25
ATOM     25  C   UNL     1      -1.691  -5.496   6.139  1.00  0.00    -0.045 A 
ATOM     26  C   UNL     1      -2.575  -4.491   6.552  1.00  0.00     0.004 A 
ATOM     27  C   UNL     1      -0.470  -5.646   6.814  1.00  0.00     0.004 A 
ATOM     28  C   UNL     1      -2.239  -3.645   7.611  1.00  0.00     0.000 A 
ATOM     29  C   UNL     1      -0.137  -4.800   7.873  1.00  0.00     0.000 A 
ATOM     30  C   UNL     1      -1.021  -3.798   8.269  1.00  0.00     0.000 A 
ENDBRANCH  24  25
ENDBRANCH  23  24
BRANCH  23  31
ATOM     31  C   UNL     1      -0.843  -8.620   4.315  1.00  0.00     0.243 C 
ATOM     32  O   UNL     1      -0.070  -9.329   3.674  1.00  0.00    -0.273 OA
ATOM     33  N   UNL     1      -1.900  -9.153   5.032  1.00  0.00    -0.341 N 
ATOM     34  H   UNL     1      -2.515  -8.512   5.540  1.00  0.00     0.164 HD
BRANCH  33  35
ATOM     35  C   UNL     1      -2.149 -10.593   5.137  1.00  0.00     0.194 C 
BRANCH  35  36
ATOM     36  C   UNL     1      -3.246 -11.121   4.169  1.00  0.00     0.017 C 
ATOM     37  C   UNL     1      -2.629 -11.905   2.998  1.00  0.00     0.010 C 
ATOM     38  C   UNL     1      -4.109 -10.004   3.569  1.00  0.00     0.010 C 
ENDBRANCH  35  36
BRANCH  35  39
ATOM     39  C   UNL     1      -2.398 -11.052   6.601  1.00  0.00     0.329 C 
ATOM     40  O   UNL     1      -1.506 -11.280   7.410  1.00  0.00    -0.250 OA
BRANCH  39  41
ATOM     41  O   UNL     1      -3.728 -11.090   6.915  1.00  0.00    -0.458 OA
BRANCH  41  42
ATOM     42  C   UNL     1      -4.163 -12.207   7.728  1.00  0.00     0.205 CG0
ATOM     43  C   UNL     1      -4.248 -13.428   6.814  1.00  0.00     0.056 C 
ATOM     44  G   UNL     1      -5.522 -11.851   8.364  1.00  0.00     0.000 G0
ENDBRANCH  41  42
ENDBRANCH  39  41
ENDBRANCH  35  39
ENDBRANCH  33  35
ENDBRANCH  23  31
ENDBRANCH  21  23
ENDBRANCH  19  21
ENDBRANCH  14  19
ENDBRANCH   7  14
ENDBRANCH   2   5
BRANCH   3  45
ATOM     45  C   UNL     1       3.095   1.355   0.901  1.00  0.00     0.171 C 
BRANCH  45  46
ATOM     46  N   UNL     1       3.822   1.597  -0.337  1.00  0.00    -0.342 N 
ATOM     47  C   UNL     1       3.595   2.699  -1.122  1.00  0.00     0.247 C 
ATOM     48  O   UNL     1       2.815   3.597  -0.803  1.00  0.00    -0.273 OA
ATOM     49  H   UNL     1       4.518   0.905  -0.611  1.00  0.00     0.164 HD
BRANCH  47  50
ATOM     50  C   UNL     1       4.364   2.722  -2.450  1.00  0.00     0.212 CG0
ATOM     51  G   UNL     1       3.737   3.817  -3.335  1.00  0.00     0.000 G0
BRANCH  50  52
ATOM     52  N   UNL     1       5.753   2.996  -2.091  1.00  0.00    -0.339 N 
ATOM     53  C   UNL     1       6.703   2.014  -1.941  1.00  0.00     0.243 C 
ATOM     54  O   UNL     1       6.442   0.819  -2.047  1.00  0.00    -0.273 OA
ATOM     55  H   UNL     1       6.006   3.959  -1.881  1.00  0.00     0.164 HD
BRANCH  53  56
ATOM     56  C   UNL     1       8.076   2.536  -1.474  1.00  0.00     0.182 C 
BRANCH  56  57
ATOM     57  N   UNL     1       8.558   3.609  -2.350  1.00  0.00    -0.344 N 
ATOM     58  C   UNL     1       8.339   4.937  -2.077  1.00  0.00     0.220 C 
ATOM     59  O   UNL     1       7.666   5.316  -1.124  1.00  0.00    -0.275 OA
ATOM     60  H   UNL     1       9.203   3.344  -3.090  1.00  0.00     0.164 HD
BRANCH  58  61
ATOM     61  C   UNL     1       8.977   5.872  -3.087  1.00  0.00     0.100 C 
BRANCH  61  62
ATOM     62  C   UNL     1      10.340   5.398  -3.591  1.00  0.00     0.010 C 
BRANCH  62  63
ATOM     63  C   UNL     1      11.346   6.529  -3.838  1.00  0.00     0.000 C 
BRANCH  63  64
ATOM     64  C   UNL     1      10.844   7.914  -3.433  1.00  0.00    -0.003 C 
ATOM     65  C   UNL     1      11.825   9.003  -3.844  1.00  0.00     0.004 C 
ENDBRANCH  63  64
ENDBRANCH  62  63
ENDBRANCH  61  62
ENDBRANCH  58  61
ENDBRANCH  56  57
BRANCH  56  66
ATOM     66  C   UNL     1       9.091   1.402  -1.340  1.00  0.00     0.157 C 
BRANCH  66  67
ATOM     67  C   UNL     1      10.286   1.635  -2.218  1.00  0.00     0.305 C 
ATOM     68  O   UNL     1      10.415   1.297  -3.385  1.00  0.00    -0.252 OA
BRANCH  67  69
ATOM     69  O   UNL     1      11.251   2.336  -1.594  1.00  0.00    -0.481 OA
ATOM     70  H   UNL     1      11.443   3.088  -2.193  1.00  0.00     0.296 HD
ENDBRANCH  67  69
ENDBRANCH  66  67
ENDBRANCH  56  66
ENDBRANCH  53  56
ENDBRANCH  50  52
ENDBRANCH  47  50
ENDBRANCH  45  46
BRANCH  45  71
ATOM     71  C   UNL     1       4.033   0.926   2.034  1.00  0.00     0.037 C 
BRANCH  71  72
ATOM     72  C   UNL     1       5.495   1.265   1.731  1.00  0.00     0.026 C 
BRANCH  72  73
ATOM     73  C   UNL     1       5.913   2.579   2.388  1.00  0.00     0.146 C 
BRANCH  73  74
ATOM     74  N   UNL     1       5.986   3.597   1.344  1.00  0.00    -0.254 NA
ATOM     75  C   UNL     1       5.094   4.517   1.342  1.00  0.00     0.185 C 
ATOM     76  N   UNL     1       5.136   5.469   0.396  1.00  0.00    -0.370 N 
ATOM     77  N   UNL     1       4.063   4.696   2.186  1.00  0.00    -0.370 N 
ATOM     78  H   UNL     1       5.879   5.405  -0.285  1.00  0.00     0.159 HD
ATOM     79  H   UNL     1       4.396   6.132   0.244  1.00  0.00     0.159 HD
ATOM     80  H   UNL     1       3.909   4.058   2.952  1.00  0.00     0.159 HD
ATOM     81  H   UNL     1       3.492   5.525   2.154  1.00  0.00     0.159 HD
ENDBRANCH  73  74
ENDBRANCH  72  73
ENDBRANCH  71  72
ENDBRANCH  45  71
ENDBRANCH   3  45
TORSDOF 20
ENDMDL
MODEL 23
REMARK VINA RESULT:    -5.618      4.670     12.280
REMARK INTER + INTRA:         -24.192
REMARK INTER:                 -18.673
REMARK INTRA:                  -5.520
REMARK UNBOUND:                -8.064
REMARK SMILES CCCCCC(=O)N[C@H](CC(=O)O)C(=O)N[C@H]1C(=O)N[C@H](CCCN=C(N)N)C(=O)N[C@@H]2CC[C@H](O)N(C2=O)[C@@H](CC(C)C)C(=O)N(C)[C@@H](Cc2ccccc2)C(=O)N[C@H](C(C)C)C(=O)O[C@@H]1C
REMARK SMILES IDX 30 1 31 2 29 3 32 5 35 6 37 7 34 8 38 9 33 10 39 11 36 12
REMARK SMILES IDX 40 14 41 15 42 16 43 17 44 18 45 19 46 20 47 21 48 22 49 23
REMARK SMILES IDX 50 24 51 25 52 26 56 27 53 28 55 29 54 30 57 31 58 32 59 33
REMARK SMILES IDX 60 35 61 36 62 37 63 38 64 39 65 40 66 41 67 42 68 43 21 45
REMARK SMILES IDX 20 46 18 47 19 48 17 50 16 52 14 53 15 54 9 56 8 57 6 58
REMARK SMILES IDX 7 59 5 61 4 62 3 63 2 64 1 65 10 66 11 67 12 68 13 69 22 71
REMARK SMILES IDX 23 72 24 73 25 74 26 75 27 76 28 77
REMARK H PARENT 31 4 36 13 59 34 20 49 16 55 8 60 13 70 27 78 27 79 28 80
REMARK H PARENT 28 81
REMARK Flexibility Score:  259.900
ROOT
ATOM      1  O   UNL     1       1.497  -0.579  -0.466  1.00  0.00    -0.273 OA
ATOM      2  N   UNL     1       1.363  -0.653   1.816  1.00  0.00    -0.343 N 
ATOM      3  C   UNL     1       1.849  -0.144   0.631  1.00  0.00     0.243 C 
ATOM      4  H   UNL     1       1.664  -0.261   2.699  1.00  0.00     0.164 HD
ENDROOT
BRANCH   2   5
ATOM      5  C   UNL     1       0.489  -1.822   1.819  1.00  0.00     0.171 C 
ATOM      6  C   UNL     1      -0.873  -3.249   3.943  1.00  0.00     0.214 C 
ATOM      7  N   UNL     1       0.452  -3.663   3.546  1.00  0.00    -0.303 N 
ATOM      8  C   UNL     1      -1.676  -2.632   2.809  1.00  0.00     0.057 C 
ATOM      9  C   UNL     1       1.179  -2.994   2.575  1.00  0.00     0.247 C 
ATOM     10  C   UNL     1      -0.930  -1.444   2.240  1.00  0.00     0.040 C 
ATOM     11  O   UNL     1       2.347  -3.300   2.302  1.00  0.00    -0.272 OA
BRANCH   6  12
ATOM     12  O   UNL     1      -0.739  -2.334   5.006  1.00  0.00    -0.373 OA
ATOM     13  H   UNL     1       0.221  -2.240   5.185  1.00  0.00     0.213 HD
ENDBRANCH   6  12
BRANCH   7  14
ATOM     14  C   UNL     1       1.076  -4.753   4.326  1.00  0.00     0.177 C 
BRANCH  14  15
ATOM     15  C   UNL     1       1.041  -4.568   5.856  1.00  0.00     0.038 C 
BRANCH  15  16
ATOM     16  C   UNL     1       2.342  -4.212   6.609  1.00  0.00    -0.015 C 
ATOM     17  C   UNL     1       2.614  -2.705   6.627  1.00  0.00     0.007 C 
ATOM     18  C   UNL     1       3.535  -4.908   5.941  1.00  0.00     0.007 C 
ENDBRANCH  15  16
ENDBRANCH  14  15
BRANCH  14  19
ATOM     19  C   UNL     1       0.918  -6.119   3.574  1.00  0.00     0.245 C 
ATOM     20  O   UNL     1       1.932  -6.832   3.490  1.00  0.00    -0.272 OA
BRANCH  19  21
ATOM     21  N   UNL     1      -0.236  -6.508   2.916  1.00  0.00    -0.332 N 
ATOM     22  C   UNL     1      -0.498  -6.332   1.499  1.00  0.00     0.147 C 
BRANCH  21  23
ATOM     23  C   UNL     1      -1.311  -7.153   3.720  1.00  0.00     0.178 C 
BRANCH  23  24
ATOM     24  C   UNL     1      -2.651  -6.390   3.736  1.00  0.00     0.070 C 
BRANCH  24  25
ATOM     25  C   UNL     1      -3.300  -6.167   5.082  1.00  0.00    -0.045 A 
ATOM     26  C   UNL     1      -2.770  -5.242   5.991  1.00  0.00     0.004 A 
ATOM     27  C   UNL     1      -4.446  -6.892   5.443  1.00  0.00     0.004 A 
ATOM     28  C   UNL     1      -3.366  -5.055   7.239  1.00  0.00     0.000 A 
ATOM     29  C   UNL     1      -5.041  -6.703   6.692  1.00  0.00     0.000 A 
ATOM     30  C   UNL     1      -4.499  -5.786   7.590  1.00  0.00     0.000 A 
ENDBRANCH  24  25
ENDBRANCH  23  24
BRANCH  23  31
ATOM     31  C   UNL     1      -1.430  -8.673   3.459  1.00  0.00     0.243 C 
ATOM     32  O   UNL     1      -0.471  -9.440   3.416  1.00  0.00    -0.273 OA
ATOM     33  N   UNL     1      -2.703  -9.073   3.090  1.00  0.00    -0.341 N 
ATOM     34  H   UNL     1      -3.461  -8.387   3.140  1.00  0.00     0.164 HD
BRANCH  33  35
ATOM     35  C   UNL     1      -3.023 -10.444   2.681  1.00  0.00     0.194 C 
BRANCH  35  36
ATOM     36  C   UNL     1      -3.407 -10.586   1.182  1.00  0.00     0.017 C 
ATOM     37  C   UNL     1      -2.266 -11.223   0.370  1.00  0.00     0.010 C 
ATOM     38  C   UNL     1      -3.751  -9.247   0.517  1.00  0.00     0.010 C 
ENDBRANCH  35  36
BRANCH  35  39
ATOM     39  C   UNL     1      -4.068 -11.117   3.614  1.00  0.00     0.329 C 
ATOM     40  O   UNL     1      -5.066 -10.553   4.048  1.00  0.00    -0.250 OA
BRANCH  39  41
ATOM     41  O   UNL     1      -3.797 -12.440   3.829  1.00  0.00    -0.458 OA
BRANCH  41  42
ATOM     42  C   UNL     1      -4.363 -13.025   5.027  1.00  0.00     0.205 CG0
ATOM     43  C   UNL     1      -3.198 -13.481   5.903  1.00  0.00     0.056 C 
ATOM     44  G   UNL     1      -5.284 -14.190   4.617  1.00  0.00     0.000 G0
ENDBRANCH  41  42
ENDBRANCH  39  41
ENDBRANCH  35  39
ENDBRANCH  33  35
ENDBRANCH  23  31
ENDBRANCH  21  23
ENDBRANCH  19  21
ENDBRANCH  14  19
ENDBRANCH   7  14
ENDBRANCH   2   5
BRANCH   3  45
ATOM     45  C   UNL     1       2.844   1.016   0.773  1.00  0.00     0.171 C 
BRANCH  45  46
ATOM     46  N   UNL     1       2.926   1.628  -0.546  1.00  0.00    -0.342 N 
ATOM     47  C   UNL     1       2.627   2.949  -0.765  1.00  0.00     0.247 C 
ATOM     48  O   UNL     1       2.341   3.729   0.145  1.00  0.00    -0.273 OA
ATOM     49  H   UNL     1       3.214   1.031  -1.320  1.00  0.00     0.164 HD
BRANCH  47  50
ATOM     50  C   UNL     1       2.648   3.386  -2.236  1.00  0.00     0.212 CG0
ATOM     51  G   UNL     1       2.129   4.836  -2.301  1.00  0.00     0.000 G0
BRANCH  50  52
ATOM     52  N   UNL     1       4.039   3.252  -2.662  1.00  0.00    -0.339 N 
ATOM     53  C   UNL     1       4.897   4.317  -2.788  1.00  0.00     0.243 C 
ATOM     54  O   UNL     1       4.543   5.478  -2.601  1.00  0.00    -0.273 OA
ATOM     55  H   UNL     1       4.361   2.327  -2.939  1.00  0.00     0.164 HD
BRANCH  53  56
ATOM     56  C   UNL     1       6.289   3.941  -3.336  1.00  0.00     0.182 C 
BRANCH  56  57
ATOM     57  N   UNL     1       6.761   2.681  -2.752  1.00  0.00    -0.344 N 
ATOM     58  C   UNL     1       7.559   1.803  -3.444  1.00  0.00     0.220 C 
ATOM     59  O   UNL     1       7.870   1.973  -4.617  1.00  0.00    -0.275 OA
ATOM     60  H   UNL     1       6.612   2.551  -1.755  1.00  0.00     0.164 HD
BRANCH  58  61
ATOM     61  C   UNL     1       7.976   0.595  -2.624  1.00  0.00     0.100 C 
BRANCH  61  62
ATOM     62  C   UNL     1       6.947  -0.536  -2.627  1.00  0.00     0.010 C 
BRANCH  62  63
ATOM     63  C   UNL     1       7.506  -1.890  -3.082  1.00  0.00     0.000 C 
BRANCH  63  64
ATOM     64  C   UNL     1       7.556  -2.949  -1.981  1.00  0.00    -0.003 C 
ATOM     65  C   UNL     1       8.772  -2.763  -1.086  1.00  0.00     0.004 C 
ENDBRANCH  63  64
ENDBRANCH  62  63
ENDBRANCH  61  62
ENDBRANCH  58  61
ENDBRANCH  56  57
BRANCH  56  66
ATOM     66  C   UNL     1       7.292   5.077  -3.146  1.00  0.00     0.157 C 
BRANCH  66  67
ATOM     67  C   UNL     1       7.985   5.412  -4.435  1.00  0.00     0.305 C 
ATOM     68  O   UNL     1       8.920   6.184  -4.585  1.00  0.00    -0.252 OA
BRANCH  67  69
ATOM     69  O   UNL     1       7.495   4.713  -5.476  1.00  0.00    -0.481 OA
ATOM     70  H   UNL     1       8.128   4.876  -6.207  1.00  0.00     0.296 HD
ENDBRANCH  67  69
ENDBRANCH  66  67
ENDBRANCH  56  66
ENDBRANCH  53  56
ENDBRANCH  50  52
ENDBRANCH  47  50
ENDBRANCH  45  46
BRANCH  45  71
ATOM     71  C   UNL     1       4.207   0.495   1.241  1.00  0.00     0.037 C 
BRANCH  71  72
ATOM     72  C   UNL     1       4.674  -0.712   0.424  1.00  0.00     0.026 C 
BRANCH  72  73
ATOM     73  C   UNL     1       6.025  -1.230   0.912  1.00  0.00     0.146 C 
BRANCH  73  74
ATOM     74  N   UNL     1       5.775  -2.357   1.806  1.00  0.00    -0.254 NA
ATOM     75  C   UNL     1       6.502  -2.461   2.857  1.00  0.00     0.185 C 
ATOM     76  N   UNL     1       6.295  -3.486   3.699  1.00  0.00    -0.370 N 
ATOM     77  N   UNL     1       7.496  -1.660   3.279  1.00  0.00    -0.370 N 
ATOM     78  H   UNL     1       5.567  -4.141   3.452  1.00  0.00     0.159 HD
ATOM     79  H   UNL     1       6.913  -3.712   4.458  1.00  0.00     0.159 HD
ATOM     80  H   UNL     1       7.761  -0.845   2.746  1.00  0.00     0.159 HD
ATOM     81  H   UNL     1       7.921  -1.778   4.184  1.00  0.00     0.159 HD
ENDBRANCH  73  74
ENDBRANCH  72  73
ENDBRANCH  71  72
ENDBRANCH  45  71
ENDBRANCH   3  45
TORSDOF 20
ENDMDL
MODEL 24
REMARK VINA RESULT:    -5.613      6.965     12.608
REMARK INTER + INTRA:         -24.178
REMARK INTER:                 -18.566
REMARK INTRA:                  -5.612
REMARK UNBOUND:                -8.064
REMARK SMILES CCCCCC(=O)N[C@H](CC(=O)O)C(=O)N[C@H]1C(=O)N[C@H](CCCN=C(N)N)C(=O)N[C@@H]2CC[C@H](O)N(C2=O)[C@@H](CC(C)C)C(=O)N(C)[C@@H](Cc2ccccc2)C(=O)N[C@H](C(C)C)C(=O)O[C@@H]1C
REMARK SMILES IDX 30 1 31 2 29 3 32 5 35 6 37 7 34 8 38 9 33 10 39 11 36 12
REMARK SMILES IDX 40 14 41 15 42 16 43 17 44 18 45 19 46 20 47 21 48 22 49 23
REMARK SMILES IDX 50 24 51 25 52 26 56 27 53 28 55 29 54 30 57 31 58 32 59 33
REMARK SMILES IDX 60 35 61 36 62 37 63 38 64 39 65 40 66 41 67 42 68 43 21 45
REMARK SMILES IDX 20 46 18 47 19 48 17 50 16 52 14 53 15 54 9 56 8 57 6 58
REMARK SMILES IDX 7 59 5 61 4 62 3 63 2 64 1 65 10 66 11 67 12 68 13 69 22 71
REMARK SMILES IDX 23 72 24 73 25 74 26 75 27 76 28 77
REMARK H PARENT 31 4 36 13 59 34 20 49 16 55 8 60 13 70 27 78 27 79 28 80
REMARK H PARENT 28 81
REMARK Flexibility Score:  259.900
ROOT
ATOM      1  O   UNL     1       6.664  -0.764   1.010  1.00  0.00    -0.273 OA
ATOM      2  N   UNL     1       4.555  -0.487   0.169  1.00  0.00    -0.343 N 
ATOM      3  C   UNL     1       5.921  -0.308   0.139  1.00  0.00     0.243 C 
ATOM      4  H   UNL     1       3.977  -0.110  -0.573  1.00  0.00     0.164 HD
ENDROOT
BRANCH   2   5
ATOM      5  C   UNL     1       3.915  -1.130   1.311  1.00  0.00     0.171 C 
ATOM      6  C   UNL     1       1.151  -1.317   2.165  1.00  0.00     0.214 C 
ATOM      7  N   UNL     1       1.970  -0.229   2.645  1.00  0.00    -0.303 N 
ATOM      8  C   UNL     1       1.941  -2.583   1.874  1.00  0.00     0.057 C 
ATOM      9  C   UNL     1       3.283  -0.052   2.237  1.00  0.00     0.247 C 
ATOM     10  C   UNL     1       3.026  -2.288   0.861  1.00  0.00     0.040 C 
ATOM     11  O   UNL     1       3.951   0.930   2.585  1.00  0.00    -0.272 OA
BRANCH   6  12
ATOM     12  O   UNL     1       0.485  -0.874   1.005  1.00  0.00    -0.373 OA
ATOM     13  H   UNL     1      -0.004  -0.059   1.247  1.00  0.00     0.213 HD
ENDBRANCH   6  12
BRANCH   7  14
ATOM     14  C   UNL     1       1.307   0.789   3.487  1.00  0.00     0.177 C 
BRANCH  14  15
ATOM     15  C   UNL     1       0.446   1.814   2.723  1.00  0.00     0.038 C 
BRANCH  15  16
ATOM     16  C   UNL     1       1.049   3.186   2.349  1.00  0.00    -0.015 C 
ATOM     17  C   UNL     1       1.785   3.155   1.007  1.00  0.00     0.007 C 
ATOM     18  C   UNL     1       2.041   3.629   3.432  1.00  0.00     0.007 C 
ENDBRANCH  15  16
ENDBRANCH  14  15
BRANCH  14  19
ATOM     19  C   UNL     1       0.969   0.192   4.897  1.00  0.00     0.245 C 
ATOM     20  O   UNL     1       0.341  -0.879   4.914  1.00  0.00    -0.272 OA
BRANCH  19  21
ATOM     21  N   UNL     1       1.229   0.840   6.091  1.00  0.00    -0.332 N 
ATOM     22  C   UNL     1       2.547   1.070   6.656  1.00  0.00     0.147 C 
BRANCH  21  23
ATOM     23  C   UNL     1       0.069   1.339   6.879  1.00  0.00     0.178 C 
BRANCH  23  24
ATOM     24  C   UNL     1      -0.925   2.210   6.084  1.00  0.00     0.070 C 
BRANCH  24  25
ATOM     25  C   UNL     1      -0.620   3.686   5.983  1.00  0.00    -0.045 A 
ATOM     26  C   UNL     1       0.435   4.252   6.711  1.00  0.00     0.004 A 
ATOM     27  C   UNL     1      -1.396   4.515   5.159  1.00  0.00     0.004 A 
ATOM     28  C   UNL     1       0.700   5.620   6.625  1.00  0.00     0.000 A 
ATOM     29  C   UNL     1      -1.129   5.882   5.074  1.00  0.00     0.000 A 
ATOM     30  C   UNL     1      -0.082   6.434   5.809  1.00  0.00     0.000 A 
ENDBRANCH  24  25
ENDBRANCH  23  24
BRANCH  23  31
ATOM     31  C   UNL     1      -0.582   0.243   7.756  1.00  0.00     0.243 C 
ATOM     32  O   UNL     1       0.041  -0.676   8.282  1.00  0.00    -0.273 OA
ATOM     33  N   UNL     1      -1.966   0.277   7.747  1.00  0.00    -0.341 N 
ATOM     34  H   UNL     1      -2.429   1.064   7.287  1.00  0.00     0.164 HD
BRANCH  33  35
ATOM     35  C   UNL     1      -2.794  -0.735   8.409  1.00  0.00     0.194 C 
BRANCH  35  36
ATOM     36  C   UNL     1      -3.621  -1.617   7.431  1.00  0.00     0.017 C 
ATOM     37  C   UNL     1      -3.719  -3.068   7.934  1.00  0.00     0.010 C 
ATOM     38  C   UNL     1      -3.036  -1.661   6.015  1.00  0.00     0.010 C 
ENDBRANCH  35  36
BRANCH  35  39
ATOM     39  C   UNL     1      -3.677  -0.139   9.541  1.00  0.00     0.329 C 
ATOM     40  O   UNL     1      -3.377  -0.161  10.728  1.00  0.00    -0.250 OA
BRANCH  39  41
ATOM     41  O   UNL     1      -4.788   0.493   9.055  1.00  0.00    -0.458 OA
BRANCH  41  42
ATOM     42  C   UNL     1      -5.998   0.356   9.838  1.00  0.00     0.205 CG0
ATOM     43  C   UNL     1      -6.701  -0.916   9.368  1.00  0.00     0.056 C 
ATOM     44  G   UNL     1      -6.861   1.616   9.634  1.00  0.00     0.000 G0
ENDBRANCH  41  42
ENDBRANCH  39  41
ENDBRANCH  35  39
ENDBRANCH  33  35
ENDBRANCH  23  31
ENDBRANCH  21  23
ENDBRANCH  19  21
ENDBRANCH  14  19
ENDBRANCH   7  14
ENDBRANCH   2   5
BRANCH   3  45
ATOM     45  C   UNL     1       6.456   0.479  -1.065  1.00  0.00     0.171 C 
BRANCH  45  46
ATOM     46  N   UNL     1       7.893   0.240  -1.085  1.00  0.00    -0.342 N 
ATOM     47  C   UNL     1       8.555  -0.168  -2.216  1.00  0.00     0.247 C 
ATOM     48  O   UNL     1       8.000  -0.290  -3.308  1.00  0.00    -0.273 OA
ATOM     49  H   UNL     1       8.401   0.384  -0.215  1.00  0.00     0.164 HD
BRANCH  47  50
ATOM     50  C   UNL     1      10.043  -0.489  -2.017  1.00  0.00     0.212 CG0
ATOM     51  G   UNL     1      10.312  -1.868  -2.651  1.00  0.00     0.000 G0
BRANCH  50  52
ATOM     52  N   UNL     1      10.767   0.598  -2.670  1.00  0.00    -0.339 N 
ATOM     53  C   UNL     1      11.050   1.794  -2.056  1.00  0.00     0.243 C 
ATOM     54  O   UNL     1      10.666   2.062  -0.921  1.00  0.00    -0.273 OA
ATOM     55  H   UNL     1      11.016   0.479  -3.650  1.00  0.00     0.164 HD
BRANCH  53  56
ATOM     56  C   UNL     1      11.747   2.820  -2.972  1.00  0.00     0.182 C 
BRANCH  56  57
ATOM     57  N   UNL     1      10.915   4.013  -3.156  1.00  0.00    -0.344 N 
ATOM     58  C   UNL     1      11.334   5.267  -2.785  1.00  0.00     0.220 C 
ATOM     59  O   UNL     1      12.398   5.468  -2.210  1.00  0.00    -0.275 OA
ATOM     60  H   UNL     1      10.074   3.906  -3.718  1.00  0.00     0.164 HD
BRANCH  58  61
ATOM     61  C   UNL     1      10.336   6.359  -3.122  1.00  0.00     0.100 C 
BRANCH  61  62
ATOM     62  C   UNL     1      10.496   7.623  -2.276  1.00  0.00     0.010 C 
BRANCH  62  63
ATOM     63  C   UNL     1      10.798   8.888  -3.090  1.00  0.00     0.000 C 
BRANCH  63  64
ATOM     64  C   UNL     1      12.085   8.814  -3.910  1.00  0.00    -0.003 C 
ATOM     65  C   UNL     1      13.315   8.827  -3.014  1.00  0.00     0.004 C 
ENDBRANCH  63  64
ENDBRANCH  62  63
ENDBRANCH  61  62
ENDBRANCH  58  61
ENDBRANCH  56  57
BRANCH  56  66
ATOM     66  C   UNL     1      12.159   2.194  -4.304  1.00  0.00     0.157 C 
BRANCH  66  67
ATOM     67  C   UNL     1      11.565   2.941  -5.463  1.00  0.00     0.305 C 
ATOM     68  O   UNL     1      12.083   3.853  -6.090  1.00  0.00    -0.252 OA
BRANCH  67  69
ATOM     69  O   UNL     1      10.355   2.464  -5.814  1.00  0.00    -0.481 OA
ATOM     70  H   UNL     1       9.745   3.222  -5.699  1.00  0.00     0.296 HD
ENDBRANCH  67  69
ENDBRANCH  66  67
ENDBRANCH  56  66
ENDBRANCH  53  56
ENDBRANCH  50  52
ENDBRANCH  47  50
ENDBRANCH  45  46
BRANCH  45  71
ATOM     71  C   UNL     1       6.132   1.969  -0.914  1.00  0.00     0.037 C 
BRANCH  71  72
ATOM     72  C   UNL     1       5.115   2.446  -1.955  1.00  0.00     0.026 C 
BRANCH  72  73
ATOM     73  C   UNL     1       4.705   3.897  -1.713  1.00  0.00     0.146 C 
BRANCH  73  74
ATOM     74  N   UNL     1       4.595   4.552  -3.013  1.00  0.00    -0.254 NA
ATOM     75  C   UNL     1       4.230   5.781  -3.035  1.00  0.00     0.185 C 
ATOM     76  N   UNL     1       4.121   6.412  -4.216  1.00  0.00    -0.370 N 
ATOM     77  N   UNL     1       3.922   6.590  -2.006  1.00  0.00    -0.370 N 
ATOM     78  H   UNL     1       4.329   5.872  -5.044  1.00  0.00     0.159 HD
ATOM     79  H   UNL     1       3.706   7.320  -4.322  1.00  0.00     0.159 HD
ATOM     80  H   UNL     1       3.963   6.251  -1.057  1.00  0.00     0.159 HD
ATOM     81  H   UNL     1       3.760   7.574  -2.139  1.00  0.00     0.159 HD
ENDBRANCH  73  74
ENDBRANCH  72  73
ENDBRANCH  71  72
ENDBRANCH  45  71
ENDBRANCH   3  45
TORSDOF 20
ENDMDL
MODEL 25
REMARK VINA RESULT:    -5.568      4.838      9.804
REMARK INTER + INTRA:         -24.047
REMARK INTER:                 -17.415
REMARK INTRA:                  -6.633
REMARK UNBOUND:                -8.064
REMARK SMILES CCCCCC(=O)N[C@H](CC(=O)O)C(=O)N[C@H]1C(=O)N[C@H](CCCN=C(N)N)C(=O)N[C@@H]2CC[C@H](O)N(C2=O)[C@@H](CC(C)C)C(=O)N(C)[C@@H](Cc2ccccc2)C(=O)N[C@H](C(C)C)C(=O)O[C@@H]1C
REMARK SMILES IDX 30 1 31 2 29 3 32 5 35 6 37 7 34 8 38 9 33 10 39 11 36 12
REMARK SMILES IDX 40 14 41 15 42 16 43 17 44 18 45 19 46 20 47 21 48 22 49 23
REMARK SMILES IDX 50 24 51 25 52 26 56 27 53 28 55 29 54 30 57 31 58 32 59 33
REMARK SMILES IDX 60 35 61 36 62 37 63 38 64 39 65 40 66 41 67 42 68 43 21 45
REMARK SMILES IDX 20 46 18 47 19 48 17 50 16 52 14 53 15 54 9 56 8 57 6 58
REMARK SMILES IDX 7 59 5 61 4 62 3 63 2 64 1 65 10 66 11 67 12 68 13 69 22 71
REMARK SMILES IDX 23 72 24 73 25 74 26 75 27 76 28 77
REMARK H PARENT 31 4 36 13 59 34 20 49 16 55 8 60 13 70 27 78 27 79 28 80
REMARK H PARENT 28 81
REMARK Flexibility Score:  259.900
ROOT
ATOM      1  O   UNL     1      -2.099  -2.853   6.892  1.00  0.00    -0.273 OA
ATOM      2  N   UNL     1      -1.908  -5.057   7.473  1.00  0.00    -0.343 N 
ATOM      3  C   UNL     1      -2.633  -3.908   7.237  1.00  0.00     0.243 C 
ATOM      4  H   UNL     1      -2.382  -5.910   7.741  1.00  0.00     0.164 HD
ENDROOT
BRANCH   2   5
ATOM      5  C   UNL     1      -0.450  -5.036   7.438  1.00  0.00     0.171 C 
ATOM      6  C   UNL     1       1.469  -2.965   6.777  1.00  0.00     0.214 C 
ATOM      7  N   UNL     1       0.993  -3.850   5.739  1.00  0.00    -0.303 N 
ATOM      8  C   UNL     1       1.495  -3.611   8.153  1.00  0.00     0.057 C 
ATOM      9  C   UNL     1       0.039  -4.826   5.976  1.00  0.00     0.247 C 
ATOM     10  C   UNL     1       0.111  -4.107   8.513  1.00  0.00     0.040 C 
ATOM     11  O   UNL     1      -0.427  -5.522   5.064  1.00  0.00    -0.272 OA
BRANCH   6  12
ATOM     12  O   UNL     1       0.641  -1.825   6.784  1.00  0.00    -0.373 OA
ATOM     13  H   UNL     1      -0.170  -2.061   7.283  1.00  0.00     0.213 HD
ENDBRANCH   6  12
BRANCH   7  14
ATOM     14  C   UNL     1       1.457  -3.578   4.362  1.00  0.00     0.177 C 
BRANCH  14  15
ATOM     15  C   UNL     1       0.812  -2.356   3.681  1.00  0.00     0.038 C 
BRANCH  15  16
ATOM     16  C   UNL     1      -0.454  -2.547   2.816  1.00  0.00    -0.015 C 
ATOM     17  C   UNL     1      -0.332  -1.876   1.445  1.00  0.00     0.007 C 
ATOM     18  C   UNL     1      -1.670  -1.950   3.536  1.00  0.00     0.007 C 
ENDBRANCH  15  16
ENDBRANCH  14  15
BRANCH  14  19
ATOM     19  C   UNL     1       2.949  -4.028   4.193  1.00  0.00     0.245 C 
ATOM     20  O   UNL     1       3.374  -4.873   5.000  1.00  0.00    -0.272 OA
BRANCH  19  21
ATOM     21  N   UNL     1       3.827  -3.462   3.286  1.00  0.00    -0.332 N 
ATOM     22  C   UNL     1       4.427  -2.145   3.403  1.00  0.00     0.147 C 
BRANCH  21  23
ATOM     23  C   UNL     1       4.187  -4.255   2.078  1.00  0.00     0.178 C 
BRANCH  23  24
ATOM     24  C   UNL     1       3.160  -4.184   0.930  1.00  0.00     0.070 C 
BRANCH  24  25
ATOM     25  C   UNL     1       2.289  -5.399   0.711  1.00  0.00    -0.045 A 
ATOM     26  C   UNL     1       2.726  -6.460  -0.093  1.00  0.00     0.004 A 
ATOM     27  C   UNL     1       1.022  -5.479   1.307  1.00  0.00     0.004 A 
ATOM     28  C   UNL     1       1.908  -7.572  -0.304  1.00  0.00     0.000 A 
ATOM     29  C   UNL     1       0.206  -6.591   1.096  1.00  0.00     0.000 A 
ATOM     30  C   UNL     1       0.649  -7.636   0.287  1.00  0.00     0.000 A 
ENDBRANCH  24  25
ENDBRANCH  23  24
BRANCH  23  31
ATOM     31  C   UNL     1       5.661  -4.063   1.647  1.00  0.00     0.243 C 
ATOM     32  O   UNL     1       6.623  -4.240   2.390  1.00  0.00    -0.273 OA
ATOM     33  N   UNL     1       5.800  -3.489   0.394  1.00  0.00    -0.341 N 
ATOM     34  H   UNL     1       4.961  -3.360  -0.176  1.00  0.00     0.164 HD
BRANCH  33  35
ATOM     35  C   UNL     1       7.097  -3.107  -0.170  1.00  0.00     0.194 C 
BRANCH  35  36
ATOM     36  C   UNL     1       7.056  -1.822  -1.044  1.00  0.00     0.017 C 
ATOM     37  C   UNL     1       7.749  -0.643  -0.340  1.00  0.00     0.010 C 
ATOM     38  C   UNL     1       5.631  -1.374  -1.393  1.00  0.00     0.010 C 
ENDBRANCH  35  36
BRANCH  35  39
ATOM     39  C   UNL     1       7.802  -4.284  -0.901  1.00  0.00     0.329 C 
ATOM     40  O   UNL     1       7.218  -5.111  -1.590  1.00  0.00    -0.250 OA
BRANCH  39  41
ATOM     41  O   UNL     1       9.162  -4.243  -0.760  1.00  0.00    -0.458 OA
BRANCH  41  42
ATOM     42  C   UNL     1       9.935  -4.804  -1.848  1.00  0.00     0.205 CG0
ATOM     43  C   UNL     1      10.820  -5.900  -1.258  1.00  0.00     0.056 C 
ATOM     44  G   UNL     1      10.755  -3.674  -2.502  1.00  0.00     0.000 G0
ENDBRANCH  41  42
ENDBRANCH  39  41
ENDBRANCH  35  39
ENDBRANCH  33  35
ENDBRANCH  23  31
ENDBRANCH  21  23
ENDBRANCH  19  21
ENDBRANCH  14  19
ENDBRANCH   7  14
ENDBRANCH   2   5
BRANCH   3  45
ATOM     45  C   UNL     1      -4.151  -4.041   7.413  1.00  0.00     0.171 C 
BRANCH  45  46
ATOM     46  N   UNL     1      -4.537  -2.972   8.324  1.00  0.00    -0.342 N 
ATOM     47  C   UNL     1      -5.378  -1.954   7.951  1.00  0.00     0.247 C 
ATOM     48  O   UNL     1      -5.924  -1.909   6.848  1.00  0.00    -0.273 OA
ATOM     49  H   UNL     1      -4.152  -3.002   9.267  1.00  0.00     0.164 HD
BRANCH  47  50
ATOM     50  C   UNL     1      -5.572  -0.852   9.003  1.00  0.00     0.212 CG0
ATOM     51  G   UNL     1      -5.837  -1.540  10.357  1.00  0.00     0.000 G0
BRANCH  50  52
ATOM     52  N   UNL     1      -4.336  -0.074   8.983  1.00  0.00    -0.339 N 
ATOM     53  C   UNL     1      -3.712   0.382  10.119  1.00  0.00     0.243 C 
ATOM     54  O   UNL     1      -4.178   0.214  11.243  1.00  0.00    -0.273 OA
ATOM     55  H   UNL     1      -3.960   0.194   8.076  1.00  0.00     0.164 HD
BRANCH  53  56
ATOM     56  C   UNL     1      -2.471   1.255   9.845  1.00  0.00     0.182 C 
BRANCH  56  57
ATOM     57  N   UNL     1      -2.201   1.351   8.407  1.00  0.00    -0.344 N 
ATOM     58  C   UNL     1      -2.256   2.542   7.725  1.00  0.00     0.220 C 
ATOM     59  O   UNL     1      -2.605   3.592   8.253  1.00  0.00    -0.275 OA
ATOM     60  H   UNL     1      -1.812   0.527   7.956  1.00  0.00     0.164 HD
BRANCH  58  61
ATOM     61  C   UNL     1      -1.884   2.414   6.260  1.00  0.00     0.100 C 
BRANCH  61  62
ATOM     62  C   UNL     1      -1.122   1.131   5.927  1.00  0.00     0.010 C 
BRANCH  62  63
ATOM     63  C   UNL     1       0.234   1.364   5.248  1.00  0.00     0.000 C 
BRANCH  63  64
ATOM     64  C   UNL     1       0.166   2.241   3.999  1.00  0.00    -0.003 C 
ATOM     65  C   UNL     1      -0.384   1.469   2.808  1.00  0.00     0.004 C 
ENDBRANCH  63  64
ENDBRANCH  62  63
ENDBRANCH  61  62
ENDBRANCH  58  61
ENDBRANCH  56  57
BRANCH  56  66
ATOM     66  C   UNL     1      -1.256   0.761  10.628  1.00  0.00     0.157 C 
BRANCH  66  67
ATOM     67  C   UNL     1      -0.570  -0.368   9.914  1.00  0.00     0.305 C 
ATOM     68  O   UNL     1       0.200  -0.277   8.969  1.00  0.00    -0.252 OA
BRANCH  67  69
ATOM     69  O   UNL     1      -0.850  -1.565  10.462  1.00  0.00    -0.481 OA
ATOM     70  H   UNL     1      -1.699  -1.836  10.053  1.00  0.00     0.296 HD
ENDBRANCH  67  69
ENDBRANCH  66  67
ENDBRANCH  56  66
ENDBRANCH  53  56
ENDBRANCH  50  52
ENDBRANCH  47  50
ENDBRANCH  45  46
BRANCH  45  71
ATOM     71  C   UNL     1      -4.504  -5.421   7.978  1.00  0.00     0.037 C 
BRANCH  71  72
ATOM     72  C   UNL     1      -5.411  -6.215   7.035  1.00  0.00     0.026 C 
BRANCH  72  73
ATOM     73  C   UNL     1      -6.178  -7.305   7.781  1.00  0.00     0.146 C 
BRANCH  73  74
ATOM     74  N   UNL     1      -7.512  -6.791   8.076  1.00  0.00    -0.254 NA
ATOM     75  C   UNL     1      -7.830  -6.621   9.306  1.00  0.00     0.185 C 
ATOM     76  N   UNL     1      -9.050  -6.148   9.609  1.00  0.00    -0.370 N 
ATOM     77  N   UNL     1      -7.096  -6.852  10.408  1.00  0.00    -0.370 N 
ATOM     78  H   UNL     1      -9.671  -5.954   8.836  1.00  0.00     0.159 HD
ATOM     79  H   UNL     1      -9.419  -6.126  10.543  1.00  0.00     0.159 HD
ATOM     80  H   UNL     1      -6.155  -7.207  10.333  1.00  0.00     0.159 HD
ATOM     81  H   UNL     1      -7.412  -6.571  11.321  1.00  0.00     0.159 HD
ENDBRANCH  73  74
ENDBRANCH  72  73
ENDBRANCH  71  72
ENDBRANCH  45  71
ENDBRANCH   3  45
TORSDOF 20
ENDMDL
MODEL 26
REMARK VINA RESULT:    -5.551      6.035     11.440
REMARK INTER + INTRA:         -23.998
REMARK INTER:                 -17.257
REMARK INTRA:                  -6.741
REMARK UNBOUND:                -8.064
REMARK SMILES CCCCCC(=O)N[C@H](CC(=O)O)C(=O)N[C@H]1C(=O)N[C@H](CCCN=C(N)N)C(=O)N[C@@H]2CC[C@H](O)N(C2=O)[C@@H](CC(C)C)C(=O)N(C)[C@@H](Cc2ccccc2)C(=O)N[C@H](C(C)C)C(=O)O[C@@H]1C
REMARK SMILES IDX 30 1 31 2 29 3 32 5 35 6 37 7 34 8 38 9 33 10 39 11 36 12
REMARK SMILES IDX 40 14 41 15 42 16 43 17 44 18 45 19 46 20 47 21 48 22 49 23
REMARK SMILES IDX 50 24 51 25 52 26 56 27 53 28 55 29 54 30 57 31 58 32 59 33
REMARK SMILES IDX 60 35 61 36 62 37 63 38 64 39 65 40 66 41 67 42 68 43 21 45
REMARK SMILES IDX 20 46 18 47 19 48 17 50 16 52 14 53 15 54 9 56 8 57 6 58
REMARK SMILES IDX 7 59 5 61 4 62 3 63 2 64 1 65 10 66 11 67 12 68 13 69 22 71
REMARK SMILES IDX 23 72 24 73 25 74 26 75 27 76 28 77
REMARK H PARENT 31 4 36 13 59 34 20 49 16 55 8 60 13 70 27 78 27 79 28 80
REMARK H PARENT 28 81
REMARK Flexibility Score:  259.900
ROOT
ATOM      1  O   UNL     1       7.218   0.441   1.545  1.00  0.00    -0.273 OA
ATOM      2  N   UNL     1       5.606  -1.141   1.183  1.00  0.00    -0.343 N 
ATOM      3  C   UNL     1       6.527  -0.207   0.758  1.00  0.00     0.243 C 
ATOM      4  H   UNL     1       5.065  -1.666   0.507  1.00  0.00     0.164 HD
ENDROOT
BRANCH   2   5
ATOM      5  C   UNL     1       5.326  -1.314   2.604  1.00  0.00     0.171 C 
ATOM      6  C   UNL     1       3.973  -3.397   4.099  1.00  0.00     0.214 C 
ATOM      7  N   UNL     1       3.216  -2.266   3.613  1.00  0.00    -0.303 N 
ATOM      8  C   UNL     1       5.423  -3.062   4.409  1.00  0.00     0.057 C 
ATOM      9  C   UNL     1       3.790  -1.263   2.849  1.00  0.00     0.247 C 
ATOM     10  C   UNL     1       6.095  -2.504   3.173  1.00  0.00     0.040 C 
ATOM     11  O   UNL     1       3.119  -0.343   2.363  1.00  0.00    -0.272 OA
BRANCH   6  12
ATOM     12  O   UNL     1       3.898  -4.414   3.128  1.00  0.00    -0.373 OA
ATOM     13  H   UNL     1       4.679  -4.994   3.259  1.00  0.00     0.213 HD
ENDBRANCH   6  12
BRANCH   7  14
ATOM     14  C   UNL     1       1.755  -2.290   3.837  1.00  0.00     0.177 C 
BRANCH  14  15
ATOM     15  C   UNL     1       1.038  -3.564   3.349  1.00  0.00     0.038 C 
BRANCH  15  16
ATOM     16  C   UNL     1      -0.033  -3.458   2.240  1.00  0.00    -0.015 C 
ATOM     17  C   UNL     1      -0.686  -2.073   2.191  1.00  0.00     0.007 C 
ATOM     18  C   UNL     1      -1.132  -4.500   2.479  1.00  0.00     0.007 C 
ENDBRANCH  15  16
ENDBRANCH  14  15
BRANCH  14  19
ATOM     19  C   UNL     1       1.390  -1.482   5.129  1.00  0.00     0.245 C 
ATOM     20  O   UNL     1       0.866  -0.368   4.962  1.00  0.00    -0.272 OA
BRANCH  19  21
ATOM     21  N   UNL     1       1.718  -1.887   6.411  1.00  0.00    -0.332 N 
ATOM     22  C   UNL     1       2.734  -1.280   7.253  1.00  0.00     0.147 C 
BRANCH  21  23
ATOM     23  C   UNL     1       0.984  -3.049   6.982  1.00  0.00     0.178 C 
BRANCH  23  24
ATOM     24  C   UNL     1       1.782  -4.368   7.008  1.00  0.00     0.070 C 
BRANCH  24  25
ATOM     25  C   UNL     1       1.218  -5.530   6.224  1.00  0.00    -0.045 A 
ATOM     26  C   UNL     1      -0.158  -5.795   6.224  1.00  0.00     0.004 A 
ATOM     27  C   UNL     1       2.069  -6.366   5.486  1.00  0.00     0.004 A 
ATOM     28  C   UNL     1      -0.669  -6.881   5.511  1.00  0.00     0.000 A 
ATOM     29  C   UNL     1       1.556  -7.450   4.772  1.00  0.00     0.000 A 
ATOM     30  C   UNL     1       0.187  -7.708   4.788  1.00  0.00     0.000 A 
ENDBRANCH  24  25
ENDBRANCH  23  24
BRANCH  23  31
ATOM     31  C   UNL     1       0.246  -2.708   8.299  1.00  0.00     0.243 C 
ATOM     32  O   UNL     1       0.749  -2.812   9.415  1.00  0.00    -0.273 OA
ATOM     33  N   UNL     1      -1.104  -2.450   8.126  1.00  0.00    -0.341 N 
ATOM     34  H   UNL     1      -1.466  -2.382   7.172  1.00  0.00     0.164 HD
BRANCH  33  35
ATOM     35  C   UNL     1      -2.023  -2.221   9.244  1.00  0.00     0.194 C 
BRANCH  35  36
ATOM     36  C   UNL     1      -3.230  -3.200   9.285  1.00  0.00     0.017 C 
ATOM     37  C   UNL     1      -2.769  -4.645   9.541  1.00  0.00     0.010 C 
ATOM     38  C   UNL     1      -4.050  -3.203   7.989  1.00  0.00     0.010 C 
ENDBRANCH  35  36
BRANCH  35  39
ATOM     39  C   UNL     1      -2.475  -0.738   9.352  1.00  0.00     0.329 C 
ATOM     40  O   UNL     1      -2.151   0.138   8.557  1.00  0.00    -0.250 OA
BRANCH  39  41
ATOM     41  O   UNL     1      -3.347  -0.533  10.385  1.00  0.00    -0.458 OA
BRANCH  41  42
ATOM     42  C   UNL     1      -4.551   0.208  10.071  1.00  0.00     0.205 CG0
ATOM     43  C   UNL     1      -4.527   1.486  10.906  1.00  0.00     0.056 C 
ATOM     44  G   UNL     1      -5.771  -0.680  10.385  1.00  0.00     0.000 G0
ENDBRANCH  41  42
ENDBRANCH  39  41
ENDBRANCH  35  39
ENDBRANCH  33  35
ENDBRANCH  23  31
ENDBRANCH  21  23
ENDBRANCH  19  21
ENDBRANCH  14  19
ENDBRANCH   7  14
ENDBRANCH   2   5
BRANCH   3  45
ATOM     45  C   UNL     1       6.647  -0.048  -0.763  1.00  0.00     0.171 C 
BRANCH  45  46
ATOM     46  N   UNL     1       8.073  -0.103  -1.054  1.00  0.00    -0.342 N 
ATOM     47  C   UNL     1       8.564  -0.567  -2.248  1.00  0.00     0.247 C 
ATOM     48  O   UNL     1       7.837  -0.900  -3.185  1.00  0.00    -0.273 OA
ATOM     49  H   UNL     1       8.710   0.216  -0.326  1.00  0.00     0.164 HD
BRANCH  47  50
ATOM     50  C   UNL     1      10.094  -0.669  -2.327  1.00  0.00     0.212 CG0
ATOM     51  G   UNL     1      10.436  -1.824  -3.289  1.00  0.00     0.000 G0
BRANCH  50  52
ATOM     52  N   UNL     1      10.547   0.634  -2.806  1.00  0.00    -0.339 N 
ATOM     53  C   UNL     1      11.217   1.537  -2.017  1.00  0.00     0.243 C 
ATOM     54  O   UNL     1      11.441   1.338  -0.826  1.00  0.00    -0.273 OA
ATOM     55  H   UNL     1      10.294   0.904  -3.754  1.00  0.00     0.164 HD
BRANCH  53  56
ATOM     56  C   UNL     1      11.517   2.879  -2.716  1.00  0.00     0.182 C 
BRANCH  56  57
ATOM     57  N   UNL     1      10.311   3.427  -3.343  1.00  0.00    -0.344 N 
ATOM     58  C   UNL     1       9.617   4.484  -2.806  1.00  0.00     0.220 C 
ATOM     59  O   UNL     1       9.913   4.994  -1.731  1.00  0.00    -0.275 OA
ATOM     60  H   UNL     1      10.091   3.102  -4.281  1.00  0.00     0.164 HD
BRANCH  58  61
ATOM     61  C   UNL     1       8.437   4.922  -3.654  1.00  0.00     0.100 C 
BRANCH  61  62
ATOM     62  C   UNL     1       7.135   4.192  -3.321  1.00  0.00     0.010 C 
BRANCH  62  63
ATOM     63  C   UNL     1       5.893   5.092  -3.325  1.00  0.00     0.000 C 
BRANCH  63  64
ATOM     64  C   UNL     1       5.231   5.253  -1.958  1.00  0.00    -0.003 C 
ATOM     65  C   UNL     1       6.225   5.021  -0.829  1.00  0.00     0.004 C 
ENDBRANCH  63  64
ENDBRANCH  62  63
ENDBRANCH  61  62
ENDBRANCH  58  61
ENDBRANCH  56  57
BRANCH  56  66
ATOM     66  C   UNL     1      12.674   2.748  -3.706  1.00  0.00     0.157 C 
BRANCH  66  67
ATOM     67  C   UNL     1      12.180   2.768  -5.124  1.00  0.00     0.305 C 
ATOM     68  O   UNL     1      11.621   1.859  -5.718  1.00  0.00    -0.252 OA
BRANCH  67  69
ATOM     69  O   UNL     1      12.370   3.963  -5.715  1.00  0.00    -0.481 OA
ATOM     70  H   UNL     1      12.776   3.751  -6.583  1.00  0.00     0.296 HD
ENDBRANCH  67  69
ENDBRANCH  66  67
ENDBRANCH  56  66
ENDBRANCH  53  56
ENDBRANCH  50  52
ENDBRANCH  47  50
ENDBRANCH  45  46
BRANCH  45  71
ATOM     71  C   UNL     1       6.030   1.282  -1.211  1.00  0.00     0.037 C 
BRANCH  71  72
ATOM     72  C   UNL     1       5.136   1.117  -2.442  1.00  0.00     0.026 C 
BRANCH  72  73
ATOM     73  C   UNL     1       3.806   1.848  -2.272  1.00  0.00     0.146 C 
BRANCH  73  74
ATOM     74  N   UNL     1       3.168   1.338  -1.062  1.00  0.00    -0.254 NA
ATOM     75  C   UNL     1       2.621   2.185  -0.271  1.00  0.00     0.185 C 
ATOM     76  N   UNL     1       2.024   1.746   0.850  1.00  0.00    -0.370 N 
ATOM     77  N   UNL     1       2.542   3.522  -0.388  1.00  0.00    -0.370 N 
ATOM     78  H   UNL     1       2.045   0.751   1.019  1.00  0.00     0.159 HD
ATOM     79  H   UNL     1       1.706   2.356   1.582  1.00  0.00     0.159 HD
ATOM     80  H   UNL     1       2.944   3.993  -1.184  1.00  0.00     0.159 HD
ATOM     81  H   UNL     1       1.984   4.076   0.242  1.00  0.00     0.159 HD
ENDBRANCH  73  74
ENDBRANCH  72  73
ENDBRANCH  71  72
ENDBRANCH  45  71
ENDBRANCH   3  45
TORSDOF 20
ENDMDL
MODEL 27
REMARK VINA RESULT:    -5.547      6.012     11.045
REMARK INTER + INTRA:         -23.987
REMARK INTER:                 -17.657
REMARK INTRA:                  -6.331
REMARK UNBOUND:                -8.064
REMARK SMILES CCCCCC(=O)N[C@H](CC(=O)O)C(=O)N[C@H]1C(=O)N[C@H](CCCN=C(N)N)C(=O)N[C@@H]2CC[C@H](O)N(C2=O)[C@@H](CC(C)C)C(=O)N(C)[C@@H](Cc2ccccc2)C(=O)N[C@H](C(C)C)C(=O)O[C@@H]1C
REMARK SMILES IDX 30 1 31 2 29 3 32 5 35 6 37 7 34 8 38 9 33 10 39 11 36 12
REMARK SMILES IDX 40 14 41 15 42 16 43 17 44 18 45 19 46 20 47 21 48 22 49 23
REMARK SMILES IDX 50 24 51 25 52 26 56 27 53 28 55 29 54 30 57 31 58 32 59 33
REMARK SMILES IDX 60 35 61 36 62 37 63 38 64 39 65 40 66 41 67 42 68 43 21 45
REMARK SMILES IDX 20 46 18 47 19 48 17 50 16 52 14 53 15 54 9 56 8 57 6 58
REMARK SMILES IDX 7 59 5 61 4 62 3 63 2 64 1 65 10 66 11 67 12 68 13 69 22 71
REMARK SMILES IDX 23 72 24 73 25 74 26 75 27 76 28 77
REMARK H PARENT 31 4 36 13 59 34 20 49 16 55 8 60 13 70 27 78 27 79 28 80
REMARK H PARENT 28 81
REMARK Flexibility Score:  259.900
ROOT
ATOM      1  O   UNL     1       6.137  -3.462  -0.377  1.00  0.00    -0.273 OA
ATOM      2  N   UNL     1       4.416  -1.966  -0.202  1.00  0.00    -0.343 N 
ATOM      3  C   UNL     1       5.589  -2.428  -0.760  1.00  0.00     0.243 C 
ATOM      4  H   UNL     1       3.985  -1.120  -0.553  1.00  0.00     0.164 HD
ENDROOT
BRANCH   2   5
ATOM      5  C   UNL     1       3.834  -2.631   0.959  1.00  0.00     0.171 C 
ATOM      6  C   UNL     1       1.163  -2.633   2.087  1.00  0.00     0.214 C 
ATOM      7  N   UNL     1       2.127  -1.659   2.544  1.00  0.00    -0.303 N 
ATOM      8  C   UNL     1       1.796  -3.939   1.635  1.00  0.00     0.057 C 
ATOM      9  C   UNL     1       3.403  -1.570   2.012  1.00  0.00     0.247 C 
ATOM     10  C   UNL     1       2.798  -3.670   0.534  1.00  0.00     0.040 C 
ATOM     11  O   UNL     1       4.193  -0.679   2.348  1.00  0.00    -0.272 OA
BRANCH   6  12
ATOM     12  O   UNL     1       0.430  -2.051   1.033  1.00  0.00    -0.373 OA
ATOM     13  H   UNL     1      -0.137  -1.354   1.428  1.00  0.00     0.213 HD
ENDBRANCH   6  12
BRANCH   7  14
ATOM     14  C   UNL     1       1.651  -0.649   3.514  1.00  0.00     0.177 C 
BRANCH  14  15
ATOM     15  C   UNL     1       1.039   0.620   2.891  1.00  0.00     0.038 C 
BRANCH  15  16
ATOM     16  C   UNL     1       1.766   1.974   3.053  1.00  0.00    -0.015 C 
ATOM     17  C   UNL     1       2.747   1.973   4.229  1.00  0.00     0.007 C 
ATOM     18  C   UNL     1       0.739   3.090   3.286  1.00  0.00     0.007 C 
ENDBRANCH  15  16
ENDBRANCH  14  15
BRANCH  14  19
ATOM     19  C   UNL     1       1.151  -1.348   4.825  1.00  0.00     0.245 C 
ATOM     20  O   UNL     1      -0.052  -1.215   5.106  1.00  0.00    -0.272 OA
BRANCH  19  21
ATOM     21  N   UNL     1       1.985  -1.993   5.721  1.00  0.00    -0.332 N 
ATOM     22  C   UNL     1       3.297  -1.528   6.137  1.00  0.00     0.147 C 
BRANCH  21  23
ATOM     23  C   UNL     1       1.515  -3.279   6.307  1.00  0.00     0.178 C 
BRANCH  23  24
ATOM     24  C   UNL     1       2.576  -4.397   6.345  1.00  0.00     0.070 C 
BRANCH  24  25
ATOM     25  C   UNL     1       2.120  -5.791   5.980  1.00  0.00    -0.045 A 
ATOM     26  C   UNL     1       1.944  -6.161   4.641  1.00  0.00     0.004 A 
ATOM     27  C   UNL     1       1.861  -6.736   6.985  1.00  0.00     0.004 A 
ATOM     28  C   UNL     1       1.506  -7.446   4.313  1.00  0.00     0.000 A 
ATOM     29  C   UNL     1       1.425  -8.020   6.656  1.00  0.00     0.000 A 
ATOM     30  C   UNL     1       1.244  -8.373   5.320  1.00  0.00     0.000 A 
ENDBRANCH  24  25
ENDBRANCH  23  24
BRANCH  23  31
ATOM     31  C   UNL     1       0.723  -3.089   7.623  1.00  0.00     0.243 C 
ATOM     32  O   UNL     1       1.178  -3.323   8.739  1.00  0.00    -0.273 OA
ATOM     33  N   UNL     1      -0.618  -2.805   7.424  1.00  0.00    -0.341 N 
ATOM     34  H   UNL     1      -0.940  -2.626   6.470  1.00  0.00     0.164 HD
BRANCH  33  35
ATOM     35  C   UNL     1      -1.583  -2.702   8.522  1.00  0.00     0.194 C 
BRANCH  35  36
ATOM     36  C   UNL     1      -2.749  -3.728   8.442  1.00  0.00     0.017 C 
ATOM     37  C   UNL     1      -2.872  -4.538   9.744  1.00  0.00     0.010 C 
ATOM     38  C   UNL     1      -2.594  -4.729   7.291  1.00  0.00     0.010 C 
ENDBRANCH  35  36
BRANCH  35  39
ATOM     39  C   UNL     1      -2.101  -1.251   8.728  1.00  0.00     0.329 C 
ATOM     40  O   UNL     1      -2.277  -0.449   7.818  1.00  0.00    -0.250 OA
BRANCH  39  41
ATOM     41  O   UNL     1      -2.421  -0.993  10.033  1.00  0.00    -0.458 OA
BRANCH  41  42
ATOM     42  C   UNL     1      -3.314   0.122  10.265  1.00  0.00     0.205 CG0
ATOM     43  C   UNL     1      -2.543   1.159  11.079  1.00  0.00     0.056 C 
ATOM     44  G   UNL     1      -4.565  -0.395  11.004  1.00  0.00     0.000 G0
ENDBRANCH  41  42
ENDBRANCH  39  41
ENDBRANCH  35  39
ENDBRANCH  33  35
ENDBRANCH  23  31
ENDBRANCH  21  23
ENDBRANCH  19  21
ENDBRANCH  14  19
ENDBRANCH   7  14
ENDBRANCH   2   5
BRANCH   3  45
ATOM     45  C   UNL     1       6.152  -1.576  -1.905  1.00  0.00     0.171 C 
BRANCH  45  46
ATOM     46  N   UNL     1       7.478  -2.113  -2.180  1.00  0.00    -0.342 N 
ATOM     47  C   UNL     1       7.905  -2.406  -3.451  1.00  0.00     0.247 C 
ATOM     48  O   UNL     1       7.230  -2.169  -4.453  1.00  0.00    -0.273 OA
ATOM     49  H   UNL     1       8.091  -2.272  -1.382  1.00  0.00     0.164 HD
BRANCH  47  50
ATOM     50  C   UNL     1       9.282  -3.080  -3.535  1.00  0.00     0.212 CG0
ATOM     51  G   UNL     1       9.430  -3.665  -4.953  1.00  0.00     0.000 G0
BRANCH  50  52
ATOM     52  N   UNL     1      10.250  -2.026  -3.242  1.00  0.00    -0.339 N 
ATOM     53  C   UNL     1      11.016  -1.999  -2.102  1.00  0.00     0.243 C 
ATOM     54  O   UNL     1      10.906  -2.837  -1.211  1.00  0.00    -0.273 OA
ATOM     55  H   UNL     1      10.307  -1.243  -3.890  1.00  0.00     0.164 HD
BRANCH  53  56
ATOM     56  C   UNL     1      11.902  -0.744  -1.971  1.00  0.00     0.182 C 
BRANCH  56  57
ATOM     57  N   UNL     1      11.176   0.459  -2.389  1.00  0.00    -0.344 N 
ATOM     58  C   UNL     1      10.881   1.481  -1.519  1.00  0.00     0.220 C 
ATOM     59  O   UNL     1      11.138   1.427  -0.322  1.00  0.00    -0.275 OA
ATOM     60  H   UNL     1      11.035   0.589  -3.388  1.00  0.00     0.164 HD
BRANCH  58  61
ATOM     61  C   UNL     1      10.177   2.651  -2.182  1.00  0.00     0.100 C 
BRANCH  61  62
ATOM     62  C   UNL     1       9.818   2.404  -3.647  1.00  0.00     0.010 C 
BRANCH  62  63
ATOM     63  C   UNL     1       8.550   3.131  -4.113  1.00  0.00     0.000 C 
BRANCH  63  64
ATOM     64  C   UNL     1       7.727   3.744  -2.981  1.00  0.00    -0.003 C 
ATOM     65  C   UNL     1       6.258   3.366  -3.095  1.00  0.00     0.004 C 
ENDBRANCH  63  64
ENDBRANCH  62  63
ENDBRANCH  61  62
ENDBRANCH  58  61
ENDBRANCH  56  57
BRANCH  56  66
ATOM     66  C   UNL     1      13.223  -0.910  -2.720  1.00  0.00     0.157 C 
BRANCH  66  67
ATOM     67  C   UNL     1      13.434   0.204  -3.704  1.00  0.00     0.305 C 
ATOM     68  O   UNL     1      13.887   1.314  -3.469  1.00  0.00    -0.252 OA
BRANCH  67  69
ATOM     69  O   UNL     1      13.108  -0.154  -4.961  1.00  0.00    -0.481 OA
ATOM     70  H   UNL     1      13.324   0.630  -5.508  1.00  0.00     0.296 HD
ENDBRANCH  67  69
ENDBRANCH  66  67
ENDBRANCH  56  66
ENDBRANCH  53  56
ENDBRANCH  50  52
ENDBRANCH  47  50
ENDBRANCH  45  46
BRANCH  45  71
ATOM     71  C   UNL     1       6.214  -0.101  -1.492  1.00  0.00     0.037 C 
BRANCH  71  72
ATOM     72  C   UNL     1       7.363   0.177  -0.520  1.00  0.00     0.026 C 
BRANCH  72  73
ATOM     73  C   UNL     1       7.268   1.582   0.072  1.00  0.00     0.146 C 
BRANCH  73  74
ATOM     74  N   UNL     1       8.127   1.629   1.251  1.00  0.00    -0.254 NA
ATOM     75  C   UNL     1       8.619   2.764   1.588  1.00  0.00     0.185 C 
ATOM     76  N   UNL     1       9.413   2.839   2.669  1.00  0.00    -0.370 N 
ATOM     77  N   UNL     1       8.460   3.962   1.000  1.00  0.00    -0.370 N 
ATOM     78  H   UNL     1       9.591   1.979   3.166  1.00  0.00     0.159 HD
ATOM     79  H   UNL     1       9.946   3.656   2.908  1.00  0.00     0.159 HD
ATOM     80  H   UNL     1       7.884   4.058   0.178  1.00  0.00     0.159 HD
ATOM     81  H   UNL     1       8.804   4.808   1.424  1.00  0.00     0.159 HD
ENDBRANCH  73  74
ENDBRANCH  72  73
ENDBRANCH  71  72
ENDBRANCH  45  71
ENDBRANCH   3  45
TORSDOF 20
ENDMDL
MODEL 28
REMARK VINA RESULT:    -5.489      5.694     11.999
REMARK INTER + INTRA:         -23.822
REMARK INTER:                 -17.574
REMARK INTRA:                  -6.248
REMARK UNBOUND:                -8.064
REMARK SMILES CCCCCC(=O)N[C@H](CC(=O)O)C(=O)N[C@H]1C(=O)N[C@H](CCCN=C(N)N)C(=O)N[C@@H]2CC[C@H](O)N(C2=O)[C@@H](CC(C)C)C(=O)N(C)[C@@H](Cc2ccccc2)C(=O)N[C@H](C(C)C)C(=O)O[C@@H]1C
REMARK SMILES IDX 30 1 31 2 29 3 32 5 35 6 37 7 34 8 38 9 33 10 39 11 36 12
REMARK SMILES IDX 40 14 41 15 42 16 43 17 44 18 45 19 46 20 47 21 48 22 49 23
REMARK SMILES IDX 50 24 51 25 52 26 56 27 53 28 55 29 54 30 57 31 58 32 59 33
REMARK SMILES IDX 60 35 61 36 62 37 63 38 64 39 65 40 66 41 67 42 68 43 21 45
REMARK SMILES IDX 20 46 18 47 19 48 17 50 16 52 14 53 15 54 9 56 8 57 6 58
REMARK SMILES IDX 7 59 5 61 4 62 3 63 2 64 1 65 10 66 11 67 12 68 13 69 22 71
REMARK SMILES IDX 23 72 24 73 25 74 26 75 27 76 28 77
REMARK H PARENT 31 4 36 13 59 34 20 49 16 55 8 60 13 70 27 78 27 79 28 80
REMARK H PARENT 28 81
REMARK Flexibility Score:  259.900
ROOT
ATOM      1  O   UNL     1       3.965  -0.069   2.720  1.00  0.00    -0.273 OA
ATOM      2  N   UNL     1       3.918  -2.356   2.736  1.00  0.00    -0.343 N 
ATOM      3  C   UNL     1       4.298  -1.140   2.210  1.00  0.00     0.243 C 
ATOM      4  H   UNL     1       4.223  -3.216   2.298  1.00  0.00     0.164 HD
ENDROOT
BRANCH   2   5
ATOM      5  C   UNL     1       2.995  -2.422   3.864  1.00  0.00     0.171 C 
ATOM      6  C   UNL     1       2.567  -4.401   5.938  1.00  0.00     0.214 C 
ATOM      7  N   UNL     1       1.807  -4.481   4.713  1.00  0.00    -0.303 N 
ATOM      8  C   UNL     1       2.954  -2.979   6.315  1.00  0.00     0.057 C 
ATOM      9  C   UNL     1       1.998  -3.598   3.662  1.00  0.00     0.247 C 
ATOM     10  C   UNL     1       3.747  -2.349   5.192  1.00  0.00     0.040 C 
ATOM     11  O   UNL     1       1.405  -3.726   2.582  1.00  0.00    -0.272 OA
BRANCH   6  12
ATOM     12  O   UNL     1       3.718  -5.199   5.784  1.00  0.00    -0.373 OA
ATOM     13  H   UNL     1       3.987  -5.137   4.843  1.00  0.00     0.213 HD
ENDBRANCH   6  12
BRANCH   7  14
ATOM     14  C   UNL     1       0.907  -5.642   4.557  1.00  0.00     0.177 C 
BRANCH  14  15
ATOM     15  C   UNL     1       1.610  -6.985   4.277  1.00  0.00     0.038 C 
BRANCH  15  16
ATOM     16  C   UNL     1       1.105  -7.883   3.126  1.00  0.00    -0.015 C 
ATOM     17  C   UNL     1      -0.062  -8.779   3.553  1.00  0.00     0.007 C 
ATOM     18  C   UNL     1       2.245  -8.783   2.632  1.00  0.00     0.007 C 
ENDBRANCH  15  16
ENDBRANCH  14  15
BRANCH  14  19
ATOM     19  C   UNL     1      -0.377  -5.457   5.438  1.00  0.00     0.245 C 
ATOM     20  O   UNL     1      -0.666  -6.388   6.208  1.00  0.00    -0.272 OA
BRANCH  19  21
ATOM     21  N   UNL     1      -1.245  -4.386   5.320  1.00  0.00    -0.332 N 
ATOM     22  C   UNL     1      -1.866  -3.936   4.087  1.00  0.00     0.147 C 
BRANCH  21  23
ATOM     23  C   UNL     1      -1.569  -3.615   6.552  1.00  0.00     0.178 C 
BRANCH  23  24
ATOM     24  C   UNL     1      -1.015  -2.175   6.577  1.00  0.00     0.070 C 
BRANCH  24  25
ATOM     25  C   UNL     1      -0.260  -1.750   7.815  1.00  0.00    -0.045 A 
ATOM     26  C   UNL     1      -0.312  -2.517   8.986  1.00  0.00     0.004 A 
ATOM     27  C   UNL     1       0.502  -0.572   7.810  1.00  0.00     0.004 A 
ATOM     28  C   UNL     1       0.375  -2.108  10.131  1.00  0.00     0.000 A 
ATOM     29  C   UNL     1       1.188  -0.165   8.955  1.00  0.00     0.000 A 
ATOM     30  C   UNL     1       1.122  -0.932  10.116  1.00  0.00     0.000 A 
ENDBRANCH  24  25
ENDBRANCH  23  24
BRANCH  23  31
ATOM     31  C   UNL     1      -3.051  -3.749   6.976  1.00  0.00     0.243 C 
ATOM     32  O   UNL     1      -3.832  -2.805   7.053  1.00  0.00    -0.273 OA
ATOM     33  N   UNL     1      -3.379  -5.010   7.445  1.00  0.00    -0.341 N 
ATOM     34  H   UNL     1      -2.684  -5.756   7.360  1.00  0.00     0.164 HD
BRANCH  33  35
ATOM     35  C   UNL     1      -4.692  -5.335   8.010  1.00  0.00     0.194 C 
BRANCH  35  36
ATOM     36  C   UNL     1      -4.751  -5.262   9.562  1.00  0.00     0.017 C 
ATOM     37  C   UNL     1      -5.675  -4.126  10.034  1.00  0.00     0.010 C 
ATOM     38  C   UNL     1      -3.379  -5.036  10.209  1.00  0.00     0.010 C 
ENDBRANCH  35  36
BRANCH  35  39
ATOM     39  C   UNL     1      -5.259  -6.678   7.471  1.00  0.00     0.329 C 
ATOM     40  O   UNL     1      -5.043  -7.111   6.345  1.00  0.00    -0.250 OA
BRANCH  39  41
ATOM     41  O   UNL     1      -5.956  -7.368   8.424  1.00  0.00    -0.458 OA
BRANCH  41  42
ATOM     42  C   UNL     1      -7.363  -7.582   8.159  1.00  0.00     0.205 CG0
ATOM     43  C   UNL     1      -8.147  -6.784   9.200  1.00  0.00     0.056 C 
ATOM     44  G   UNL     1      -7.654  -9.094   8.234  1.00  0.00     0.000 G0
ENDBRANCH  41  42
ENDBRANCH  39  41
ENDBRANCH  35  39
ENDBRANCH  33  35
ENDBRANCH  23  31
ENDBRANCH  21  23
ENDBRANCH  19  21
ENDBRANCH  14  19
ENDBRANCH   7  14
ENDBRANCH   2   5
BRANCH   3  45
ATOM     45  C   UNL     1       5.182  -1.212   0.958  1.00  0.00     0.171 C 
BRANCH  45  46
ATOM     46  N   UNL     1       5.911   0.049   0.917  1.00  0.00    -0.342 N 
ATOM     47  C   UNL     1       7.247   0.118   0.613  1.00  0.00     0.247 C 
ATOM     48  O   UNL     1       7.909  -0.867   0.283  1.00  0.00    -0.273 OA
ATOM     49  H   UNL     1       5.387   0.896   1.129  1.00  0.00     0.164 HD
BRANCH  47  50
ATOM     50  C   UNL     1       7.871   1.515   0.741  1.00  0.00     0.212 CG0
ATOM     51  G   UNL     1       9.287   1.343   1.327  1.00  0.00     0.000 G0
BRANCH  50  52
ATOM     52  N   UNL     1       7.870   2.067  -0.612  1.00  0.00    -0.339 N 
ATOM     53  C   UNL     1       9.011   2.455  -1.270  1.00  0.00     0.243 C 
ATOM     54  O   UNL     1      10.122   2.417  -0.749  1.00  0.00    -0.273 OA
ATOM     55  H   UNL     1       6.968   2.228  -1.056  1.00  0.00     0.164 HD
BRANCH  53  56
ATOM     56  C   UNL     1       8.753   3.088  -2.653  1.00  0.00     0.182 C 
BRANCH  56  57
ATOM     57  N   UNL     1       9.560   4.299  -2.836  1.00  0.00    -0.344 N 
ATOM     58  C   UNL     1      10.324   4.511  -3.958  1.00  0.00     0.220 C 
ATOM     59  O   UNL     1      10.443   3.676  -4.847  1.00  0.00    -0.275 OA
ATOM     60  H   UNL     1       9.411   5.056  -2.174  1.00  0.00     0.164 HD
BRANCH  58  61
ATOM     61  C   UNL     1      11.028   5.856  -3.960  1.00  0.00     0.100 C 
BRANCH  61  62
ATOM     62  C   UNL     1      10.124   7.025  -3.570  1.00  0.00     0.010 C 
BRANCH  62  63
ATOM     63  C   UNL     1      10.861   8.360  -3.404  1.00  0.00     0.000 C 
BRANCH  63  64
ATOM     64  C   UNL     1      12.326   8.325  -3.836  1.00  0.00    -0.003 C 
ATOM     65  C   UNL     1      12.712   9.589  -4.591  1.00  0.00     0.004 C 
ENDBRANCH  63  64
ENDBRANCH  62  63
ENDBRANCH  61  62
ENDBRANCH  58  61
ENDBRANCH  56  57
BRANCH  56  66
ATOM     66  C   UNL     1       7.265   3.347  -2.881  1.00  0.00     0.157 C 
BRANCH  66  67
ATOM     67  C   UNL     1       6.924   4.792  -2.657  1.00  0.00     0.305 C 
ATOM     68  O   UNL     1       6.925   5.388  -1.591  1.00  0.00    -0.252 OA
BRANCH  67  69
ATOM     69  O   UNL     1       6.645   5.436  -3.806  1.00  0.00    -0.481 OA
ATOM     70  H   UNL     1       6.073   6.187  -3.540  1.00  0.00     0.296 HD
ENDBRANCH  67  69
ENDBRANCH  66  67
ENDBRANCH  56  66
ENDBRANCH  53  56
ENDBRANCH  50  52
ENDBRANCH  47  50
ENDBRANCH  45  46
BRANCH  45  71
ATOM     71  C   UNL     1       4.321  -1.409  -0.294  1.00  0.00     0.037 C 
BRANCH  71  72
ATOM     72  C   UNL     1       4.001  -0.082  -0.987  1.00  0.00     0.026 C 
BRANCH  72  73
ATOM     73  C   UNL     1       2.654   0.477  -0.533  1.00  0.00     0.146 C 
BRANCH  73  74
ATOM     74  N   UNL     1       1.761  -0.651  -0.289  1.00  0.00    -0.254 NA
ATOM     75  C   UNL     1       1.056  -0.637   0.782  1.00  0.00     0.185 C 
ATOM     76  N   UNL     1       0.224  -1.661   1.033  1.00  0.00    -0.370 N 
ATOM     77  N   UNL     1       1.012   0.292   1.752  1.00  0.00    -0.370 N 
ATOM     78  H   UNL     1       0.201  -2.409   0.355  1.00  0.00     0.159 HD
ATOM     79  H   UNL     1      -0.246  -1.789   1.912  1.00  0.00     0.159 HD
ATOM     80  H   UNL     1       1.584   1.122   1.695  1.00  0.00     0.159 HD
ATOM     81  H   UNL     1       0.332   0.251   2.493  1.00  0.00     0.159 HD
ENDBRANCH  73  74
ENDBRANCH  72  73
ENDBRANCH  71  72
ENDBRANCH  45  71
ENDBRANCH   3  45
TORSDOF 20
ENDMDL
MODEL 29
REMARK VINA RESULT:    -5.476      4.880      9.114
REMARK INTER + INTRA:         -23.784
REMARK INTER:                 -18.619
REMARK INTRA:                  -5.165
REMARK UNBOUND:                -8.064
REMARK SMILES CCCCCC(=O)N[C@H](CC(=O)O)C(=O)N[C@H]1C(=O)N[C@H](CCCN=C(N)N)C(=O)N[C@@H]2CC[C@H](O)N(C2=O)[C@@H](CC(C)C)C(=O)N(C)[C@@H](Cc2ccccc2)C(=O)N[C@H](C(C)C)C(=O)O[C@@H]1C
REMARK SMILES IDX 30 1 31 2 29 3 32 5 35 6 37 7 34 8 38 9 33 10 39 11 36 12
REMARK SMILES IDX 40 14 41 15 42 16 43 17 44 18 45 19 46 20 47 21 48 22 49 23
REMARK SMILES IDX 50 24 51 25 52 26 56 27 53 28 55 29 54 30 57 31 58 32 59 33
REMARK SMILES IDX 60 35 61 36 62 37 63 38 64 39 65 40 66 41 67 42 68 43 21 45
REMARK SMILES IDX 20 46 18 47 19 48 17 50 16 52 14 53 15 54 9 56 8 57 6 58
REMARK SMILES IDX 7 59 5 61 4 62 3 63 2 64 1 65 10 66 11 67 12 68 13 69 22 71
REMARK SMILES IDX 23 72 24 73 25 74 26 75 27 76 28 77
REMARK H PARENT 31 4 36 13 59 34 20 49 16 55 8 60 13 70 27 78 27 79 28 80
REMARK H PARENT 28 81
REMARK Flexibility Score:  259.900
ROOT
ATOM      1  O   UNL     1      -1.365  -4.688   5.782  1.00  0.00    -0.273 OA
ATOM      2  N   UNL     1      -1.535  -4.099   3.579  1.00  0.00    -0.343 N 
ATOM      3  C   UNL     1      -1.724  -4.962   4.637  1.00  0.00     0.243 C 
ATOM      4  H   UNL     1      -1.857  -4.352   2.653  1.00  0.00     0.164 HD
ENDROOT
BRANCH   2   5
ATOM      5  C   UNL     1      -0.785  -2.861   3.756  1.00  0.00     0.171 C 
ATOM      6  C   UNL     1       0.554  -1.092   1.889  1.00  0.00     0.214 C 
ATOM      7  N   UNL     1       1.293  -2.173   2.499  1.00  0.00    -0.303 N 
ATOM      8  C   UNL     1      -0.567  -0.559   2.768  1.00  0.00     0.057 C 
ATOM      9  C   UNL     1       0.702  -3.084   3.359  1.00  0.00     0.247 C 
ATOM     10  C   UNL     1      -1.519  -1.680   3.121  1.00  0.00     0.040 C 
ATOM     11  O   UNL     1       1.321  -4.057   3.809  1.00  0.00    -0.272 OA
BRANCH   6  12
ATOM     12  O   UNL     1       0.039  -1.560   0.665  1.00  0.00    -0.373 OA
ATOM     13  H   UNL     1      -0.689  -0.954   0.408  1.00  0.00     0.213 HD
ENDBRANCH   6  12
BRANCH   7  14
ATOM     14  C   UNL     1       2.690  -2.364   2.054  1.00  0.00     0.177 C 
BRANCH  14  15
ATOM     15  C   UNL     1       2.862  -3.223   0.786  1.00  0.00     0.038 C 
BRANCH  15  16
ATOM     16  C   UNL     1       3.265  -4.708   0.922  1.00  0.00    -0.015 C 
ATOM     17  C   UNL     1       4.756  -4.936   0.655  1.00  0.00     0.007 C 
ATOM     18  C   UNL     1       2.463  -5.556  -0.074  1.00  0.00     0.007 C 
ENDBRANCH  15  16
ENDBRANCH  14  15
BRANCH  14  19
ATOM     19  C   UNL     1       3.555  -1.111   2.425  1.00  0.00     0.245 C 
ATOM     20  O   UNL     1       3.221  -0.482   3.443  1.00  0.00    -0.272 OA
BRANCH  19  21
ATOM     21  N   UNL     1       4.577  -0.618   1.634  1.00  0.00    -0.332 N 
ATOM     22  C   UNL     1       5.804  -1.322   1.306  1.00  0.00     0.147 C 
BRANCH  21  23
ATOM     23  C   UNL     1       4.423   0.753   1.074  1.00  0.00     0.178 C 
BRANCH  23  24
ATOM     24  C   UNL     1       2.970   1.267   1.014  1.00  0.00     0.070 C 
BRANCH  24  25
ATOM     25  C   UNL     1       2.658   2.329  -0.014  1.00  0.00    -0.045 A 
ATOM     26  C   UNL     1       2.976   2.137  -1.365  1.00  0.00     0.004 A 
ATOM     27  C   UNL     1       2.045   3.530   0.374  1.00  0.00     0.004 A 
ATOM     28  C   UNL     1       2.700   3.131  -2.306  1.00  0.00     0.000 A 
ATOM     29  C   UNL     1       1.768   4.522  -0.568  1.00  0.00     0.000 A 
ATOM     30  C   UNL     1       2.098   4.323  -1.907  1.00  0.00     0.000 A 
ENDBRANCH  24  25
ENDBRANCH  23  24
BRANCH  23  31
ATOM     31  C   UNL     1       5.447   1.760   1.651  1.00  0.00     0.243 C 
ATOM     32  O   UNL     1       5.489   2.096   2.832  1.00  0.00    -0.273 OA
ATOM     33  N   UNL     1       6.202   2.398   0.682  1.00  0.00    -0.341 N 
ATOM     34  H   UNL     1       6.120   2.078  -0.286  1.00  0.00     0.164 HD
BRANCH  33  35
ATOM     35  C   UNL     1       7.149   3.474   0.987  1.00  0.00     0.194 C 
BRANCH  35  36
ATOM     36  C   UNL     1       6.664   4.888   0.560  1.00  0.00     0.017 C 
ATOM     37  C   UNL     1       6.187   5.705   1.773  1.00  0.00     0.010 C 
ATOM     38  C   UNL     1       5.511   4.851  -0.451  1.00  0.00     0.010 C 
ENDBRANCH  35  36
BRANCH  35  39
ATOM     39  C   UNL     1       8.584   3.172   0.470  1.00  0.00     0.329 C 
ATOM     40  O   UNL     1       9.269   2.233   0.857  1.00  0.00    -0.250 OA
BRANCH  39  41
ATOM     41  O   UNL     1       8.965   4.022  -0.532  1.00  0.00    -0.458 OA
BRANCH  41  42
ATOM     42  C   UNL     1       9.023   3.458  -1.864  1.00  0.00     0.205 CG0
ATOM     43  C   UNL     1      10.479   3.525  -2.321  1.00  0.00     0.056 C 
ATOM     44  G   UNL     1       8.079   4.262  -2.780  1.00  0.00     0.000 G0
ENDBRANCH  41  42
ENDBRANCH  39  41
ENDBRANCH  35  39
ENDBRANCH  33  35
ENDBRANCH  23  31
ENDBRANCH  21  23
ENDBRANCH  19  21
ENDBRANCH  14  19
ENDBRANCH   7  14
ENDBRANCH   2   5
BRANCH   3  45
ATOM     45  C   UNL     1      -2.433  -6.279   4.293  1.00  0.00     0.171 C 
BRANCH  45  46
ATOM     46  N   UNL     1      -3.199  -6.636   5.480  1.00  0.00    -0.342 N 
ATOM     47  C   UNL     1      -4.494  -7.084   5.413  1.00  0.00     0.247 C 
ATOM     48  O   UNL     1      -5.077  -7.286   4.348  1.00  0.00    -0.273 OA
ATOM     49  H   UNL     1      -2.734  -6.538   6.381  1.00  0.00     0.164 HD
BRANCH  47  50
ATOM     50  C   UNL     1      -5.180  -7.292   6.771  1.00  0.00     0.212 CG0
ATOM     51  G   UNL     1      -4.485  -8.477   7.469  1.00  0.00     0.000 G0
BRANCH  50  52
ATOM     52  N   UNL     1      -5.022  -6.028   7.485  1.00  0.00    -0.339 N 
ATOM     53  C   UNL     1      -6.019  -5.088   7.588  1.00  0.00     0.243 C 
ATOM     54  O   UNL     1      -7.109  -5.217   7.038  1.00  0.00    -0.273 OA
ATOM     55  H   UNL     1      -4.104  -5.813   7.868  1.00  0.00     0.164 HD
BRANCH  53  56
ATOM     56  C   UNL     1      -5.591  -3.797   8.314  1.00  0.00     0.182 C 
BRANCH  56  57
ATOM     57  N   UNL     1      -6.757  -3.074   8.833  1.00  0.00    -0.344 N 
ATOM     58  C   UNL     1      -7.174  -3.190  10.137  1.00  0.00     0.220 C 
ATOM     59  O   UNL     1      -6.650  -3.959  10.935  1.00  0.00    -0.275 OA
ATOM     60  H   UNL     1      -7.155  -2.354   8.237  1.00  0.00     0.164 HD
BRANCH  58  61
ATOM     61  C   UNL     1      -8.364  -2.308  10.468  1.00  0.00     0.100 C 
BRANCH  61  62
ATOM     62  C   UNL     1      -9.714  -3.007  10.306  1.00  0.00     0.010 C 
BRANCH  62  63
ATOM     63  C   UNL     1     -10.444  -3.276  11.627  1.00  0.00     0.000 C 
BRANCH  63  64
ATOM     64  C   UNL     1     -11.686  -4.156  11.490  1.00  0.00    -0.003 C 
ATOM     65  C   UNL     1     -11.637  -4.989  10.217  1.00  0.00     0.004 C 
ENDBRANCH  63  64
ENDBRANCH  62  63
ENDBRANCH  61  62
ENDBRANCH  58  61
ENDBRANCH  56  57
BRANCH  56  66
ATOM     66  C   UNL     1      -4.716  -2.916   7.424  1.00  0.00     0.157 C 
BRANCH  66  67
ATOM     67  C   UNL     1      -5.249  -1.514   7.354  1.00  0.00     0.305 C 
ATOM     68  O   UNL     1      -4.977  -0.588   8.102  1.00  0.00    -0.252 OA
BRANCH  67  69
ATOM     69  O   UNL     1      -6.069  -1.331   6.301  1.00  0.00    -0.481 OA
ATOM     70  H   UNL     1      -6.639  -0.575   6.557  1.00  0.00     0.296 HD
ENDBRANCH  67  69
ENDBRANCH  66  67
ENDBRANCH  56  66
ENDBRANCH  53  56
ENDBRANCH  50  52
ENDBRANCH  47  50
ENDBRANCH  45  46
BRANCH  45  71
ATOM     71  C   UNL     1      -1.407  -7.360   3.935  1.00  0.00     0.037 C 
BRANCH  71  72
ATOM     72  C   UNL     1      -0.842  -8.051   5.178  1.00  0.00     0.026 C 
BRANCH  72  73
ATOM     73  C   UNL     1      -1.030  -9.565   5.112  1.00  0.00     0.146 C 
BRANCH  73  74
ATOM     74  N   UNL     1      -2.464  -9.838   5.125  1.00  0.00    -0.254 NA
ATOM     75  C   UNL     1      -2.921 -10.683   4.276  1.00  0.00     0.185 C 
ATOM     76  N   UNL     1      -4.235 -10.955   4.264  1.00  0.00    -0.370 N 
ATOM     77  N   UNL     1      -2.256 -11.382   3.339  1.00  0.00    -0.370 N 
ATOM     78  H   UNL     1      -4.811 -10.465   4.933  1.00  0.00     0.159 HD
ATOM     79  H   UNL     1      -4.683 -11.490   3.540  1.00  0.00     0.159 HD
ATOM     80  H   UNL     1      -1.258 -11.282   3.235  1.00  0.00     0.159 HD
ATOM     81  H   UNL     1      -2.706 -12.106   2.803  1.00  0.00     0.159 HD
ENDBRANCH  73  74
ENDBRANCH  72  73
ENDBRANCH  71  72
ENDBRANCH  45  71
ENDBRANCH   3  45
TORSDOF 20
ENDMDL
MODEL 30
REMARK VINA RESULT:    -5.464      5.558     11.540
REMARK INTER + INTRA:         -23.751
REMARK INTER:                 -16.885
REMARK INTRA:                  -6.866
REMARK UNBOUND:                -8.064
REMARK SMILES CCCCCC(=O)N[C@H](CC(=O)O)C(=O)N[C@H]1C(=O)N[C@H](CCCN=C(N)N)C(=O)N[C@@H]2CC[C@H](O)N(C2=O)[C@@H](CC(C)C)C(=O)N(C)[C@@H](Cc2ccccc2)C(=O)N[C@H](C(C)C)C(=O)O[C@@H]1C
REMARK SMILES IDX 30 1 31 2 29 3 32 5 35 6 37 7 34 8 38 9 33 10 39 11 36 12
REMARK SMILES IDX 40 14 41 15 42 16 43 17 44 18 45 19 46 20 47 21 48 22 49 23
REMARK SMILES IDX 50 24 51 25 52 26 56 27 53 28 55 29 54 30 57 31 58 32 59 33
REMARK SMILES IDX 60 35 61 36 62 37 63 38 64 39 65 40 66 41 67 42 68 43 21 45
REMARK SMILES IDX 20 46 18 47 19 48 17 50 16 52 14 53 15 54 9 56 8 57 6 58
REMARK SMILES IDX 7 59 5 61 4 62 3 63 2 64 1 65 10 66 11 67 12 68 13 69 22 71
REMARK SMILES IDX 23 72 24 73 25 74 26 75 27 76 28 77
REMARK H PARENT 31 4 36 13 59 34 20 49 16 55 8 60 13 70 27 78 27 79 28 80
REMARK H PARENT 28 81
REMARK Flexibility Score:  259.900
ROOT
ATOM      1  O   UNL     1       6.638  -2.690  -0.368  1.00  0.00    -0.273 OA
ATOM      2  N   UNL     1       4.397  -2.236  -0.319  1.00  0.00    -0.343 N 
ATOM      3  C   UNL     1       5.671  -2.077  -0.820  1.00  0.00     0.243 C 
ATOM      4  H   UNL     1       3.623  -1.725  -0.725  1.00  0.00     0.164 HD
ENDROOT
BRANCH   2   5
ATOM      5  C   UNL     1       4.162  -3.060   0.862  1.00  0.00     0.171 C 
ATOM      6  C   UNL     1       1.756  -3.762   2.320  1.00  0.00     0.214 C 
ATOM      7  N   UNL     1       2.510  -2.594   2.713  1.00  0.00    -0.303 N 
ATOM      8  C   UNL     1       2.617  -4.855   1.707  1.00  0.00     0.057 C 
ATOM      9  C   UNL     1       3.638  -2.173   2.028  1.00  0.00     0.247 C 
ATOM     10  C   UNL     1       3.359  -4.311   0.506  1.00  0.00     0.040 C 
ATOM     11  O   UNL     1       4.228  -1.124   2.317  1.00  0.00    -0.272 OA
BRANCH   6  12
ATOM     12  O   UNL     1       0.764  -3.348   1.409  1.00  0.00    -0.373 OA
ATOM     13  H   UNL     1       1.062  -3.621   0.515  1.00  0.00     0.213 HD
ENDBRANCH   6  12
BRANCH   7  14
ATOM     14  C   UNL     1       1.944  -1.765   3.798  1.00  0.00     0.177 C 
BRANCH  14  15
ATOM     15  C   UNL     1       0.628  -1.041   3.453  1.00  0.00     0.038 C 
BRANCH  15  16
ATOM     16  C   UNL     1       0.468   0.455   3.805  1.00  0.00    -0.015 C 
ATOM     17  C   UNL     1      -0.153   1.261   2.660  1.00  0.00     0.007 C 
ATOM     18  C   UNL     1       1.839   1.061   4.130  1.00  0.00     0.007 C 
ENDBRANCH  15  16
ENDBRANCH  14  15
BRANCH  14  19
ATOM     19  C   UNL     1       2.301  -2.381   5.195  1.00  0.00     0.245 C 
ATOM     20  O   UNL     1       3.399  -2.954   5.289  1.00  0.00    -0.272 OA
BRANCH  19  21
ATOM     21  N   UNL     1       1.428  -2.417   6.268  1.00  0.00    -0.332 N 
ATOM     22  C   UNL     1       1.383  -1.450   7.350  1.00  0.00     0.147 C 
BRANCH  21  23
ATOM     23  C   UNL     1       0.455  -3.542   6.336  1.00  0.00     0.178 C 
BRANCH  23  24
ATOM     24  C   UNL     1       0.945  -4.771   7.129  1.00  0.00     0.070 C 
BRANCH  24  25
ATOM     25  C   UNL     1       1.128  -6.059   6.359  1.00  0.00    -0.045 A 
ATOM     26  C   UNL     1       1.309  -7.276   7.028  1.00  0.00     0.004 A 
ATOM     27  C   UNL     1       1.123  -6.051   4.956  1.00  0.00     0.004 A 
ATOM     28  C   UNL     1       1.494  -8.458   6.309  1.00  0.00     0.000 A 
ATOM     29  C   UNL     1       1.307  -7.234   4.239  1.00  0.00     0.000 A 
ATOM     30  C   UNL     1       1.496  -8.436   4.917  1.00  0.00     0.000 A 
ENDBRANCH  24  25
ENDBRANCH  23  24
BRANCH  23  31
ATOM     31  C   UNL     1      -0.982  -3.078   6.675  1.00  0.00     0.243 C 
ATOM     32  O   UNL     1      -1.668  -2.375   5.938  1.00  0.00    -0.273 OA
ATOM     33  N   UNL     1      -1.366  -3.371   7.973  1.00  0.00    -0.341 N 
ATOM     34  H   UNL     1      -0.748  -3.956   8.541  1.00  0.00     0.164 HD
BRANCH  33  35
ATOM     35  C   UNL     1      -2.636  -2.924   8.550  1.00  0.00     0.194 C 
BRANCH  35  36
ATOM     36  C   UNL     1      -2.553  -1.556   9.285  1.00  0.00     0.017 C 
ATOM     37  C   UNL     1      -3.028  -0.405   8.381  1.00  0.00     0.010 C 
ATOM     38  C   UNL     1      -1.137  -1.211   9.761  1.00  0.00     0.010 C 
ENDBRANCH  35  36
BRANCH  35  39
ATOM     39  C   UNL     1      -3.311  -4.014   9.429  1.00  0.00     0.329 C 
ATOM     40  O   UNL     1      -2.784  -4.528  10.409  1.00  0.00    -0.250 OA
BRANCH  39  41
ATOM     41  O   UNL     1      -4.595  -4.276   9.038  1.00  0.00    -0.458 OA
BRANCH  41  42
ATOM     42  C   UNL     1      -4.892  -5.649   8.688  1.00  0.00     0.205 CG0
ATOM     43  C   UNL     1      -4.698  -5.786   7.180  1.00  0.00     0.056 C 
ATOM     44  G   UNL     1      -6.334  -5.968   9.129  1.00  0.00     0.000 G0
ENDBRANCH  41  42
ENDBRANCH  39  41
ENDBRANCH  35  39
ENDBRANCH  33  35
ENDBRANCH  23  31
ENDBRANCH  21  23
ENDBRANCH  19  21
ENDBRANCH  14  19
ENDBRANCH   7  14
ENDBRANCH   2   5
BRANCH   3  45
ATOM     45  C   UNL     1       5.797  -1.098  -1.996  1.00  0.00     0.171 C 
BRANCH  45  46
ATOM     46  N   UNL     1       7.097  -0.461  -1.840  1.00  0.00    -0.342 N 
ATOM     47  C   UNL     1       8.163  -0.754  -2.654  1.00  0.00     0.247 C 
ATOM     48  O   UNL     1       8.079  -1.518  -3.616  1.00  0.00    -0.273 OA
ATOM     49  H   UNL     1       7.195   0.221  -1.090  1.00  0.00     0.164 HD
BRANCH  47  50
ATOM     50  C   UNL     1       9.485  -0.079  -2.262  1.00  0.00     0.212 CG0
ATOM     51  G   UNL     1      10.602  -0.706  -3.119  1.00  0.00     0.000 G0
BRANCH  50  52
ATOM     52  N   UNL     1       9.288   1.345  -2.523  1.00  0.00    -0.339 N 
ATOM     53  C   UNL     1      10.089   2.328  -1.995  1.00  0.00     0.243 C 
ATOM     54  O   UNL     1      11.007   2.087  -1.216  1.00  0.00    -0.273 OA
ATOM     55  H   UNL     1       8.475   1.616  -3.073  1.00  0.00     0.164 HD
BRANCH  53  56
ATOM     56  C   UNL     1       9.634   3.760  -2.341  1.00  0.00     0.182 C 
BRANCH  56  57
ATOM     57  N   UNL     1       8.302   4.037  -1.793  1.00  0.00    -0.344 N 
ATOM     58  C   UNL     1       8.116   4.521  -0.521  1.00  0.00     0.220 C 
ATOM     59  O   UNL     1       9.040   4.687   0.268  1.00  0.00    -0.275 OA
ATOM     60  H   UNL     1       7.522   4.010  -2.444  1.00  0.00     0.164 HD
BRANCH  58  61
ATOM     61  C   UNL     1       6.660   4.788  -0.187  1.00  0.00     0.100 C 
BRANCH  61  62
ATOM     62  C   UNL     1       5.902   3.552   0.299  1.00  0.00     0.010 C 
BRANCH  62  63
ATOM     63  C   UNL     1       4.712   3.866   1.215  1.00  0.00     0.000 C 
BRANCH  63  64
ATOM     64  C   UNL     1       3.358   3.442   0.650  1.00  0.00    -0.003 C 
ATOM     65  C   UNL     1       3.137   1.944   0.802  1.00  0.00     0.004 C 
ENDBRANCH  63  64
ENDBRANCH  62  63
ENDBRANCH  61  62
ENDBRANCH  58  61
ENDBRANCH  56  57
BRANCH  56  66
ATOM     66  C   UNL     1       9.705   4.024  -3.844  1.00  0.00     0.157 C 
BRANCH  66  67
ATOM     67  C   UNL     1       8.435   4.647  -4.347  1.00  0.00     0.305 C 
ATOM     68  O   UNL     1       8.228   5.836  -4.538  1.00  0.00    -0.252 OA
BRANCH  67  69
ATOM     69  O   UNL     1       7.495   3.728  -4.639  1.00  0.00    -0.481 OA
ATOM     70  H   UNL     1       7.388   3.209  -3.814  1.00  0.00     0.296 HD
ENDBRANCH  67  69
ENDBRANCH  66  67
ENDBRANCH  56  66
ENDBRANCH  53  56
ENDBRANCH  50  52
ENDBRANCH  47  50
ENDBRANCH  45  46
BRANCH  45  71
ATOM     71  C   UNL     1       4.657  -0.074  -1.962  1.00  0.00     0.037 C 
BRANCH  71  72
ATOM     72  C   UNL     1       4.784   0.966  -3.077  1.00  0.00     0.026 C 
BRANCH  72  73
ATOM     73  C   UNL     1       4.060   2.263  -2.720  1.00  0.00     0.146 C 
BRANCH  73  74
ATOM     74  N   UNL     1       4.928   3.376  -3.092  1.00  0.00    -0.254 NA
ATOM     75  C   UNL     1       4.424   4.555  -3.091  1.00  0.00     0.185 C 
ATOM     76  N   UNL     1       5.198   5.600  -3.427  1.00  0.00    -0.370 N 
ATOM     77  N   UNL     1       3.171   4.938  -2.791  1.00  0.00    -0.370 N 
ATOM     78  H   UNL     1       6.156   5.398  -3.676  1.00  0.00     0.159 HD
ATOM     79  H   UNL     1       4.840   6.524  -3.589  1.00  0.00     0.159 HD
ATOM     80  H   UNL     1       2.478   4.258  -2.515  1.00  0.00     0.159 HD
ATOM     81  H   UNL     1       2.919   5.909  -2.713  1.00  0.00     0.159 HD
ENDBRANCH  73  74
ENDBRANCH  72  73
ENDBRANCH  71  72
ENDBRANCH  45  71
ENDBRANCH   3  45
TORSDOF 20
ENDMDL
MODEL 31
REMARK VINA RESULT:    -5.462      4.632     12.733
REMARK INTER + INTRA:         -23.746
REMARK INTER:                 -17.644
REMARK INTRA:                  -6.101
REMARK UNBOUND:                -8.064
REMARK SMILES CCCCCC(=O)N[C@H](CC(=O)O)C(=O)N[C@H]1C(=O)N[C@H](CCCN=C(N)N)C(=O)N[C@@H]2CC[C@H](O)N(C2=O)[C@@H](CC(C)C)C(=O)N(C)[C@@H](Cc2ccccc2)C(=O)N[C@H](C(C)C)C(=O)O[C@@H]1C
REMARK SMILES IDX 30 1 31 2 29 3 32 5 35 6 37 7 34 8 38 9 33 10 39 11 36 12
REMARK SMILES IDX 40 14 41 15 42 16 43 17 44 18 45 19 46 20 47 21 48 22 49 23
REMARK SMILES IDX 50 24 51 25 52 26 56 27 53 28 55 29 54 30 57 31 58 32 59 33
REMARK SMILES IDX 60 35 61 36 62 37 63 38 64 39 65 40 66 41 67 42 68 43 21 45
REMARK SMILES IDX 20 46 18 47 19 48 17 50 16 52 14 53 15 54 9 56 8 57 6 58
REMARK SMILES IDX 7 59 5 61 4 62 3 63 2 64 1 65 10 66 11 67 12 68 13 69 22 71
REMARK SMILES IDX 23 72 24 73 25 74 26 75 27 76 28 77
REMARK H PARENT 31 4 36 13 59 34 20 49 16 55 8 60 13 70 27 78 27 79 28 80
REMARK H PARENT 28 81
REMARK Flexibility Score:  259.900
ROOT
ATOM      1  O   UNL     1       4.328   0.534   3.218  1.00  0.00    -0.273 OA
ATOM      2  N   UNL     1       4.477  -1.688   2.696  1.00  0.00    -0.343 N 
ATOM      3  C   UNL     1       4.950  -0.393   2.699  1.00  0.00     0.243 C 
ATOM      4  H   UNL     1       5.023  -2.428   2.272  1.00  0.00     0.164 HD
ENDROOT
BRANCH   2   5
ATOM      5  C   UNL     1       3.147  -1.993   3.211  1.00  0.00     0.171 C 
ATOM      6  C   UNL     1       2.023  -4.347   4.477  1.00  0.00     0.214 C 
ATOM      7  N   UNL     1       1.943  -4.205   3.042  1.00  0.00    -0.303 N 
ATOM      8  C   UNL     1       2.022  -3.017   5.214  1.00  0.00     0.057 C 
ATOM      9  C   UNL     1       2.504  -3.132   2.369  1.00  0.00     0.247 C 
ATOM     10  C   UNL     1       3.172  -2.162   4.730  1.00  0.00     0.040 C 
ATOM     11  O   UNL     1       2.506  -3.061   1.133  1.00  0.00    -0.272 OA
BRANCH   6  12
ATOM     12  O   UNL     1       3.194  -5.073   4.773  1.00  0.00    -0.373 OA
ATOM     13  H   UNL     1       3.928  -4.649   4.278  1.00  0.00     0.213 HD
ENDBRANCH   6  12
BRANCH   7  14
ATOM     14  C   UNL     1       1.361  -5.336   2.288  1.00  0.00     0.177 C 
BRANCH  14  15
ATOM     15  C   UNL     1       2.360  -6.433   1.874  1.00  0.00     0.038 C 
BRANCH  15  16
ATOM     16  C   UNL     1       2.161  -7.179   0.536  1.00  0.00    -0.015 C 
ATOM     17  C   UNL     1       3.391  -7.998   0.135  1.00  0.00     0.007 C 
ATOM     18  C   UNL     1       1.869  -6.170  -0.582  1.00  0.00     0.007 C 
ENDBRANCH  15  16
ENDBRANCH  14  15
BRANCH  14  19
ATOM     19  C   UNL     1      -0.122  -5.581   2.735  1.00  0.00     0.245 C 
ATOM     20  O   UNL     1      -0.897  -4.613   2.658  1.00  0.00    -0.272 OA
BRANCH  19  21
ATOM     21  N   UNL     1      -0.570  -6.760   3.305  1.00  0.00    -0.332 N 
ATOM     22  C   UNL     1      -0.293  -7.200   4.660  1.00  0.00     0.147 C 
BRANCH  21  23
ATOM     23  C   UNL     1      -1.399  -7.667   2.464  1.00  0.00     0.178 C 
BRANCH  23  24
ATOM     24  C   UNL     1      -0.710  -8.989   2.068  1.00  0.00     0.070 C 
BRANCH  24  25
ATOM     25  C   UNL     1      -0.598  -9.292   0.592  1.00  0.00    -0.045 A 
ATOM     26  C   UNL     1       0.362 -10.194   0.115  1.00  0.00     0.004 A 
ATOM     27  C   UNL     1      -1.455  -8.666  -0.326  1.00  0.00     0.004 A 
ATOM     28  C   UNL     1       0.471 -10.455  -1.252  1.00  0.00     0.000 A 
ATOM     29  C   UNL     1      -1.346  -8.929  -1.692  1.00  0.00     0.000 A 
ATOM     30  C   UNL     1      -0.381  -9.822  -2.154  1.00  0.00     0.000 A 
ENDBRANCH  24  25
ENDBRANCH  23  24
BRANCH  23  31
ATOM     31  C   UNL     1      -2.848  -7.819   2.986  1.00  0.00     0.243 C 
ATOM     32  O   UNL     1      -3.547  -6.878   3.352  1.00  0.00    -0.273 OA
ATOM     33  N   UNL     1      -3.230  -9.135   3.182  1.00  0.00    -0.341 N 
ATOM     34  H   UNL     1      -2.602  -9.876   2.861  1.00  0.00     0.164 HD
BRANCH  33  35
ATOM     35  C   UNL     1      -4.513  -9.513   3.780  1.00  0.00     0.194 C 
BRANCH  35  36
ATOM     36  C   UNL     1      -4.444  -9.791   5.308  1.00  0.00     0.017 C 
ATOM     37  C   UNL     1      -4.880  -8.559   6.121  1.00  0.00     0.010 C 
ATOM     38  C   UNL     1      -3.042 -10.184   5.788  1.00  0.00     0.010 C 
ENDBRANCH  35  36
BRANCH  35  39
ATOM     39  C   UNL     1      -5.214 -10.668   3.012  1.00  0.00     0.329 C 
ATOM     40  O   UNL     1      -5.253 -10.755   1.790  1.00  0.00    -0.250 OA
BRANCH  39  41
ATOM     41  O   UNL     1      -5.710 -11.626   3.852  1.00  0.00    -0.458 OA
BRANCH  41  42
ATOM     42  C   UNL     1      -5.429 -13.001   3.494  1.00  0.00     0.205 CG0
ATOM     43  C   UNL     1      -4.037 -13.334   4.026  1.00  0.00     0.056 C 
ATOM     44  G   UNL     1      -5.523 -13.138   1.961  1.00  0.00     0.000 G0
ENDBRANCH  41  42
ENDBRANCH  39  41
ENDBRANCH  35  39
ENDBRANCH  33  35
ENDBRANCH  23  31
ENDBRANCH  21  23
ENDBRANCH  19  21
ENDBRANCH  14  19
ENDBRANCH   7  14
ENDBRANCH   2   5
BRANCH   3  45
ATOM     45  C   UNL     1       6.316  -0.191   2.029  1.00  0.00     0.171 C 
BRANCH  45  46
ATOM     46  N   UNL     1       6.380   1.222   1.682  1.00  0.00    -0.342 N 
ATOM     47  C   UNL     1       7.529   1.961   1.813  1.00  0.00     0.247 C 
ATOM     48  O   UNL     1       8.603   1.471   2.162  1.00  0.00    -0.273 OA
ATOM     49  H   UNL     1       5.526   1.656   1.336  1.00  0.00     0.164 HD
BRANCH  47  50
ATOM     50  C   UNL     1       7.374   3.460   1.520  1.00  0.00     0.212 CG0
ATOM     51  G   UNL     1       8.684   4.156   1.940  1.00  0.00     0.000 G0
BRANCH  50  52
ATOM     52  N   UNL     1       7.106   3.551   0.087  1.00  0.00    -0.339 N 
ATOM     53  C   UNL     1       7.971   4.132  -0.808  1.00  0.00     0.243 C 
ATOM     54  O   UNL     1       9.019   4.671  -0.462  1.00  0.00    -0.273 OA
ATOM     55  H   UNL     1       6.203   3.221  -0.247  1.00  0.00     0.164 HD
BRANCH  53  56
ATOM     56  C   UNL     1       7.435   4.188  -2.253  1.00  0.00     0.182 C 
BRANCH  56  57
ATOM     57  N   UNL     1       6.391   3.181  -2.467  1.00  0.00    -0.344 N 
ATOM     58  C   UNL     1       5.123   3.511  -2.879  1.00  0.00     0.220 C 
ATOM     59  O   UNL     1       4.754   4.671  -3.026  1.00  0.00    -0.275 OA
ATOM     60  H   UNL     1       6.682   2.207  -2.455  1.00  0.00     0.164 HD
BRANCH  58  61
ATOM     61  C   UNL     1       4.227   2.305  -3.091  1.00  0.00     0.100 C 
BRANCH  61  62
ATOM     62  C   UNL     1       2.971   2.309  -2.220  1.00  0.00     0.010 C 
BRANCH  62  63
ATOM     63  C   UNL     1       3.230   2.653  -0.747  1.00  0.00     0.000 C 
BRANCH  63  64
ATOM     64  C   UNL     1       2.906   1.522   0.227  1.00  0.00    -0.003 C 
ATOM     65  C   UNL     1       2.885   0.172  -0.475  1.00  0.00     0.004 C 
ENDBRANCH  63  64
ENDBRANCH  62  63
ENDBRANCH  61  62
ENDBRANCH  58  61
ENDBRANCH  56  57
BRANCH  56  66
ATOM     66  C   UNL     1       8.565   4.073  -3.275  1.00  0.00     0.157 C 
BRANCH  66  67
ATOM     67  C   UNL     1       8.360   5.020  -4.422  1.00  0.00     0.305 C 
ATOM     68  O   UNL     1       8.915   6.096  -4.592  1.00  0.00    -0.252 OA
BRANCH  67  69
ATOM     69  O   UNL     1       7.496   4.539  -5.335  1.00  0.00    -0.481 OA
ATOM     70  H   UNL     1       7.570   5.151  -6.097  1.00  0.00     0.296 HD
ENDBRANCH  67  69
ENDBRANCH  66  67
ENDBRANCH  56  66
ENDBRANCH  53  56
ENDBRANCH  50  52
ENDBRANCH  47  50
ENDBRANCH  45  46
BRANCH  45  71
ATOM     71  C   UNL     1       6.439  -1.084   0.789  1.00  0.00     0.037 C 
BRANCH  71  72
ATOM     72  C   UNL     1       7.775  -1.830   0.747  1.00  0.00     0.026 C 
BRANCH  72  73
ATOM     73  C   UNL     1       7.582  -3.335   0.919  1.00  0.00     0.146 C 
BRANCH  73  74
ATOM     74  N   UNL     1       8.873  -3.913   1.281  1.00  0.00    -0.254 NA
ATOM     75  C   UNL     1       9.548  -4.493   0.358  1.00  0.00     0.185 C 
ATOM     76  N   UNL     1      10.740  -5.033   0.660  1.00  0.00    -0.370 N 
ATOM     77  N   UNL     1       9.239  -4.657  -0.940  1.00  0.00    -0.370 N 
ATOM     78  H   UNL     1      11.046  -4.961   1.620  1.00  0.00     0.159 HD
ATOM     79  H   UNL     1      11.255  -5.624   0.031  1.00  0.00     0.159 HD
ATOM     80  H   UNL     1       8.373  -4.297  -1.311  1.00  0.00     0.159 HD
ATOM     81  H   UNL     1       9.904  -5.030  -1.598  1.00  0.00     0.159 HD
ENDBRANCH  73  74
ENDBRANCH  72  73
ENDBRANCH  71  72
ENDBRANCH  45  71
ENDBRANCH   3  45
TORSDOF 20
ENDMDL
MODEL 32
REMARK VINA RESULT:    -5.459      2.851     12.651
REMARK INTER + INTRA:         -23.734
REMARK INTER:                 -16.022
REMARK INTRA:                  -7.712
REMARK UNBOUND:                -8.064
REMARK SMILES CCCCCC(=O)N[C@H](CC(=O)O)C(=O)N[C@H]1C(=O)N[C@H](CCCN=C(N)N)C(=O)N[C@@H]2CC[C@H](O)N(C2=O)[C@@H](CC(C)C)C(=O)N(C)[C@@H](Cc2ccccc2)C(=O)N[C@H](C(C)C)C(=O)O[C@@H]1C
REMARK SMILES IDX 30 1 31 2 29 3 32 5 35 6 37 7 34 8 38 9 33 10 39 11 36 12
REMARK SMILES IDX 40 14 41 15 42 16 43 17 44 18 45 19 46 20 47 21 48 22 49 23
REMARK SMILES IDX 50 24 51 25 52 26 56 27 53 28 55 29 54 30 57 31 58 32 59 33
REMARK SMILES IDX 60 35 61 36 62 37 63 38 64 39 65 40 66 41 67 42 68 43 21 45
REMARK SMILES IDX 20 46 18 47 19 48 17 50 16 52 14 53 15 54 9 56 8 57 6 58
REMARK SMILES IDX 7 59 5 61 4 62 3 63 2 64 1 65 10 66 11 67 12 68 13 69 22 71
REMARK SMILES IDX 23 72 24 73 25 74 26 75 27 76 28 77
REMARK H PARENT 31 4 36 13 59 34 20 49 16 55 8 60 13 70 27 78 27 79 28 80
REMARK H PARENT 28 81
REMARK Flexibility Score:  259.900
ROOT
ATOM      1  O   UNL     1       1.639   1.428   5.636  1.00  0.00    -0.273 OA
ATOM      2  N   UNL     1       3.042  -0.364   5.410  1.00  0.00    -0.343 N 
ATOM      3  C   UNL     1       2.716   0.966   5.257  1.00  0.00     0.243 C 
ATOM      4  H   UNL     1       3.944  -0.706   5.100  1.00  0.00     0.164 HD
ENDROOT
BRANCH   2   5
ATOM      5  C   UNL     1       2.063  -1.314   5.927  1.00  0.00     0.171 C 
ATOM      6  C   UNL     1       2.063  -4.204   6.161  1.00  0.00     0.214 C 
ATOM      7  N   UNL     1       1.527  -3.587   4.970  1.00  0.00    -0.303 N 
ATOM      8  C   UNL     1       1.909  -3.343   7.405  1.00  0.00     0.057 C 
ATOM      9  C   UNL     1       1.543  -2.216   4.771  1.00  0.00     0.247 C 
ATOM     10  C   UNL     1       2.581  -2.004   7.188  1.00  0.00     0.040 C 
ATOM     11  O   UNL     1       1.161  -1.702   3.712  1.00  0.00    -0.272 OA
BRANCH   6  12
ATOM     12  O   UNL     1       3.422  -4.489   5.924  1.00  0.00    -0.373 OA
ATOM     13  H   UNL     1       3.586  -4.333   4.970  1.00  0.00     0.213 HD
ENDBRANCH   6  12
BRANCH   7  14
ATOM     14  C   UNL     1       1.086  -4.492   3.887  1.00  0.00     0.177 C 
BRANCH  14  15
ATOM     15  C   UNL     1       2.222  -5.146   3.075  1.00  0.00     0.038 C 
BRANCH  15  16
ATOM     16  C   UNL     1       2.984  -4.311   2.023  1.00  0.00    -0.015 C 
ATOM     17  C   UNL     1       3.236  -5.090   0.729  1.00  0.00     0.007 C 
ATOM     18  C   UNL     1       4.339  -3.872   2.592  1.00  0.00     0.007 C 
ENDBRANCH  15  16
ENDBRANCH  14  15
BRANCH  14  19
ATOM     19  C   UNL     1      -0.267  -5.183   4.273  1.00  0.00     0.245 C 
ATOM     20  O   UNL     1      -1.229  -4.435   4.511  1.00  0.00    -0.272 OA
BRANCH  19  21
ATOM     21  N   UNL     1      -0.409  -6.546   4.468  1.00  0.00    -0.332 N 
ATOM     22  C   UNL     1      -0.165  -7.249   5.715  1.00  0.00     0.147 C 
BRANCH  21  23
ATOM     23  C   UNL     1      -0.836  -7.374   3.306  1.00  0.00     0.178 C 
BRANCH  23  24
ATOM     24  C   UNL     1       0.081  -8.574   2.997  1.00  0.00     0.070 C 
BRANCH  24  25
ATOM     25  C   UNL     1       0.919  -8.495   1.741  1.00  0.00    -0.045 A 
ATOM     26  C   UNL     1       0.351  -8.096   0.524  1.00  0.00     0.004 A 
ATOM     27  C   UNL     1       2.281  -8.827   1.778  1.00  0.00     0.004 A 
ATOM     28  C   UNL     1       1.128  -8.041  -0.635  1.00  0.00     0.000 A 
ATOM     29  C   UNL     1       3.057  -8.770   0.618  1.00  0.00     0.000 A 
ATOM     30  C   UNL     1       2.478  -8.380  -0.588  1.00  0.00     0.000 A 
ENDBRANCH  24  25
ENDBRANCH  23  24
BRANCH  23  31
ATOM     31  C   UNL     1      -2.349  -7.697   3.320  1.00  0.00     0.243 C 
ATOM     32  O   UNL     1      -3.232  -6.861   3.142  1.00  0.00    -0.273 OA
ATOM     33  N   UNL     1      -2.636  -8.986   3.735  1.00  0.00    -0.341 N 
ATOM     34  H   UNL     1      -1.858  -9.636   3.873  1.00  0.00     0.164 HD
BRANCH  33  35
ATOM     35  C   UNL     1      -4.003  -9.475   3.938  1.00  0.00     0.194 C 
BRANCH  35  36
ATOM     36  C   UNL     1      -4.198 -10.291   5.247  1.00  0.00     0.017 C 
ATOM     37  C   UNL     1      -5.041  -9.511   6.271  1.00  0.00     0.010 C 
ATOM     38  C   UNL     1      -2.876 -10.663   5.930  1.00  0.00     0.010 C 
ENDBRANCH  35  36
BRANCH  35  39
ATOM     39  C   UNL     1      -4.558 -10.228   2.697  1.00  0.00     0.329 C 
ATOM     40  O   UNL     1      -5.629  -9.968   2.159  1.00  0.00    -0.250 OA
BRANCH  39  41
ATOM     41  O   UNL     1      -3.679 -11.158   2.216  1.00  0.00    -0.458 OA
BRANCH  41  42
ATOM     42  C   UNL     1      -4.144 -12.529   2.194  1.00  0.00     0.205 CG0
ATOM     43  C   UNL     1      -4.113 -12.995   0.739  1.00  0.00     0.056 C 
ATOM     44  G   UNL     1      -5.561 -12.577   2.799  1.00  0.00     0.000 G0
ENDBRANCH  41  42
ENDBRANCH  39  41
ENDBRANCH  35  39
ENDBRANCH  33  35
ENDBRANCH  23  31
ENDBRANCH  21  23
ENDBRANCH  19  21
ENDBRANCH  14  19
ENDBRANCH   7  14
ENDBRANCH   2   5
BRANCH   3  45
ATOM     45  C   UNL     1       3.797   1.836   4.602  1.00  0.00     0.171 C 
BRANCH  45  46
ATOM     46  N   UNL     1       3.457   3.211   4.944  1.00  0.00    -0.342 N 
ATOM     47  C   UNL     1       4.004   3.857   6.025  1.00  0.00     0.247 C 
ATOM     48  O   UNL     1       4.872   3.351   6.737  1.00  0.00    -0.273 OA
ATOM     49  H   UNL     1       2.784   3.687   4.347  1.00  0.00     0.164 HD
BRANCH  47  50
ATOM     50  C   UNL     1       3.435   5.255   6.302  1.00  0.00     0.212 CG0
ATOM     51  G   UNL     1       3.755   6.141   5.082  1.00  0.00     0.000 G0
BRANCH  50  52
ATOM     52  N   UNL     1       2.003   5.058   6.512  1.00  0.00    -0.339 N 
ATOM     53  C   UNL     1       1.430   4.944   7.755  1.00  0.00     0.243 C 
ATOM     54  O   UNL     1       2.089   4.947   8.791  1.00  0.00    -0.273 OA
ATOM     55  H   UNL     1       1.417   4.937   5.688  1.00  0.00     0.164 HD
BRANCH  53  56
ATOM     56  C   UNL     1      -0.085   4.655   7.724  1.00  0.00     0.182 C 
BRANCH  56  57
ATOM     57  N   UNL     1      -0.346   3.261   7.352  1.00  0.00    -0.344 N 
ATOM     58  C   UNL     1      -0.984   2.382   8.193  1.00  0.00     0.220 C 
ATOM     59  O   UNL     1      -1.313   2.679   9.337  1.00  0.00    -0.275 OA
ATOM     60  H   UNL     1      -0.183   3.004   6.382  1.00  0.00     0.164 HD
BRANCH  58  61
ATOM     61  C   UNL     1      -1.201   1.011   7.580  1.00  0.00     0.100 C 
BRANCH  61  62
ATOM     62  C   UNL     1      -1.579  -0.066   8.596  1.00  0.00     0.010 C 
BRANCH  62  63
ATOM     63  C   UNL     1      -0.399  -0.921   9.073  1.00  0.00     0.000 C 
BRANCH  63  64
ATOM     64  C   UNL     1       0.192  -0.482  10.412  1.00  0.00    -0.003 C 
ATOM     65  C   UNL     1       1.502   0.269  10.221  1.00  0.00     0.004 C 
ENDBRANCH  63  64
ENDBRANCH  62  63
ENDBRANCH  61  62
ENDBRANCH  58  61
ENDBRANCH  56  57
BRANCH  56  66
ATOM     66  C   UNL     1      -0.825   5.641   6.822  1.00  0.00     0.157 C 
BRANCH  66  67
ATOM     67  C   UNL     1      -1.246   4.991   5.535  1.00  0.00     0.305 C 
ATOM     68  O   UNL     1      -0.520   4.657   4.611  1.00  0.00    -0.252 OA
BRANCH  67  69
ATOM     69  O   UNL     1      -2.568   4.742   5.496  1.00  0.00    -0.481 OA
ATOM     70  H   UNL     1      -2.652   3.913   4.980  1.00  0.00     0.296 HD
ENDBRANCH  67  69
ENDBRANCH  66  67
ENDBRANCH  56  66
ENDBRANCH  53  56
ENDBRANCH  50  52
ENDBRANCH  47  50
ENDBRANCH  45  46
BRANCH  45  71
ATOM     71  C   UNL     1       3.810   1.618   3.085  1.00  0.00     0.037 C 
BRANCH  71  72
ATOM     72  C   UNL     1       2.462   1.954   2.443  1.00  0.00     0.026 C 
BRANCH  72  73
ATOM     73  C   UNL     1       2.453   1.625   0.952  1.00  0.00     0.146 C 
BRANCH  73  74
ATOM     74  N   UNL     1       1.498   0.542   0.739  1.00  0.00    -0.254 NA
ATOM     75  C   UNL     1       1.963  -0.639   0.555  1.00  0.00     0.185 C 
ATOM     76  N   UNL     1       1.109  -1.656   0.358  1.00  0.00    -0.370 N 
ATOM     77  N   UNL     1       3.243  -1.048   0.527  1.00  0.00    -0.370 N 
ATOM     78  H   UNL     1       0.124  -1.433   0.356  1.00  0.00     0.159 HD
ATOM     79  H   UNL     1       1.398  -2.573   0.066  1.00  0.00     0.159 HD
ATOM     80  H   UNL     1       3.996  -0.391   0.665  1.00  0.00     0.159 HD
ATOM     81  H   UNL     1       3.484  -2.025   0.490  1.00  0.00     0.159 HD
ENDBRANCH  73  74
ENDBRANCH  72  73
ENDBRANCH  71  72
ENDBRANCH  45  71
ENDBRANCH   3  45
TORSDOF 20
ENDMDL
MODEL 33
REMARK VINA RESULT:    -5.457      7.239     11.621
REMARK INTER + INTRA:         -23.729
REMARK INTER:                 -17.305
REMARK INTRA:                  -6.424
REMARK UNBOUND:                -8.064
REMARK SMILES CCCCCC(=O)N[C@H](CC(=O)O)C(=O)N[C@H]1C(=O)N[C@H](CCCN=C(N)N)C(=O)N[C@@H]2CC[C@H](O)N(C2=O)[C@@H](CC(C)C)C(=O)N(C)[C@@H](Cc2ccccc2)C(=O)N[C@H](C(C)C)C(=O)O[C@@H]1C
REMARK SMILES IDX 30 1 31 2 29 3 32 5 35 6 37 7 34 8 38 9 33 10 39 11 36 12
REMARK SMILES IDX 40 14 41 15 42 16 43 17 44 18 45 19 46 20 47 21 48 22 49 23
REMARK SMILES IDX 50 24 51 25 52 26 56 27 53 28 55 29 54 30 57 31 58 32 59 33
REMARK SMILES IDX 60 35 61 36 62 37 63 38 64 39 65 40 66 41 67 42 68 43 21 45
REMARK SMILES IDX 20 46 18 47 19 48 17 50 16 52 14 53 15 54 9 56 8 57 6 58
REMARK SMILES IDX 7 59 5 61 4 62 3 63 2 64 1 65 10 66 11 67 12 68 13 69 22 71
REMARK SMILES IDX 23 72 24 73 25 74 26 75 27 76 28 77
REMARK H PARENT 31 4 36 13 59 34 20 49 16 55 8 60 13 70 27 78 27 79 28 80
REMARK H PARENT 28 81
REMARK Flexibility Score:  259.900
ROOT
ATOM      1  O   UNL     1      -6.845  -5.996  10.771  1.00  0.00    -0.273 OA
ATOM      2  N   UNL     1      -7.355  -4.493   9.125  1.00  0.00    -0.343 N 
ATOM      3  C   UNL     1      -7.297  -5.766   9.649  1.00  0.00     0.243 C 
ATOM      4  H   UNL     1      -7.746  -4.340   8.204  1.00  0.00     0.164 HD
ENDROOT
BRANCH   2   5
ATOM      5  C   UNL     1      -6.765  -3.367   9.842  1.00  0.00     0.171 C 
ATOM      6  C   UNL     1      -6.124  -0.653   9.051  1.00  0.00     0.214 C 
ATOM      7  N   UNL     1      -5.126  -1.688   8.912  1.00  0.00    -0.303 N 
ATOM      8  C   UNL     1      -7.091  -0.899  10.198  1.00  0.00     0.057 C 
ATOM      9  C   UNL     1      -5.383  -3.014   9.223  1.00  0.00     0.247 C 
ATOM     10  C   UNL     1      -7.777  -2.235  10.011  1.00  0.00     0.040 C 
ATOM     11  O   UNL     1      -4.551  -3.908   9.021  1.00  0.00    -0.272 OA
BRANCH   6  12
ATOM     12  O   UNL     1      -6.821  -0.562   7.830  1.00  0.00    -0.373 OA
ATOM     13  H   UNL     1      -7.773  -0.681   8.033  1.00  0.00     0.213 HD
ENDBRANCH   6  12
BRANCH   7  14
ATOM     14  C   UNL     1      -3.846  -1.305   8.280  1.00  0.00     0.177 C 
BRANCH  14  15
ATOM     15  C   UNL     1      -3.877  -1.208   6.742  1.00  0.00     0.038 C 
BRANCH  15  16
ATOM     16  C   UNL     1      -2.824  -1.972   5.909  1.00  0.00    -0.015 C 
ATOM     17  C   UNL     1      -2.160  -3.101   6.703  1.00  0.00     0.007 C 
ATOM     18  C   UNL     1      -1.729  -1.004   5.443  1.00  0.00     0.007 C 
ENDBRANCH  15  16
ENDBRANCH  14  15
BRANCH  14  19
ATOM     19  C   UNL     1      -3.029  -0.365   9.231  1.00  0.00     0.245 C 
ATOM     20  O   UNL     1      -3.206  -0.514  10.452  1.00  0.00    -0.272 OA
BRANCH  19  21
ATOM     21  N   UNL     1      -2.227   0.672   8.789  1.00  0.00    -0.332 N 
ATOM     22  C   UNL     1      -2.628   1.706   7.852  1.00  0.00     0.147 C 
BRANCH  21  23
ATOM     23  C   UNL     1      -0.831   0.739   9.301  1.00  0.00     0.178 C 
BRANCH  23  24
ATOM     24  C   UNL     1       0.253   0.366   8.269  1.00  0.00     0.070 C 
BRANCH  24  25
ATOM     25  C   UNL     1       0.699  -1.078   8.230  1.00  0.00    -0.045 A 
ATOM     26  C   UNL     1       1.558  -1.537   7.224  1.00  0.00     0.004 A 
ATOM     27  C   UNL     1       0.251  -1.982   9.205  1.00  0.00     0.004 A 
ATOM     28  C   UNL     1       1.951  -2.876   7.185  1.00  0.00     0.000 A 
ATOM     29  C   UNL     1       0.646  -3.320   9.166  1.00  0.00     0.000 A 
ATOM     30  C   UNL     1       1.494  -3.767   8.154  1.00  0.00     0.000 A 
ENDBRANCH  24  25
ENDBRANCH  23  24
BRANCH  23  31
ATOM     31  C   UNL     1      -0.545   2.027  10.109  1.00  0.00     0.243 C 
ATOM     32  O   UNL     1      -1.154   2.350  11.125  1.00  0.00    -0.273 OA
ATOM     33  N   UNL     1       0.340   2.888   9.482  1.00  0.00    -0.341 N 
ATOM     34  H   UNL     1       0.813   2.566   8.634  1.00  0.00     0.164 HD
BRANCH  33  35
ATOM     35  C   UNL     1       0.667   4.218  10.005  1.00  0.00     0.194 C 
BRANCH  35  36
ATOM     36  C   UNL     1      -0.007   5.387   9.233  1.00  0.00     0.017 C 
ATOM     37  C   UNL     1      -1.209   5.951  10.010  1.00  0.00     0.010 C 
ATOM     38  C   UNL     1      -0.509   4.982   7.841  1.00  0.00     0.010 C 
ENDBRANCH  35  36
BRANCH  35  39
ATOM     39  C   UNL     1       2.197   4.436  10.169  1.00  0.00     0.329 C 
ATOM     40  O   UNL     1       2.839   4.086  11.153  1.00  0.00    -0.250 OA
BRANCH  39  41
ATOM     41  O   UNL     1       2.766   4.987   9.054  1.00  0.00    -0.458 OA
BRANCH  41  42
ATOM     42  C   UNL     1       3.842   5.929   9.282  1.00  0.00     0.205 CG0
ATOM     43  C   UNL     1       3.203   7.273   9.624  1.00  0.00     0.056 C 
ATOM     44  G   UNL     1       4.713   5.997   8.012  1.00  0.00     0.000 G0
ENDBRANCH  41  42
ENDBRANCH  39  41
ENDBRANCH  35  39
ENDBRANCH  33  35
ENDBRANCH  23  31
ENDBRANCH  21  23
ENDBRANCH  19  21
ENDBRANCH  14  19
ENDBRANCH   7  14
ENDBRANCH   2   5
BRANCH   3  45
ATOM     45  C   UNL     1      -7.855  -6.875   8.746  1.00  0.00     0.171 C 
BRANCH  45  46
ATOM     46  N   UNL     1      -9.285  -6.924   9.021  1.00  0.00    -0.342 N 
ATOM     47  C   UNL     1     -10.192  -6.149   8.343  1.00  0.00     0.247 C 
ATOM     48  O   UNL     1      -9.875  -5.413   7.408  1.00  0.00    -0.273 OA
ATOM     49  H   UNL     1      -9.597  -7.563   9.750  1.00  0.00     0.164 HD
BRANCH  47  50
ATOM     50  C   UNL     1     -11.637  -6.244   8.853  1.00  0.00     0.212 CG0
ATOM     51  G   UNL     1     -12.123  -7.687   8.614  1.00  0.00     0.000 G0
BRANCH  50  52
ATOM     52  N   UNL     1     -11.576  -5.882  10.267  1.00  0.00    -0.339 N 
ATOM     53  C   UNL     1     -12.515  -5.094  10.886  1.00  0.00     0.243 C 
ATOM     54  O   UNL     1     -13.457  -4.587  10.282  1.00  0.00    -0.273 OA
ATOM     55  H   UNL     1     -10.759  -6.179  10.796  1.00  0.00     0.164 HD
BRANCH  53  56
ATOM     56  C   UNL     1     -12.194  -4.776  12.361  1.00  0.00     0.182 C 
BRANCH  56  57
ATOM     57  N   UNL     1     -11.233  -3.673  12.464  1.00  0.00    -0.344 N 
ATOM     58  C   UNL     1     -11.628  -2.362  12.582  1.00  0.00     0.220 C 
ATOM     59  O   UNL     1     -12.804  -2.017  12.537  1.00  0.00    -0.275 OA
ATOM     60  H   UNL     1     -10.258  -3.922  12.607  1.00  0.00     0.164 HD
BRANCH  58  61
ATOM     61  C   UNL     1     -10.468  -1.396  12.734  1.00  0.00     0.100 C 
BRANCH  61  62
ATOM     62  C   UNL     1     -10.618  -0.118  11.909  1.00  0.00     0.010 C 
BRANCH  62  63
ATOM     63  C   UNL     1     -11.227   1.060  12.682  1.00  0.00     0.000 C 
BRANCH  63  64
ATOM     64  C   UNL     1     -10.210   1.882  13.472  1.00  0.00    -0.003 C 
ATOM     65  C   UNL     1      -8.950   2.137  12.659  1.00  0.00     0.004 C 
ENDBRANCH  63  64
ENDBRANCH  62  63
ENDBRANCH  61  62
ENDBRANCH  58  61
ENDBRANCH  56  57
BRANCH  56  66
ATOM     66  C   UNL     1     -11.725  -6.020  13.113  1.00  0.00     0.157 C 
BRANCH  66  67
ATOM     67  C   UNL     1     -10.315  -5.860  13.605  1.00  0.00     0.305 C 
ATOM     68  O   UNL     1      -9.954  -5.732  14.765  1.00  0.00    -0.252 OA
BRANCH  67  69
ATOM     69  O   UNL     1      -9.414  -5.920  12.606  1.00  0.00    -0.481 OA
ATOM     70  H   UNL     1      -9.545  -6.805  12.205  1.00  0.00     0.296 HD
ENDBRANCH  67  69
ENDBRANCH  66  67
ENDBRANCH  56  66
ENDBRANCH  53  56
ENDBRANCH  50  52
ENDBRANCH  47  50
ENDBRANCH  45  46
BRANCH  45  71
ATOM     71  C   UNL     1      -7.172  -8.211   9.058  1.00  0.00     0.037 C 
BRANCH  71  72
ATOM     72  C   UNL     1      -7.303  -9.207   7.903  1.00  0.00     0.026 C 
BRANCH  72  73
ATOM     73  C   UNL     1      -5.977  -9.389   7.166  1.00  0.00     0.146 C 
BRANCH  73  74
ATOM     74  N   UNL     1      -5.566 -10.780   7.322  1.00  0.00    -0.254 NA
ATOM     75  C   UNL     1      -4.354 -11.083   7.034  1.00  0.00     0.185 C 
ATOM     76  N   UNL     1      -3.946 -12.355   7.168  1.00  0.00    -0.370 N 
ATOM     77  N   UNL     1      -3.366 -10.285   6.593  1.00  0.00    -0.370 N 
ATOM     78  H   UNL     1      -4.631 -13.024   7.489  1.00  0.00     0.159 HD
ATOM     79  H   UNL     1      -3.063 -12.692   6.827  1.00  0.00     0.159 HD
ATOM     80  H   UNL     1      -3.528  -9.299   6.449  1.00  0.00     0.159 HD
ATOM     81  H   UNL     1      -2.418 -10.614   6.510  1.00  0.00     0.159 HD
ENDBRANCH  73  74
ENDBRANCH  72  73
ENDBRANCH  71  72
ENDBRANCH  45  71
ENDBRANCH   3  45
TORSDOF 20
ENDMDL
MODEL 34
REMARK VINA RESULT:    -5.456      5.404      9.506
REMARK INTER + INTRA:         -23.728
REMARK INTER:                 -17.976
REMARK INTRA:                  -5.752
REMARK UNBOUND:                -8.064
REMARK SMILES CCCCCC(=O)N[C@H](CC(=O)O)C(=O)N[C@H]1C(=O)N[C@H](CCCN=C(N)N)C(=O)N[C@@H]2CC[C@H](O)N(C2=O)[C@@H](CC(C)C)C(=O)N(C)[C@@H](Cc2ccccc2)C(=O)N[C@H](C(C)C)C(=O)O[C@@H]1C
REMARK SMILES IDX 30 1 31 2 29 3 32 5 35 6 37 7 34 8 38 9 33 10 39 11 36 12
REMARK SMILES IDX 40 14 41 15 42 16 43 17 44 18 45 19 46 20 47 21 48 22 49 23
REMARK SMILES IDX 50 24 51 25 52 26 56 27 53 28 55 29 54 30 57 31 58 32 59 33
REMARK SMILES IDX 60 35 61 36 62 37 63 38 64 39 65 40 66 41 67 42 68 43 21 45
REMARK SMILES IDX 20 46 18 47 19 48 17 50 16 52 14 53 15 54 9 56 8 57 6 58
REMARK SMILES IDX 7 59 5 61 4 62 3 63 2 64 1 65 10 66 11 67 12 68 13 69 22 71
REMARK SMILES IDX 23 72 24 73 25 74 26 75 27 76 28 77
REMARK H PARENT 31 4 36 13 59 34 20 49 16 55 8 60 13 70 27 78 27 79 28 80
REMARK H PARENT 28 81
REMARK Flexibility Score:  259.900
ROOT
ATOM      1  O   UNL     1      -1.488  -0.807   8.172  1.00  0.00    -0.273 OA
ATOM      2  N   UNL     1      -1.506   0.453   6.263  1.00  0.00    -0.343 N 
ATOM      3  C   UNL     1      -2.019  -0.514   7.100  1.00  0.00     0.243 C 
ATOM      4  H   UNL     1      -1.978   0.678   5.396  1.00  0.00     0.164 HD
ENDROOT
BRANCH   2   5
ATOM      5  C   UNL     1      -0.230   1.094   6.564  1.00  0.00     0.171 C 
ATOM      6  C   UNL     1       1.344   3.087   5.165  1.00  0.00     0.214 C 
ATOM      7  N   UNL     1       1.579   1.686   4.906  1.00  0.00    -0.303 N 
ATOM      8  C   UNL     1       0.853   3.363   6.578  1.00  0.00     0.057 C 
ATOM      9  C   UNL     1       0.829   0.684   5.501  1.00  0.00     0.247 C 
ATOM     10  C   UNL     1      -0.418   2.585   6.840  1.00  0.00     0.040 C 
ATOM     11  O   UNL     1       0.979  -0.509   5.208  1.00  0.00    -0.272 OA
BRANCH   6  12
ATOM     12  O   UNL     1       0.407   3.548   4.220  1.00  0.00    -0.373 OA
ATOM     13  H   UNL     1       0.719   3.253   3.338  1.00  0.00     0.213 HD
ENDBRANCH   6  12
BRANCH   7  14
ATOM     14  C   UNL     1       2.566   1.355   3.856  1.00  0.00     0.177 C 
BRANCH  14  15
ATOM     15  C   UNL     1       3.702   0.412   4.298  1.00  0.00     0.038 C 
BRANCH  15  16
ATOM     16  C   UNL     1       4.058  -0.813   3.426  1.00  0.00    -0.015 C 
ATOM     17  C   UNL     1       4.028  -2.123   4.219  1.00  0.00     0.007 C 
ATOM     18  C   UNL     1       5.463  -0.639   2.837  1.00  0.00     0.007 C 
ENDBRANCH  15  16
ENDBRANCH  14  15
BRANCH  14  19
ATOM     19  C   UNL     1       1.880   1.350   2.447  1.00  0.00     0.245 C 
ATOM     20  O   UNL     1       0.955   0.538   2.278  1.00  0.00    -0.272 OA
BRANCH  19  21
ATOM     21  N   UNL     1       2.317   2.106   1.374  1.00  0.00    -0.332 N 
ATOM     22  C   UNL     1       1.775   3.392   0.973  1.00  0.00     0.147 C 
BRANCH  21  23
ATOM     23  C   UNL     1       3.429   1.561   0.546  1.00  0.00     0.178 C 
BRANCH  23  24
ATOM     24  C   UNL     1       3.002   0.500  -0.489  1.00  0.00     0.070 C 
BRANCH  24  25
ATOM     25  C   UNL     1       3.516  -0.906  -0.284  1.00  0.00    -0.045 A 
ATOM     26  C   UNL     1       2.701  -1.893   0.284  1.00  0.00     0.004 A 
ATOM     27  C   UNL     1       4.826  -1.242  -0.658  1.00  0.00     0.004 A 
ATOM     28  C   UNL     1       3.189  -3.186   0.486  1.00  0.00     0.000 A 
ATOM     29  C   UNL     1       5.312  -2.535  -0.457  1.00  0.00     0.000 A 
ATOM     30  C   UNL     1       4.494  -3.505   0.117  1.00  0.00     0.000 A 
ENDBRANCH  24  25
ENDBRANCH  23  24
BRANCH  23  31
ATOM     31  C   UNL     1       4.370   2.661   0.001  1.00  0.00     0.243 C 
ATOM     32  O   UNL     1       5.026   3.418   0.712  1.00  0.00    -0.273 OA
ATOM     33  N   UNL     1       4.271   2.846  -1.368  1.00  0.00    -0.341 N 
ATOM     34  H   UNL     1       3.704   2.186  -1.907  1.00  0.00     0.164 HD
BRANCH  33  35
ATOM     35  C   UNL     1       4.980   3.910  -2.084  1.00  0.00     0.194 C 
BRANCH  35  36
ATOM     36  C   UNL     1       4.095   4.697  -3.091  1.00  0.00     0.017 C 
ATOM     37  C   UNL     1       4.242   6.216  -2.897  1.00  0.00     0.010 C 
ATOM     38  C   UNL     1       2.603   4.362  -2.974  1.00  0.00     0.010 C 
ENDBRANCH  35  36
BRANCH  35  39
ATOM     39  C   UNL     1       6.301   3.414  -2.737  1.00  0.00     0.329 C 
ATOM     40  O   UNL     1       6.380   2.432  -3.465  1.00  0.00    -0.250 OA
BRANCH  39  41
ATOM     41  O   UNL     1       7.354   4.248  -2.478  1.00  0.00    -0.458 OA
BRANCH  41  42
ATOM     42  C   UNL     1       8.465   4.183  -3.403  1.00  0.00     0.205 CG0
ATOM     43  C   UNL     1       8.457   5.475  -4.216  1.00  0.00     0.056 C 
ATOM     44  G   UNL     1       8.298   2.930  -4.285  1.00  0.00     0.000 G0
ENDBRANCH  41  42
ENDBRANCH  39  41
ENDBRANCH  35  39
ENDBRANCH  33  35
ENDBRANCH  23  31
ENDBRANCH  21  23
ENDBRANCH  19  21
ENDBRANCH  14  19
ENDBRANCH   7  14
ENDBRANCH   2   5
BRANCH   3  45
ATOM     45  C   UNL     1      -3.310  -1.187   6.614  1.00  0.00     0.171 C 
BRANCH  45  46
ATOM     46  N   UNL     1      -3.772  -2.005   7.727  1.00  0.00    -0.342 N 
ATOM     47  C   UNL     1      -5.092  -2.338   7.898  1.00  0.00     0.247 C 
ATOM     48  O   UNL     1      -5.968  -2.035   7.088  1.00  0.00    -0.273 OA
ATOM     49  H   UNL     1      -3.070  -2.326   8.392  1.00  0.00     0.164 HD
BRANCH  47  50
ATOM     50  C   UNL     1      -5.408  -3.099   9.194  1.00  0.00     0.212 CG0
ATOM     51  G   UNL     1      -6.281  -2.183  10.073  1.00  0.00     0.000 G0
BRANCH  50  52
ATOM     52  N   UNL     1      -6.092  -4.319   8.772  1.00  0.00    -0.339 N 
ATOM     53  C   UNL     1      -5.642  -5.581   9.074  1.00  0.00     0.243 C 
ATOM     54  O   UNL     1      -4.594  -5.782   9.681  1.00  0.00    -0.273 OA
ATOM     55  H   UNL     1      -6.908  -4.219   8.171  1.00  0.00     0.164 HD
BRANCH  53  56
ATOM     56  C   UNL     1      -6.482  -6.713   8.449  1.00  0.00     0.182 C 
BRANCH  56  57
ATOM     57  N   UNL     1      -5.625  -7.692   7.772  1.00  0.00    -0.344 N 
ATOM     58  C   UNL     1      -6.053  -8.962   7.473  1.00  0.00     0.220 C 
ATOM     59  O   UNL     1      -7.150  -9.390   7.815  1.00  0.00    -0.275 OA
ATOM     60  H   UNL     1      -4.751  -7.348   7.384  1.00  0.00     0.164 HD
BRANCH  58  61
ATOM     61  C   UNL     1      -5.022  -9.783   6.721  1.00  0.00     0.100 C 
BRANCH  61  62
ATOM     62  C   UNL     1      -4.593  -9.164   5.391  1.00  0.00     0.010 C 
BRANCH  62  63
ATOM     63  C   UNL     1      -4.841 -10.062   4.172  1.00  0.00     0.000 C 
BRANCH  63  64
ATOM     64  C   UNL     1      -5.253  -9.306   2.910  1.00  0.00    -0.003 C 
ATOM     65  C   UNL     1      -4.440  -9.753   1.704  1.00  0.00     0.004 C 
ENDBRANCH  63  64
ENDBRANCH  62  63
ENDBRANCH  61  62
ENDBRANCH  58  61
ENDBRANCH  56  57
BRANCH  56  66
ATOM     66  C   UNL     1      -7.567  -6.161   7.525  1.00  0.00     0.157 C 
BRANCH  66  67
ATOM     67  C   UNL     1      -8.924  -6.264   8.159  1.00  0.00     0.305 C 
ATOM     68  O   UNL     1      -9.244  -6.981   9.094  1.00  0.00    -0.252 OA
BRANCH  67  69
ATOM     69  O   UNL     1      -9.811  -5.411   7.611  1.00  0.00    -0.481 OA
ATOM     70  H   UNL     1      -9.353  -5.045   6.825  1.00  0.00     0.296 HD
ENDBRANCH  67  69
ENDBRANCH  66  67
ENDBRANCH  56  66
ENDBRANCH  53  56
ENDBRANCH  50  52
ENDBRANCH  47  50
ENDBRANCH  45  46
BRANCH  45  71
ATOM     71  C   UNL     1      -3.033  -2.034   5.367  1.00  0.00     0.037 C 
BRANCH  71  72
ATOM     72  C   UNL     1      -2.255  -3.309   5.698  1.00  0.00     0.026 C 
BRANCH  72  73
ATOM     73  C   UNL     1      -1.305  -3.696   4.566  1.00  0.00     0.146 C 
BRANCH  73  74
ATOM     74  N   UNL     1      -1.652  -2.893   3.398  1.00  0.00    -0.254 NA
ATOM     75  C   UNL     1      -0.696  -2.344   2.744  1.00  0.00     0.185 C 
ATOM     76  N   UNL     1      -0.982  -1.599   1.664  1.00  0.00    -0.370 N 
ATOM     77  N   UNL     1       0.627  -2.396   2.977  1.00  0.00    -0.370 N 
ATOM     78  H   UNL     1      -1.958  -1.501   1.421  1.00  0.00     0.159 HD
ATOM     79  H   UNL     1      -0.306  -1.025   1.191  1.00  0.00     0.159 HD
ATOM     80  H   UNL     1       0.991  -2.924   3.756  1.00  0.00     0.159 HD
ATOM     81  H   UNL     1       1.294  -2.018   2.325  1.00  0.00     0.159 HD
ENDBRANCH  73  74
ENDBRANCH  72  73
ENDBRANCH  71  72
ENDBRANCH  45  71
ENDBRANCH   3  45
TORSDOF 20
ENDMDL
MODEL 35
REMARK VINA RESULT:    -5.437      5.733     10.090
REMARK INTER + INTRA:         -23.673
REMARK INTER:                 -15.013
REMARK INTRA:                  -8.660
REMARK UNBOUND:                -8.064
REMARK SMILES CCCCCC(=O)N[C@H](CC(=O)O)C(=O)N[C@H]1C(=O)N[C@H](CCCN=C(N)N)C(=O)N[C@@H]2CC[C@H](O)N(C2=O)[C@@H](CC(C)C)C(=O)N(C)[C@@H](Cc2ccccc2)C(=O)N[C@H](C(C)C)C(=O)O[C@@H]1C
REMARK SMILES IDX 30 1 31 2 29 3 32 5 35 6 37 7 34 8 38 9 33 10 39 11 36 12
REMARK SMILES IDX 40 14 41 15 42 16 43 17 44 18 45 19 46 20 47 21 48 22 49 23
REMARK SMILES IDX 50 24 51 25 52 26 56 27 53 28 55 29 54 30 57 31 58 32 59 33
REMARK SMILES IDX 60 35 61 36 62 37 63 38 64 39 65 40 66 41 67 42 68 43 21 45
REMARK SMILES IDX 20 46 18 47 19 48 17 50 16 52 14 53 15 54 9 56 8 57 6 58
REMARK SMILES IDX 7 59 5 61 4 62 3 63 2 64 1 65 10 66 11 67 12 68 13 69 22 71
REMARK SMILES IDX 23 72 24 73 25 74 26 75 27 76 28 77
REMARK H PARENT 31 4 36 13 59 34 20 49 16 55 8 60 13 70 27 78 27 79 28 80
REMARK H PARENT 28 81
REMARK Flexibility Score:  259.900
ROOT
ATOM      1  O   UNL     1       1.704  -0.960   4.121  1.00  0.00    -0.273 OA
ATOM      2  N   UNL     1       1.284  -0.481   1.924  1.00  0.00    -0.343 N 
ATOM      3  C   UNL     1       1.137  -1.242   3.064  1.00  0.00     0.243 C 
ATOM      4  H   UNL     1       0.791  -0.735   1.077  1.00  0.00     0.164 HD
ENDROOT
BRANCH   2   5
ATOM      5  C   UNL     1       2.224   0.635   1.892  1.00  0.00     0.171 C 
ATOM      6  C   UNL     1       3.412   2.140  -0.283  1.00  0.00     0.214 C 
ATOM      7  N   UNL     1       4.094   0.975   0.231  1.00  0.00    -0.303 N 
ATOM      8  C   UNL     1       2.572   2.855   0.764  1.00  0.00     0.057 C 
ATOM      9  C   UNL     1       3.558   0.182   1.233  1.00  0.00     0.247 C 
ATOM     10  C   UNL     1       1.556   1.897   1.348  1.00  0.00     0.040 C 
ATOM     11  O   UNL     1       4.107  -0.863   1.607  1.00  0.00    -0.272 OA
BRANCH   6  12
ATOM     12  O   UNL     1       2.606   1.726  -1.362  1.00  0.00    -0.373 OA
ATOM     13  H   UNL     1       2.061   0.975  -1.043  1.00  0.00     0.213 HD
ENDBRANCH   6  12
BRANCH   7  14
ATOM     14  C   UNL     1       5.335   0.566  -0.460  1.00  0.00     0.177 C 
BRANCH  14  15
ATOM     15  C   UNL     1       5.164  -0.545  -1.515  1.00  0.00     0.038 C 
BRANCH  15  16
ATOM     16  C   UNL     1       6.414  -1.226  -2.113  1.00  0.00    -0.015 C 
ATOM     17  C   UNL     1       6.374  -1.280  -3.643  1.00  0.00     0.007 C 
ATOM     18  C   UNL     1       6.527  -2.661  -1.584  1.00  0.00     0.007 C 
ENDBRANCH  15  16
ENDBRANCH  14  15
BRANCH  14  19
ATOM     19  C   UNL     1       6.319   1.781  -0.574  1.00  0.00     0.245 C 
ATOM     20  O   UNL     1       6.675   2.107  -1.719  1.00  0.00    -0.272 OA
BRANCH  19  21
ATOM     21  N   UNL     1       6.886   2.419   0.515  1.00  0.00    -0.332 N 
ATOM     22  C   UNL     1       7.941   1.878   1.354  1.00  0.00     0.147 C 
BRANCH  21  23
ATOM     23  C   UNL     1       6.372   3.769   0.875  1.00  0.00     0.178 C 
BRANCH  23  24
ATOM     24  C   UNL     1       6.504   4.134   2.368  1.00  0.00     0.070 C 
BRANCH  24  25
ATOM     25  C   UNL     1       5.274   3.967   3.229  1.00  0.00    -0.045 A 
ATOM     26  C   UNL     1       4.868   2.699   3.663  1.00  0.00     0.004 A 
ATOM     27  C   UNL     1       4.515   5.087   3.602  1.00  0.00     0.004 A 
ATOM     28  C   UNL     1       3.720   2.552   4.444  1.00  0.00     0.000 A 
ATOM     29  C   UNL     1       3.368   4.938   4.384  1.00  0.00     0.000 A 
ATOM     30  C   UNL     1       2.970   3.670   4.802  1.00  0.00     0.000 A 
ENDBRANCH  24  25
ENDBRANCH  23  24
BRANCH  23  31
ATOM     31  C   UNL     1       6.832   4.872  -0.108  1.00  0.00     0.243 C 
ATOM     32  O   UNL     1       6.099   5.399  -0.941  1.00  0.00    -0.273 OA
ATOM     33  N   UNL     1       8.200   5.088  -0.096  1.00  0.00    -0.341 N 
ATOM     34  H   UNL     1       8.760   4.615   0.618  1.00  0.00     0.164 HD
BRANCH  33  35
ATOM     35  C   UNL     1       8.873   5.999  -1.026  1.00  0.00     0.194 C 
BRANCH  35  36
ATOM     36  C   UNL     1       9.526   5.293  -2.247  1.00  0.00     0.017 C 
ATOM     37  C   UNL     1       8.674   5.468  -3.516  1.00  0.00     0.010 C 
ATOM     38  C   UNL     1       9.730   3.787  -2.036  1.00  0.00     0.010 C 
ENDBRANCH  35  36
BRANCH  35  39
ATOM     39  C   UNL     1       9.866   6.957  -0.310  1.00  0.00     0.329 C 
ATOM     40  O   UNL     1       9.632   7.519   0.753  1.00  0.00    -0.250 OA
BRANCH  39  41
ATOM     41  O   UNL     1      11.069   7.036  -0.956  1.00  0.00    -0.458 OA
BRANCH  41  42
ATOM     42  C   UNL     1      11.552   8.368  -1.251  1.00  0.00     0.205 CG0
ATOM     43  C   UNL     1      10.865   8.826  -2.536  1.00  0.00     0.056 C 
ATOM     44  G   UNL     1      13.087   8.316  -1.389  1.00  0.00     0.000 G0
ENDBRANCH  41  42
ENDBRANCH  39  41
ENDBRANCH  35  39
ENDBRANCH  33  35
ENDBRANCH  23  31
ENDBRANCH  21  23
ENDBRANCH  19  21
ENDBRANCH  14  19
ENDBRANCH   7  14
ENDBRANCH   2   5
BRANCH   3  45
ATOM     45  C   UNL     1       0.202  -2.451   2.932  1.00  0.00     0.171 C 
BRANCH  45  46
ATOM     46  N   UNL     1      -0.578  -2.482   4.162  1.00  0.00    -0.342 N 
ATOM     47  C   UNL     1      -1.891  -2.085   4.212  1.00  0.00     0.247 C 
ATOM     48  O   UNL     1      -2.524  -1.744   3.213  1.00  0.00    -0.273 OA
ATOM     49  H   UNL     1      -0.108  -2.812   5.003  1.00  0.00     0.164 HD
BRANCH  47  50
ATOM     50  C   UNL     1      -2.511  -2.069   5.616  1.00  0.00     0.212 CG0
ATOM     51  G   UNL     1      -3.684  -3.069   5.620  1.00  0.00     0.000 G0
BRANCH  50  52
ATOM     52  N   UNL     1      -1.431  -2.442   6.524  1.00  0.00    -0.339 N 
ATOM     53  C   UNL     1      -1.625  -3.181   7.667  1.00  0.00     0.243 C 
ATOM     54  O   UNL     1      -2.738  -3.540   8.041  1.00  0.00    -0.273 OA
ATOM     55  H   UNL     1      -0.500  -2.080   6.327  1.00  0.00     0.164 HD
BRANCH  53  56
ATOM     56  C   UNL     1      -0.350  -3.377   8.511  1.00  0.00     0.182 C 
BRANCH  56  57
ATOM     57  N   UNL     1       0.426  -2.135   8.589  1.00  0.00    -0.344 N 
ATOM     58  C   UNL     1       0.499  -1.383   9.737  1.00  0.00     0.220 C 
ATOM     59  O   UNL     1      -0.136  -1.657  10.750  1.00  0.00    -0.275 OA
ATOM     60  H   UNL     1       1.045  -1.929   7.809  1.00  0.00     0.164 HD
BRANCH  58  61
ATOM     61  C   UNL     1       1.405  -0.173   9.606  1.00  0.00     0.100 C 
BRANCH  61  62
ATOM     62  C   UNL     1       1.301   0.531   8.253  1.00  0.00     0.010 C 
BRANCH  62  63
ATOM     63  C   UNL     1       2.643   0.694   7.526  1.00  0.00     0.000 C 
BRANCH  63  64
ATOM     64  C   UNL     1       3.455  -0.596   7.414  1.00  0.00    -0.003 C 
ATOM     65  C   UNL     1       4.449  -0.527   6.264  1.00  0.00     0.004 C 
ENDBRANCH  63  64
ENDBRANCH  62  63
ENDBRANCH  61  62
ENDBRANCH  58  61
ENDBRANCH  56  57
BRANCH  56  66
ATOM     66  C   UNL     1       0.487  -4.548   7.999  1.00  0.00     0.157 C 
BRANCH  66  67
ATOM     67  C   UNL     1       1.765  -4.071   7.372  1.00  0.00     0.305 C 
ATOM     68  O   UNL     1       2.899  -4.263   7.783  1.00  0.00    -0.252 OA
BRANCH  67  69
ATOM     69  O   UNL     1       1.554  -3.411   6.217  1.00  0.00    -0.481 OA
ATOM     70  H   UNL     1       0.800  -2.812   6.406  1.00  0.00     0.296 HD
ENDBRANCH  67  69
ENDBRANCH  66  67
ENDBRANCH  56  66
ENDBRANCH  53  56
ENDBRANCH  50  52
ENDBRANCH  47  50
ENDBRANCH  45  46
BRANCH  45  71
ATOM     71  C   UNL     1       1.014  -3.736   2.744  1.00  0.00     0.037 C 
BRANCH  71  72
ATOM     72  C   UNL     1       1.859  -3.703   1.468  1.00  0.00     0.026 C 
BRANCH  72  73
ATOM     73  C   UNL     1       3.288  -4.174   1.729  1.00  0.00     0.146 C 
BRANCH  73  74
ATOM     74  N   UNL     1       3.407  -4.474   3.152  1.00  0.00    -0.254 NA
ATOM     75  C   UNL     1       4.279  -3.825   3.831  1.00  0.00     0.185 C 
ATOM     76  N   UNL     1       4.411  -4.078   5.143  1.00  0.00    -0.370 N 
ATOM     77  N   UNL     1       5.134  -2.873   3.417  1.00  0.00    -0.370 N 
ATOM     78  H   UNL     1       3.808  -4.788   5.535  1.00  0.00     0.159 HD
ATOM     79  H   UNL     1       5.163  -3.718   5.704  1.00  0.00     0.159 HD
ATOM     80  H   UNL     1       5.145  -2.577   2.453  1.00  0.00     0.159 HD
ATOM     81  H   UNL     1       5.696  -2.350   4.068  1.00  0.00     0.159 HD
ENDBRANCH  73  74
ENDBRANCH  72  73
ENDBRANCH  71  72
ENDBRANCH  45  71
ENDBRANCH   3  45
TORSDOF 20
ENDMDL
MODEL 36
REMARK VINA RESULT:    -5.422      6.577     11.733
REMARK INTER + INTRA:         -23.630
REMARK INTER:                 -16.654
REMARK INTRA:                  -6.976
REMARK UNBOUND:                -8.064
REMARK SMILES CCCCCC(=O)N[C@H](CC(=O)O)C(=O)N[C@H]1C(=O)N[C@H](CCCN=C(N)N)C(=O)N[C@@H]2CC[C@H](O)N(C2=O)[C@@H](CC(C)C)C(=O)N(C)[C@@H](Cc2ccccc2)C(=O)N[C@H](C(C)C)C(=O)O[C@@H]1C
REMARK SMILES IDX 30 1 31 2 29 3 32 5 35 6 37 7 34 8 38 9 33 10 39 11 36 12
REMARK SMILES IDX 40 14 41 15 42 16 43 17 44 18 45 19 46 20 47 21 48 22 49 23
REMARK SMILES IDX 50 24 51 25 52 26 56 27 53 28 55 29 54 30 57 31 58 32 59 33
REMARK SMILES IDX 60 35 61 36 62 37 63 38 64 39 65 40 66 41 67 42 68 43 21 45
REMARK SMILES IDX 20 46 18 47 19 48 17 50 16 52 14 53 15 54 9 56 8 57 6 58
REMARK SMILES IDX 7 59 5 61 4 62 3 63 2 64 1 65 10 66 11 67 12 68 13 69 22 71
REMARK SMILES IDX 23 72 24 73 25 74 26 75 27 76 28 77
REMARK H PARENT 31 4 36 13 59 34 20 49 16 55 8 60 13 70 27 78 27 79 28 80
REMARK H PARENT 28 81
REMARK Flexibility Score:  259.900
ROOT
ATOM      1  O   UNL     1       2.115   0.542   1.458  1.00  0.00    -0.273 OA
ATOM      2  N   UNL     1       2.668  -0.215  -0.628  1.00  0.00    -0.343 N 
ATOM      3  C   UNL     1       2.048  -0.336   0.597  1.00  0.00     0.243 C 
ATOM      4  H   UNL     1       2.579  -0.951  -1.318  1.00  0.00     0.164 HD
ENDROOT
BRANCH   2   5
ATOM      5  C   UNL     1       3.538   0.921  -0.911  1.00  0.00     0.171 C 
ATOM      6  C   UNL     1       5.213   1.596  -3.179  1.00  0.00     0.214 C 
ATOM      7  N   UNL     1       5.774   0.844  -2.081  1.00  0.00    -0.303 N 
ATOM      8  C   UNL     1       4.095   2.536  -2.757  1.00  0.00     0.057 C 
ATOM      9  C   UNL     1       5.018   0.445  -0.991  1.00  0.00     0.247 C 
ATOM     10  C   UNL     1       2.996   1.751  -2.074  1.00  0.00     0.040 C 
ATOM     11  O   UNL     1       5.484  -0.272  -0.096  1.00  0.00    -0.272 OA
BRANCH   6  12
ATOM     12  O   UNL     1       4.746   0.674  -4.137  1.00  0.00    -0.373 OA
ATOM     13  H   UNL     1       5.426  -0.028  -4.216  1.00  0.00     0.213 HD
ENDBRANCH   6  12
BRANCH   7  14
ATOM     14  C   UNL     1       7.171   0.382  -2.228  1.00  0.00     0.177 C 
BRANCH  14  15
ATOM     15  C   UNL     1       7.335  -1.029  -2.825  1.00  0.00     0.038 C 
BRANCH  15  16
ATOM     16  C   UNL     1       7.850  -2.178  -1.930  1.00  0.00    -0.015 C 
ATOM     17  C   UNL     1       9.275  -1.931  -1.424  1.00  0.00     0.007 C 
ATOM     18  C   UNL     1       7.842  -3.494  -2.718  1.00  0.00     0.007 C 
ENDBRANCH  15  16
ENDBRANCH  14  15
BRANCH  14  19
ATOM     19  C   UNL     1       8.120   1.599  -2.504  1.00  0.00     0.245 C 
ATOM     20  O   UNL     1       8.614   1.677  -3.641  1.00  0.00    -0.272 OA
BRANCH  19  21
ATOM     21  N   UNL     1       8.514   2.505  -1.535  1.00  0.00    -0.332 N 
ATOM     22  C   UNL     1       9.001   2.163  -0.210  1.00  0.00     0.147 C 
BRANCH  21  23
ATOM     23  C   UNL     1       8.424   3.955  -1.860  1.00  0.00     0.178 C 
BRANCH  23  24
ATOM     24  C   UNL     1       7.421   4.749  -0.999  1.00  0.00     0.070 C 
BRANCH  24  25
ATOM     25  C   UNL     1       6.174   5.255  -1.685  1.00  0.00    -0.045 A 
ATOM     26  C   UNL     1       5.004   5.505  -0.956  1.00  0.00     0.004 A 
ATOM     27  C   UNL     1       6.170   5.477  -3.071  1.00  0.00     0.004 A 
ATOM     28  C   UNL     1       3.851   5.956  -1.601  1.00  0.00     0.000 A 
ATOM     29  C   UNL     1       5.016   5.929  -3.714  1.00  0.00     0.000 A 
ATOM     30  C   UNL     1       3.856   6.165  -2.978  1.00  0.00     0.000 A 
ENDBRANCH  24  25
ENDBRANCH  23  24
BRANCH  23  31
ATOM     31  C   UNL     1       9.810   4.622  -2.028  1.00  0.00     0.243 C 
ATOM     32  O   UNL     1      10.861   4.000  -2.160  1.00  0.00    -0.273 OA
ATOM     33  N   UNL     1       9.792   5.993  -1.830  1.00  0.00    -0.341 N 
ATOM     34  H   UNL     1       8.886   6.455  -1.720  1.00  0.00     0.164 HD
BRANCH  33  35
ATOM     35  C   UNL     1      11.005   6.815  -1.823  1.00  0.00     0.194 C 
BRANCH  35  36
ATOM     36  C   UNL     1      11.039   7.886  -0.696  1.00  0.00     0.017 C 
ATOM     37  C   UNL     1      10.336   7.381   0.576  1.00  0.00     0.010 C 
ATOM     38  C   UNL     1      10.371   9.206  -1.096  1.00  0.00     0.010 C 
ENDBRANCH  35  36
BRANCH  35  39
ATOM     39  C   UNL     1      11.320   7.429  -3.216  1.00  0.00     0.329 C 
ATOM     40  O   UNL     1      10.496   7.549  -4.114  1.00  0.00    -0.250 OA
BRANCH  39  41
ATOM     41  O   UNL     1      12.600   7.901  -3.298  1.00  0.00    -0.458 OA
BRANCH  41  42
ATOM     42  C   UNL     1      12.821   8.998  -4.216  1.00  0.00     0.205 CG0
ATOM     43  C   UNL     1      13.321   8.398  -5.529  1.00  0.00     0.056 C 
ATOM     44  G   UNL     1      13.840   9.969  -3.586  1.00  0.00     0.000 G0
ENDBRANCH  41  42
ENDBRANCH  39  41
ENDBRANCH  35  39
ENDBRANCH  33  35
ENDBRANCH  23  31
ENDBRANCH  21  23
ENDBRANCH  19  21
ENDBRANCH  14  19
ENDBRANCH   7  14
ENDBRANCH   2   5
BRANCH   3  45
ATOM     45  C   UNL     1       1.250  -1.630   0.804  1.00  0.00     0.171 C 
BRANCH  45  46
ATOM     46  N   UNL     1       0.676  -1.529   2.140  1.00  0.00    -0.342 N 
ATOM     47  C   UNL     1      -0.664  -1.327   2.352  1.00  0.00     0.247 C 
ATOM     48  O   UNL     1      -1.488  -1.290   1.437  1.00  0.00    -0.273 OA
ATOM     49  H   UNL     1       1.315  -1.611   2.929  1.00  0.00     0.164 HD
BRANCH  47  50
ATOM     50  C   UNL     1      -1.067  -1.122   3.819  1.00  0.00     0.212 CG0
ATOM     51  G   UNL     1      -1.022  -2.498   4.513  1.00  0.00     0.000 G0
BRANCH  50  52
ATOM     52  N   UNL     1      -0.098  -0.172   4.359  1.00  0.00    -0.339 N 
ATOM     53  C   UNL     1       1.001  -0.548   5.093  1.00  0.00     0.243 C 
ATOM     54  O   UNL     1       1.226  -1.716   5.397  1.00  0.00    -0.273 OA
ATOM     55  H   UNL     1      -0.289   0.820   4.236  1.00  0.00     0.164 HD
BRANCH  53  56
ATOM     56  C   UNL     1       1.832   0.635   5.630  1.00  0.00     0.182 C 
BRANCH  56  57
ATOM     57  N   UNL     1       2.740   1.151   4.601  1.00  0.00    -0.344 N 
ATOM     58  C   UNL     1       3.010   2.491   4.463  1.00  0.00     0.220 C 
ATOM     59  O   UNL     1       2.458   3.352   5.138  1.00  0.00    -0.275 OA
ATOM     60  H   UNL     1       3.294   0.468   4.091  1.00  0.00     0.164 HD
BRANCH  58  61
ATOM     61  C   UNL     1       4.022   2.791   3.372  1.00  0.00     0.100 C 
BRANCH  61  62
ATOM     62  C   UNL     1       4.124   4.274   3.017  1.00  0.00     0.010 C 
BRANCH  62  63
ATOM     63  C   UNL     1       5.431   4.939   3.468  1.00  0.00     0.000 C 
BRANCH  63  64
ATOM     64  C   UNL     1       5.986   5.964   2.481  1.00  0.00    -0.003 C 
ATOM     65  C   UNL     1       7.476   6.189   2.693  1.00  0.00     0.004 C 
ENDBRANCH  63  64
ENDBRANCH  62  63
ENDBRANCH  61  62
ENDBRANCH  58  61
ENDBRANCH  56  57
BRANCH  56  66
ATOM     66  C   UNL     1       2.568   0.264   6.916  1.00  0.00     0.157 C 
BRANCH  66  67
ATOM     67  C   UNL     1       3.958  -0.225   6.625  1.00  0.00     0.305 C 
ATOM     68  O   UNL     1       4.288  -1.364   6.334  1.00  0.00    -0.252 OA
BRANCH  67  69
ATOM     69  O   UNL     1       4.868   0.767   6.664  1.00  0.00    -0.481 OA
ATOM     70  H   UNL     1       5.179   0.785   7.593  1.00  0.00     0.296 HD
ENDBRANCH  67  69
ENDBRANCH  66  67
ENDBRANCH  56  66
ENDBRANCH  53  56
ENDBRANCH  50  52
ENDBRANCH  47  50
ENDBRANCH  45  46
BRANCH  45  71
ATOM     71  C   UNL     1       2.169  -2.850   0.674  1.00  0.00     0.037 C 
BRANCH  71  72
ATOM     72  C   UNL     1       2.755  -3.275   2.023  1.00  0.00     0.026 C 
BRANCH  72  73
ATOM     73  C   UNL     1       4.180  -2.754   2.204  1.00  0.00     0.146 C 
BRANCH  73  74
ATOM     74  N   UNL     1       4.711  -3.325   3.437  1.00  0.00    -0.254 NA
ATOM     75  C   UNL     1       5.856  -2.916   3.842  1.00  0.00     0.185 C 
ATOM     76  N   UNL     1       6.371  -3.421   4.975  1.00  0.00    -0.370 N 
ATOM     77  N   UNL     1       6.674  -2.007   3.284  1.00  0.00    -0.370 N 
ATOM     78  H   UNL     1       5.822  -4.119   5.456  1.00  0.00     0.159 HD
ATOM     79  H   UNL     1       7.316  -3.259   5.274  1.00  0.00     0.159 HD
ATOM     80  H   UNL     1       6.415  -1.539   2.428  1.00  0.00     0.159 HD
ATOM     81  H   UNL     1       7.501  -1.679   3.756  1.00  0.00     0.159 HD
ENDBRANCH  73  74
ENDBRANCH  72  73
ENDBRANCH  71  72
ENDBRANCH  45  71
ENDBRANCH   3  45
TORSDOF 20
ENDMDL
MODEL 37
REMARK VINA RESULT:    -5.409      5.926     10.435
REMARK INTER + INTRA:         -23.592
REMARK INTER:                 -15.844
REMARK INTRA:                  -7.748
REMARK UNBOUND:                -8.064
REMARK SMILES CCCCCC(=O)N[C@H](CC(=O)O)C(=O)N[C@H]1C(=O)N[C@H](CCCN=C(N)N)C(=O)N[C@@H]2CC[C@H](O)N(C2=O)[C@@H](CC(C)C)C(=O)N(C)[C@@H](Cc2ccccc2)C(=O)N[C@H](C(C)C)C(=O)O[C@@H]1C
REMARK SMILES IDX 30 1 31 2 29 3 32 5 35 6 37 7 34 8 38 9 33 10 39 11 36 12
REMARK SMILES IDX 40 14 41 15 42 16 43 17 44 18 45 19 46 20 47 21 48 22 49 23
REMARK SMILES IDX 50 24 51 25 52 26 56 27 53 28 55 29 54 30 57 31 58 32 59 33
REMARK SMILES IDX 60 35 61 36 62 37 63 38 64 39 65 40 66 41 67 42 68 43 21 45
REMARK SMILES IDX 20 46 18 47 19 48 17 50 16 52 14 53 15 54 9 56 8 57 6 58
REMARK SMILES IDX 7 59 5 61 4 62 3 63 2 64 1 65 10 66 11 67 12 68 13 69 22 71
REMARK SMILES IDX 23 72 24 73 25 74 26 75 27 76 28 77
REMARK H PARENT 31 4 36 13 59 34 20 49 16 55 8 60 13 70 27 78 27 79 28 80
REMARK H PARENT 28 81
REMARK Flexibility Score:  259.900
ROOT
ATOM      1  O   UNL     1      -0.658  -1.112   3.146  1.00  0.00    -0.273 OA
ATOM      2  N   UNL     1      -0.434   0.109   5.067  1.00  0.00    -0.343 N 
ATOM      3  C   UNL     1      -0.950  -0.935   4.329  1.00  0.00     0.243 C 
ATOM      4  H   UNL     1      -0.686   0.215   6.042  1.00  0.00     0.164 HD
ENDROOT
BRANCH   2   5
ATOM      5  C   UNL     1       0.398   1.126   4.434  1.00  0.00     0.171 C 
ATOM      6  C   UNL     1       1.729   1.253   1.862  1.00  0.00     0.214 C 
ATOM      7  N   UNL     1       2.437   0.720   3.002  1.00  0.00    -0.303 N 
ATOM      8  C   UNL     1       0.696   2.305   2.233  1.00  0.00     0.057 C 
ATOM      9  C   UNL     1       1.844   0.584   4.247  1.00  0.00     0.247 C 
ATOM     10  C   UNL     1      -0.300   1.722   3.212  1.00  0.00     0.040 C 
ATOM     11  O   UNL     1       2.428   0.046   5.197  1.00  0.00    -0.272 OA
BRANCH   6  12
ATOM     12  O   UNL     1       1.117   0.175   1.193  1.00  0.00    -0.373 OA
ATOM     13  H   UNL     1       1.808  -0.253   0.645  1.00  0.00     0.213 HD
ENDBRANCH   6  12
BRANCH   7  14
ATOM     14  C   UNL     1       3.791   0.180   2.759  1.00  0.00     0.177 C 
BRANCH  14  15
ATOM     15  C   UNL     1       3.836  -1.270   2.238  1.00  0.00     0.038 C 
BRANCH  15  16
ATOM     16  C   UNL     1       3.969  -2.436   3.242  1.00  0.00    -0.015 C 
ATOM     17  C   UNL     1       5.165  -2.262   4.184  1.00  0.00     0.007 C 
ATOM     18  C   UNL     1       4.144  -3.757   2.483  1.00  0.00     0.007 C 
ENDBRANCH  15  16
ENDBRANCH  14  15
BRANCH  14  19
ATOM     19  C   UNL     1       4.765   1.329   2.326  1.00  0.00     0.245 C 
ATOM     20  O   UNL     1       5.032   2.189   3.183  1.00  0.00    -0.272 OA
BRANCH  19  21
ATOM     21  N   UNL     1       5.240   1.493   1.037  1.00  0.00    -0.332 N 
ATOM     22  C   UNL     1       4.587   2.258  -0.011  1.00  0.00     0.147 C 
BRANCH  21  23
ATOM     23  C   UNL     1       6.521   0.826   0.677  1.00  0.00     0.178 C 
BRANCH  23  24
ATOM     24  C   UNL     1       6.384  -0.334  -0.332  1.00  0.00     0.070 C 
BRANCH  24  25
ATOM     25  C   UNL     1       6.766  -1.714   0.151  1.00  0.00    -0.045 A 
ATOM     26  C   UNL     1       7.498  -1.884   1.332  1.00  0.00     0.004 A 
ATOM     27  C   UNL     1       6.393  -2.849  -0.586  1.00  0.00     0.004 A 
ATOM     28  C   UNL     1       7.862  -3.162   1.762  1.00  0.00     0.000 A 
ATOM     29  C   UNL     1       6.757  -4.125  -0.154  1.00  0.00     0.000 A 
ATOM     30  C   UNL     1       7.493  -4.281   1.018  1.00  0.00     0.000 A 
ENDBRANCH  24  25
ENDBRANCH  23  24
BRANCH  23  31
ATOM     31  C   UNL     1       7.658   1.828   0.366  1.00  0.00     0.243 C 
ATOM     32  O   UNL     1       8.197   2.539   1.210  1.00  0.00    -0.273 OA
ATOM     33  N   UNL     1       7.894   1.993  -0.989  1.00  0.00    -0.341 N 
ATOM     34  H   UNL     1       7.410   1.376  -1.645  1.00  0.00     0.164 HD
BRANCH  33  35
ATOM     35  C   UNL     1       8.842   2.977  -1.520  1.00  0.00     0.194 C 
BRANCH  35  36
ATOM     36  C   UNL     1       8.170   4.199  -2.208  1.00  0.00     0.017 C 
ATOM     37  C   UNL     1       9.177   5.340  -2.430  1.00  0.00     0.010 C 
ATOM     38  C   UNL     1       6.995   4.773  -1.408  1.00  0.00     0.010 C 
ENDBRANCH  35  36
BRANCH  35  39
ATOM     39  C   UNL     1       9.933   2.332  -2.419  1.00  0.00     0.329 C 
ATOM     40  O   UNL     1       9.695   1.712  -3.449  1.00  0.00    -0.250 OA
BRANCH  39  41
ATOM     41  O   UNL     1      11.198   2.606  -1.979  1.00  0.00    -0.458 OA
BRANCH  41  42
ATOM     42  C   UNL     1      12.178   2.917  -2.999  1.00  0.00     0.205 CG0
ATOM     43  C   UNL     1      13.130   1.727  -3.092  1.00  0.00     0.056 C 
ATOM     44  G   UNL     1      12.901   4.221  -2.605  1.00  0.00     0.000 G0
ENDBRANCH  41  42
ENDBRANCH  39  41
ENDBRANCH  35  39
ENDBRANCH  33  35
ENDBRANCH  23  31
ENDBRANCH  21  23
ENDBRANCH  19  21
ENDBRANCH  14  19
ENDBRANCH   7  14
ENDBRANCH   2   5
BRANCH   3  45
ATOM     45  C   UNL     1      -1.898  -1.872   5.089  1.00  0.00     0.171 C 
BRANCH  45  46
ATOM     46  N   UNL     1      -2.193  -1.198   6.347  1.00  0.00    -0.342 N 
ATOM     47  C   UNL     1      -3.475  -1.020   6.803  1.00  0.00     0.247 C 
ATOM     48  O   UNL     1      -4.460  -1.477   6.224  1.00  0.00    -0.273 OA
ATOM     49  H   UNL     1      -1.402  -0.853   6.887  1.00  0.00     0.164 HD
BRANCH  47  50
ATOM     50  C   UNL     1      -3.598  -0.180   8.082  1.00  0.00     0.212 CG0
ATOM     51  G   UNL     1      -4.214  -1.077   9.173  1.00  0.00     0.000 G0
BRANCH  50  52
ATOM     52  N   UNL     1      -2.240   0.257   8.394  1.00  0.00    -0.339 N 
ATOM     53  C   UNL     1      -1.679   0.148   9.643  1.00  0.00     0.243 C 
ATOM     54  O   UNL     1      -2.299  -0.279  10.613  1.00  0.00    -0.273 OA
ATOM     55  H   UNL     1      -1.712   0.723   7.658  1.00  0.00     0.164 HD
BRANCH  53  56
ATOM     56  C   UNL     1      -0.265   0.756   9.751  1.00  0.00     0.182 C 
BRANCH  56  57
ATOM     57  N   UNL     1       0.036   1.597   8.589  1.00  0.00    -0.344 N 
ATOM     58  C   UNL     1      -0.247   2.941   8.560  1.00  0.00     0.220 C 
ATOM     59  O   UNL     1      -0.837   3.515   9.470  1.00  0.00    -0.275 OA
ATOM     60  H   UNL     1       0.613   1.186   7.860  1.00  0.00     0.164 HD
BRANCH  58  61
ATOM     61  C   UNL     1       0.204   3.623   7.282  1.00  0.00     0.100 C 
BRANCH  61  62
ATOM     62  C   UNL     1      -0.779   4.672   6.763  1.00  0.00     0.010 C 
BRANCH  62  63
ATOM     63  C   UNL     1      -0.830   4.782   5.234  1.00  0.00     0.000 C 
BRANCH  63  64
ATOM     64  C   UNL     1      -0.753   6.214   4.705  1.00  0.00    -0.003 C 
ATOM     65  C   UNL     1       0.663   6.764   4.797  1.00  0.00     0.004 C 
ENDBRANCH  63  64
ENDBRANCH  62  63
ENDBRANCH  61  62
ENDBRANCH  58  61
ENDBRANCH  56  57
BRANCH  56  66
ATOM     66  C   UNL     1       0.793  -0.324   9.972  1.00  0.00     0.157 C 
BRANCH  66  67
ATOM     67  C   UNL     1       0.738  -1.368   8.894  1.00  0.00     0.305 C 
ATOM     68  O   UNL     1       0.578  -1.178   7.698  1.00  0.00    -0.252 OA
BRANCH  67  69
ATOM     69  O   UNL     1       0.941  -2.610   9.373  1.00  0.00    -0.481 OA
ATOM     70  H   UNL     1       1.900  -2.772   9.249  1.00  0.00     0.296 HD
ENDBRANCH  67  69
ENDBRANCH  66  67
ENDBRANCH  56  66
ENDBRANCH  53  56
ENDBRANCH  50  52
ENDBRANCH  47  50
ENDBRANCH  45  46
BRANCH  45  71
ATOM     71  C   UNL     1      -1.231  -3.233   5.319  1.00  0.00     0.037 C 
BRANCH  71  72
ATOM     72  C   UNL     1      -2.250  -4.323   5.659  1.00  0.00     0.026 C 
BRANCH  72  73
ATOM     73  C   UNL     1      -1.993  -4.919   7.042  1.00  0.00     0.146 C 
BRANCH  73  74
ATOM     74  N   UNL     1      -0.647  -4.531   7.452  1.00  0.00    -0.254 NA
ATOM     75  C   UNL     1       0.272  -5.424   7.412  1.00  0.00     0.185 C 
ATOM     76  N   UNL     1       1.521  -5.097   7.783  1.00  0.00    -0.370 N 
ATOM     77  N   UNL     1       0.183  -6.712   7.036  1.00  0.00    -0.370 N 
ATOM     78  H   UNL     1       1.673  -4.147   8.088  1.00  0.00     0.159 HD
ATOM     79  H   UNL     1       2.254  -5.772   7.915  1.00  0.00     0.159 HD
ATOM     80  H   UNL     1      -0.696  -7.097   6.727  1.00  0.00     0.159 HD
ATOM     81  H   UNL     1       1.001  -7.290   6.935  1.00  0.00     0.159 HD
ENDBRANCH  73  74
ENDBRANCH  72  73
ENDBRANCH  71  72
ENDBRANCH  45  71
ENDBRANCH   3  45
TORSDOF 20
ENDMDL
MODEL 38
REMARK VINA RESULT:    -5.388      6.267     10.567
REMARK INTER + INTRA:         -23.531
REMARK INTER:                 -17.609
REMARK INTRA:                  -5.923
REMARK UNBOUND:                -8.064
REMARK SMILES CCCCCC(=O)N[C@H](CC(=O)O)C(=O)N[C@H]1C(=O)N[C@H](CCCN=C(N)N)C(=O)N[C@@H]2CC[C@H](O)N(C2=O)[C@@H](CC(C)C)C(=O)N(C)[C@@H](Cc2ccccc2)C(=O)N[C@H](C(C)C)C(=O)O[C@@H]1C
REMARK SMILES IDX 30 1 31 2 29 3 32 5 35 6 37 7 34 8 38 9 33 10 39 11 36 12
REMARK SMILES IDX 40 14 41 15 42 16 43 17 44 18 45 19 46 20 47 21 48 22 49 23
REMARK SMILES IDX 50 24 51 25 52 26 56 27 53 28 55 29 54 30 57 31 58 32 59 33
REMARK SMILES IDX 60 35 61 36 62 37 63 38 64 39 65 40 66 41 67 42 68 43 21 45
REMARK SMILES IDX 20 46 18 47 19 48 17 50 16 52 14 53 15 54 9 56 8 57 6 58
REMARK SMILES IDX 7 59 5 61 4 62 3 63 2 64 1 65 10 66 11 67 12 68 13 69 22 71
REMARK SMILES IDX 23 72 24 73 25 74 26 75 27 76 28 77
REMARK H PARENT 31 4 36 13 59 34 20 49 16 55 8 60 13 70 27 78 27 79 28 80
REMARK H PARENT 28 81
REMARK Flexibility Score:  259.900
ROOT
ATOM      1  O   UNL     1       2.485  -1.172   1.762  1.00  0.00    -0.273 OA
ATOM      2  N   UNL     1       3.965  -1.899   0.177  1.00  0.00    -0.343 N 
ATOM      3  C   UNL     1       3.034  -2.104   1.173  1.00  0.00     0.243 C 
ATOM      4  H   UNL     1       4.385  -2.690  -0.296  1.00  0.00     0.164 HD
ENDROOT
BRANCH   2   5
ATOM      5  C   UNL     1       4.430  -0.553  -0.140  1.00  0.00     0.171 C 
ATOM      6  C   UNL     1       5.647   0.598  -2.506  1.00  0.00     0.214 C 
ATOM      7  N   UNL     1       6.490   0.049  -1.469  1.00  0.00    -0.303 N 
ATOM      8  C   UNL     1       4.334   1.157  -1.980  1.00  0.00     0.057 C 
ATOM      9  C   UNL     1       5.973  -0.562  -0.338  1.00  0.00     0.247 C 
ATOM     10  C   UNL     1       3.577   0.077  -1.239  1.00  0.00     0.040 C 
ATOM     11  O   UNL     1       6.700  -1.107   0.503  1.00  0.00    -0.272 OA
BRANCH   6  12
ATOM     12  O   UNL     1       5.406  -0.420  -3.449  1.00  0.00    -0.373 OA
ATOM     13  H   UNL     1       5.621  -1.272  -3.014  1.00  0.00     0.213 HD
ENDBRANCH   6  12
BRANCH   7  14
ATOM     14  C   UNL     1       7.945   0.028  -1.729  1.00  0.00     0.177 C 
BRANCH  14  15
ATOM     15  C   UNL     1       8.530  -1.354  -2.077  1.00  0.00     0.038 C 
BRANCH  15  16
ATOM     16  C   UNL     1       9.704  -1.915  -1.245  1.00  0.00    -0.015 C 
ATOM     17  C   UNL     1      11.038  -1.245  -1.591  1.00  0.00     0.007 C 
ATOM     18  C   UNL     1       9.844  -3.422  -1.495  1.00  0.00     0.007 C 
ENDBRANCH  15  16
ENDBRANCH  14  15
BRANCH  14  19
ATOM     19  C   UNL     1       8.405   1.391  -2.353  1.00  0.00     0.245 C 
ATOM     20  O   UNL     1       9.082   1.330  -3.393  1.00  0.00    -0.272 OA
BRANCH  19  21
ATOM     21  N   UNL     1       8.195   2.622  -1.757  1.00  0.00    -0.332 N 
ATOM     22  C   UNL     1       8.500   2.952  -0.376  1.00  0.00     0.147 C 
BRANCH  21  23
ATOM     23  C   UNL     1       7.598   3.704  -2.587  1.00  0.00     0.178 C 
BRANCH  23  24
ATOM     24  C   UNL     1       6.832   4.780  -1.790  1.00  0.00     0.070 C 
BRANCH  24  25
ATOM     25  C   UNL     1       5.323   4.719  -1.825  1.00  0.00    -0.045 A 
ATOM     26  C   UNL     1       4.582   4.595  -0.643  1.00  0.00     0.004 A 
ATOM     27  C   UNL     1       4.641   4.780  -3.049  1.00  0.00     0.004 A 
ATOM     28  C   UNL     1       3.188   4.521  -0.685  1.00  0.00     0.000 A 
ATOM     29  C   UNL     1       3.247   4.708  -3.090  1.00  0.00     0.000 A 
ATOM     30  C   UNL     1       2.522   4.575  -1.908  1.00  0.00     0.000 A 
ENDBRANCH  24  25
ENDBRANCH  23  24
BRANCH  23  31
ATOM     31  C   UNL     1       8.574   4.255  -3.654  1.00  0.00     0.243 C 
ATOM     32  O   UNL     1       8.304   4.349  -4.848  1.00  0.00    -0.273 OA
ATOM     33  N   UNL     1       9.856   4.465  -3.175  1.00  0.00    -0.341 N 
ATOM     34  H   UNL     1      10.021   4.366  -2.170  1.00  0.00     0.164 HD
BRANCH  33  35
ATOM     35  C   UNL     1      10.973   4.871  -4.033  1.00  0.00     0.194 C 
BRANCH  35  36
ATOM     36  C   UNL     1      11.996   3.737  -4.321  1.00  0.00     0.017 C 
ATOM     37  C   UNL     1      11.525   2.838  -5.478  1.00  0.00     0.010 C 
ATOM     38  C   UNL     1      12.251   2.830  -3.110  1.00  0.00     0.010 C 
ENDBRANCH  35  36
BRANCH  35  39
ATOM     39  C   UNL     1      11.669   6.168  -3.535  1.00  0.00     0.329 C 
ATOM     40  O   UNL     1      12.259   6.263  -2.465  1.00  0.00    -0.250 OA
BRANCH  39  41
ATOM     41  O   UNL     1      11.625   7.171  -4.463  1.00  0.00    -0.458 OA
BRANCH  41  42
ATOM     42  C   UNL     1      12.082   8.472  -4.023  1.00  0.00     0.205 CG0
ATOM     43  C   UNL     1      10.870   9.214  -3.465  1.00  0.00     0.056 C 
ATOM     44  G   UNL     1      12.718   9.202  -5.224  1.00  0.00     0.000 G0
ENDBRANCH  41  42
ENDBRANCH  39  41
ENDBRANCH  35  39
ENDBRANCH  33  35
ENDBRANCH  23  31
ENDBRANCH  21  23
ENDBRANCH  19  21
ENDBRANCH  14  19
ENDBRANCH   7  14
ENDBRANCH   2   5
BRANCH   3  45
ATOM     45  C   UNL     1       2.713  -3.572   1.481  1.00  0.00     0.171 C 
BRANCH  45  46
ATOM     46  N   UNL     1       1.321  -3.589   1.911  1.00  0.00    -0.342 N 
ATOM     47  C   UNL     1       0.519  -4.692   1.765  1.00  0.00     0.247 C 
ATOM     48  O   UNL     1       0.933  -5.767   1.328  1.00  0.00    -0.273 OA
ATOM     49  H   UNL     1       0.953  -2.737   2.330  1.00  0.00     0.164 HD
BRANCH  47  50
ATOM     50  C   UNL     1      -0.950  -4.485   2.159  1.00  0.00     0.212 CG0
ATOM     51  G   UNL     1      -1.765  -5.647   1.556  1.00  0.00     0.000 G0
BRANCH  50  52
ATOM     52  N   UNL     1      -0.963  -4.468   3.620  1.00  0.00    -0.339 N 
ATOM     53  C   UNL     1      -1.485  -3.435   4.359  1.00  0.00     0.243 C 
ATOM     54  O   UNL     1      -1.937  -2.416   3.846  1.00  0.00    -0.273 OA
ATOM     55  H   UNL     1      -0.502  -5.236   4.105  1.00  0.00     0.164 HD
BRANCH  53  56
ATOM     56  C   UNL     1      -1.307  -3.601   5.882  1.00  0.00     0.182 C 
BRANCH  56  57
ATOM     57  N   UNL     1      -0.279  -4.602   6.186  1.00  0.00    -0.344 N 
ATOM     58  C   UNL     1       0.969  -4.259   6.647  1.00  0.00     0.220 C 
ATOM     59  O   UNL     1       1.335  -3.095   6.766  1.00  0.00    -0.275 OA
ATOM     60  H   UNL     1      -0.573  -5.575   6.198  1.00  0.00     0.164 HD
BRANCH  58  61
ATOM     61  C   UNL     1       1.848  -5.458   6.950  1.00  0.00     0.100 C 
BRANCH  61  62
ATOM     62  C   UNL     1       1.456  -6.720   6.183  1.00  0.00     0.010 C 
BRANCH  62  63
ATOM     63  C   UNL     1       1.870  -6.711   4.706  1.00  0.00     0.000 C 
BRANCH  63  64
ATOM     64  C   UNL     1       1.579  -8.016   3.965  1.00  0.00    -0.003 C 
ATOM     65  C   UNL     1       1.326  -9.160   4.935  1.00  0.00     0.004 C 
ENDBRANCH  63  64
ENDBRANCH  62  63
ENDBRANCH  61  62
ENDBRANCH  58  61
ENDBRANCH  56  57
BRANCH  56  66
ATOM     66  C   UNL     1      -2.635  -3.911   6.571  1.00  0.00     0.157 C 
BRANCH  66  67
ATOM     67  C   UNL     1      -2.970  -5.372   6.475  1.00  0.00     0.305 C 
ATOM     68  O   UNL     1      -2.571  -6.161   5.631  1.00  0.00    -0.252 OA
BRANCH  67  69
ATOM     69  O   UNL     1      -3.757  -5.784   7.486  1.00  0.00    -0.481 OA
ATOM     70  H   UNL     1      -3.987  -6.711   7.262  1.00  0.00     0.296 HD
ENDBRANCH  67  69
ENDBRANCH  66  67
ENDBRANCH  56  66
ENDBRANCH  53  56
ENDBRANCH  50  52
ENDBRANCH  47  50
ENDBRANCH  45  46
BRANCH  45  71
ATOM     71  C   UNL     1       3.649  -4.105   2.572  1.00  0.00     0.037 C 
BRANCH  71  72
ATOM     72  C   UNL     1       3.389  -3.443   3.927  1.00  0.00     0.026 C 
BRANCH  72  73
ATOM     73  C   UNL     1       4.657  -3.392   4.778  1.00  0.00     0.146 C 
BRANCH  73  74
ATOM     74  N   UNL     1       5.793  -3.668   3.904  1.00  0.00    -0.254 NA
ATOM     75  C   UNL     1       6.375  -2.672   3.346  1.00  0.00     0.185 C 
ATOM     76  N   UNL     1       7.424  -2.894   2.537  1.00  0.00    -0.370 N 
ATOM     77  N   UNL     1       6.089  -1.362   3.445  1.00  0.00    -0.370 N 
ATOM     78  H   UNL     1       7.701  -3.856   2.401  1.00  0.00     0.159 HD
ATOM     79  H   UNL     1       7.835  -2.185   1.956  1.00  0.00     0.159 HD
ATOM     80  H   UNL     1       5.325  -1.046   4.023  1.00  0.00     0.159 HD
ATOM     81  H   UNL     1       6.691  -0.659   3.049  1.00  0.00     0.159 HD
ENDBRANCH  73  74
ENDBRANCH  72  73
ENDBRANCH  71  72
ENDBRANCH  45  71
ENDBRANCH   3  45
TORSDOF 20
ENDMDL
MODEL 39
REMARK VINA RESULT:    -5.386      6.854     10.974
REMARK INTER + INTRA:         -23.527
REMARK INTER:                 -16.056
REMARK INTRA:                  -7.471
REMARK UNBOUND:                -8.064
REMARK SMILES CCCCCC(=O)N[C@H](CC(=O)O)C(=O)N[C@H]1C(=O)N[C@H](CCCN=C(N)N)C(=O)N[C@@H]2CC[C@H](O)N(C2=O)[C@@H](CC(C)C)C(=O)N(C)[C@@H](Cc2ccccc2)C(=O)N[C@H](C(C)C)C(=O)O[C@@H]1C
REMARK SMILES IDX 30 1 31 2 29 3 32 5 35 6 37 7 34 8 38 9 33 10 39 11 36 12
REMARK SMILES IDX 40 14 41 15 42 16 43 17 44 18 45 19 46 20 47 21 48 22 49 23
REMARK SMILES IDX 50 24 51 25 52 26 56 27 53 28 55 29 54 30 57 31 58 32 59 33
REMARK SMILES IDX 60 35 61 36 62 37 63 38 64 39 65 40 66 41 67 42 68 43 21 45
REMARK SMILES IDX 20 46 18 47 19 48 17 50 16 52 14 53 15 54 9 56 8 57 6 58
REMARK SMILES IDX 7 59 5 61 4 62 3 63 2 64 1 65 10 66 11 67 12 68 13 69 22 71
REMARK SMILES IDX 23 72 24 73 25 74 26 75 27 76 28 77
REMARK H PARENT 31 4 36 13 59 34 20 49 16 55 8 60 13 70 27 78 27 79 28 80
REMARK H PARENT 28 81
REMARK Flexibility Score:  259.900
ROOT
ATOM      1  O   UNL     1       7.175  -0.720   1.138  1.00  0.00    -0.273 OA
ATOM      2  N   UNL     1       5.288   0.536   0.832  1.00  0.00    -0.343 N 
ATOM      3  C   UNL     1       6.629   0.272   0.654  1.00  0.00     0.243 C 
ATOM      4  H   UNL     1       4.870   1.354   0.407  1.00  0.00     0.164 HD
ENDROOT
BRANCH   2   5
ATOM      5  C   UNL     1       4.478  -0.299   1.712  1.00  0.00     0.171 C 
ATOM      6  C   UNL     1       1.639  -0.363   2.295  1.00  0.00     0.214 C 
ATOM      7  N   UNL     1       2.512   0.454   3.105  1.00  0.00    -0.303 N 
ATOM      8  C   UNL     1       2.324  -1.596   1.727  1.00  0.00     0.057 C 
ATOM      9  C   UNL     1       3.869   0.569   2.850  1.00  0.00     0.247 C 
ATOM     10  C   UNL     1       3.526  -1.183   0.907  1.00  0.00     0.040 C 
ATOM     11  O   UNL     1       4.594   1.338   3.495  1.00  0.00    -0.272 OA
BRANCH   6  12
ATOM     12  O   UNL     1       1.137   0.444   1.255  1.00  0.00    -0.373 OA
ATOM     13  H   UNL     1       1.318  -0.026   0.413  1.00  0.00     0.213 HD
ENDBRANCH   6  12
BRANCH   7  14
ATOM     14  C   UNL     1       1.874   1.291   4.143  1.00  0.00     0.177 C 
BRANCH  14  15
ATOM     15  C   UNL     1       1.154   2.549   3.621  1.00  0.00     0.038 C 
BRANCH  15  16
ATOM     16  C   UNL     1       1.982   3.695   2.998  1.00  0.00    -0.015 C 
ATOM     17  C   UNL     1       2.495   4.684   4.049  1.00  0.00     0.007 C 
ATOM     18  C   UNL     1       1.120   4.469   1.991  1.00  0.00     0.007 C 
ENDBRANCH  15  16
ENDBRANCH  14  15
BRANCH  14  19
ATOM     19  C   UNL     1       1.390   0.399   5.338  1.00  0.00     0.245 C 
ATOM     20  O   UNL     1       2.244  -0.322   5.880  1.00  0.00    -0.272 OA
BRANCH  19  21
ATOM     21  N   UNL     1       0.069   0.293   5.736  1.00  0.00    -0.332 N 
ATOM     22  C   UNL     1      -0.897  -0.652   5.206  1.00  0.00     0.147 C 
BRANCH  21  23
ATOM     23  C   UNL     1      -0.419   1.229   6.786  1.00  0.00     0.178 C 
BRANCH  23  24
ATOM     24  C   UNL     1      -1.477   2.243   6.307  1.00  0.00     0.070 C 
BRANCH  24  25
ATOM     25  C   UNL     1      -1.042   3.684   6.178  1.00  0.00    -0.045 A 
ATOM     26  C   UNL     1      -1.550   4.500   5.159  1.00  0.00     0.004 A 
ATOM     27  C   UNL     1      -0.113   4.226   7.080  1.00  0.00     0.004 A 
ATOM     28  C   UNL     1      -1.129   5.826   5.037  1.00  0.00     0.000 A 
ATOM     29  C   UNL     1       0.306   5.552   6.957  1.00  0.00     0.000 A 
ATOM     30  C   UNL     1      -0.201   6.350   5.933  1.00  0.00     0.000 A 
ENDBRANCH  24  25
ENDBRANCH  23  24
BRANCH  23  31
ATOM     31  C   UNL     1      -0.754   0.519   8.119  1.00  0.00     0.243 C 
ATOM     32  O   UNL     1       0.028  -0.209   8.726  1.00  0.00    -0.273 OA
ATOM     33  N   UNL     1      -2.086   0.623   8.482  1.00  0.00    -0.341 N 
ATOM     34  H   UNL     1      -2.691   1.240   7.934  1.00  0.00     0.164 HD
BRANCH  33  35
ATOM     35  C   UNL     1      -2.655  -0.068   9.642  1.00  0.00     0.194 C 
BRANCH  35  36
ATOM     36  C   UNL     1      -3.648  -1.208   9.278  1.00  0.00     0.017 C 
ATOM     37  C   UNL     1      -2.905  -2.460   8.780  1.00  0.00     0.010 C 
ATOM     38  C   UNL     1      -4.654  -0.809   8.191  1.00  0.00     0.010 C 
ENDBRANCH  35  36
BRANCH  35  39
ATOM     39  C   UNL     1      -3.256   0.913  10.688  1.00  0.00     0.329 C 
ATOM     40  O   UNL     1      -3.583   0.589  11.823  1.00  0.00    -0.250 OA
BRANCH  39  41
ATOM     41  O   UNL     1      -3.298   2.200  10.228  1.00  0.00    -0.458 OA
BRANCH  41  42
ATOM     42  C   UNL     1      -3.875   3.181  11.123  1.00  0.00     0.205 CG0
ATOM     43  C   UNL     1      -2.758   4.139  11.528  1.00  0.00     0.056 C 
ATOM     44  G   UNL     1      -4.488   2.445  12.331  1.00  0.00     0.000 G0
ENDBRANCH  41  42
ENDBRANCH  39  41
ENDBRANCH  35  39
ENDBRANCH  33  35
ENDBRANCH  23  31
ENDBRANCH  21  23
ENDBRANCH  19  21
ENDBRANCH  14  19
ENDBRANCH   7  14
ENDBRANCH   2   5
BRANCH   3  45
ATOM     45  C   UNL     1       7.390   1.289  -0.208  1.00  0.00     0.171 C 
BRANCH  45  46
ATOM     46  N   UNL     1       8.569   0.587  -0.697  1.00  0.00    -0.342 N 
ATOM     47  C   UNL     1       8.775   0.334  -2.030  1.00  0.00     0.247 C 
ATOM     48  O   UNL     1       8.020   0.744  -2.913  1.00  0.00    -0.273 OA
ATOM     49  H   UNL     1       9.248   0.279  -0.004  1.00  0.00     0.164 HD
BRANCH  47  50
ATOM     50  C   UNL     1      10.008  -0.525  -2.346  1.00  0.00     0.212 CG0
ATOM     51  G   UNL     1      11.259   0.314  -2.018  1.00  0.00     0.000 G0
BRANCH  50  52
ATOM     52  N   UNL     1       9.876  -1.716  -1.511  1.00  0.00    -0.339 N 
ATOM     53  C   UNL     1       9.238  -2.861  -1.923  1.00  0.00     0.243 C 
ATOM     54  O   UNL     1       8.680  -2.952  -3.013  1.00  0.00    -0.273 OA
ATOM     55  H   UNL     1      10.222  -1.664  -0.555  1.00  0.00     0.164 HD
BRANCH  53  56
ATOM     56  C   UNL     1       9.150  -3.954  -0.839  1.00  0.00     0.182 C 
BRANCH  56  57
ATOM     57  N   UNL     1       8.077  -3.662   0.117  1.00  0.00    -0.344 N 
ATOM     58  C   UNL     1       6.850  -4.277   0.056  1.00  0.00     0.220 C 
ATOM     59  O   UNL     1       6.541  -5.055  -0.840  1.00  0.00    -0.275 OA
ATOM     60  H   UNL     1       8.324  -3.104   0.930  1.00  0.00     0.164 HD
BRANCH  58  61
ATOM     61  C   UNL     1       5.916  -3.866   1.179  1.00  0.00     0.100 C 
BRANCH  61  62
ATOM     62  C   UNL     1       6.562  -3.905   2.564  1.00  0.00     0.010 C 
BRANCH  62  63
ATOM     63  C   UNL     1       5.698  -3.298   3.677  1.00  0.00     0.000 C 
BRANCH  63  64
ATOM     64  C   UNL     1       4.304  -3.912   3.794  1.00  0.00    -0.003 C 
ATOM     65  C   UNL     1       3.607  -3.469   5.072  1.00  0.00     0.004 C 
ENDBRANCH  63  64
ENDBRANCH  62  63
ENDBRANCH  61  62
ENDBRANCH  58  61
ENDBRANCH  56  57
BRANCH  56  66
ATOM     66  C   UNL     1      10.495  -4.168  -0.148  1.00  0.00     0.157 C 
BRANCH  66  67
ATOM     67  C   UNL     1      10.497  -5.434   0.659  1.00  0.00     0.305 C 
ATOM     68  O   UNL     1       9.609  -5.834   1.398  1.00  0.00    -0.252 OA
BRANCH  67  69
ATOM     69  O   UNL     1      11.606  -6.169   0.456  1.00  0.00    -0.481 OA
ATOM     70  H   UNL     1      11.383  -7.060   0.801  1.00  0.00     0.296 HD
ENDBRANCH  67  69
ENDBRANCH  66  67
ENDBRANCH  56  66
ENDBRANCH  53  56
ENDBRANCH  50  52
ENDBRANCH  47  50
ENDBRANCH  45  46
BRANCH  45  71
ATOM     71  C   UNL     1       7.769   2.518   0.626  1.00  0.00     0.037 C 
BRANCH  71  72
ATOM     72  C   UNL     1       7.962   3.765  -0.241  1.00  0.00     0.026 C 
BRANCH  72  73
ATOM     73  C   UNL     1       6.700   4.096  -1.035  1.00  0.00     0.146 C 
BRANCH  73  74
ATOM     74  N   UNL     1       7.113   4.613  -2.335  1.00  0.00    -0.254 NA
ATOM     75  C   UNL     1       6.757   3.962  -3.380  1.00  0.00     0.185 C 
ATOM     76  N   UNL     1       7.121   4.413  -4.591  1.00  0.00    -0.370 N 
ATOM     77  N   UNL     1       6.034   2.832  -3.465  1.00  0.00    -0.370 N 
ATOM     78  H   UNL     1       7.676   5.257  -4.617  1.00  0.00     0.159 HD
ATOM     79  H   UNL     1       7.005   3.885  -5.438  1.00  0.00     0.159 HD
ATOM     80  H   UNL     1       5.687   2.380  -2.633  1.00  0.00     0.159 HD
ATOM     81  H   UNL     1       5.717   2.473  -4.351  1.00  0.00     0.159 HD
ENDBRANCH  73  74
ENDBRANCH  72  73
ENDBRANCH  71  72
ENDBRANCH  45  71
ENDBRANCH   3  45
TORSDOF 20
ENDMDL
MODEL 40
REMARK VINA RESULT:    -5.376      6.533     10.461
REMARK INTER + INTRA:         -23.498
REMARK INTER:                 -15.205
REMARK INTRA:                  -8.292
REMARK UNBOUND:                -8.064
REMARK SMILES CCCCCC(=O)N[C@H](CC(=O)O)C(=O)N[C@H]1C(=O)N[C@H](CCCN=C(N)N)C(=O)N[C@@H]2CC[C@H](O)N(C2=O)[C@@H](CC(C)C)C(=O)N(C)[C@@H](Cc2ccccc2)C(=O)N[C@H](C(C)C)C(=O)O[C@@H]1C
REMARK SMILES IDX 30 1 31 2 29 3 32 5 35 6 37 7 34 8 38 9 33 10 39 11 36 12
REMARK SMILES IDX 40 14 41 15 42 16 43 17 44 18 45 19 46 20 47 21 48 22 49 23
REMARK SMILES IDX 50 24 51 25 52 26 56 27 53 28 55 29 54 30 57 31 58 32 59 33
REMARK SMILES IDX 60 35 61 36 62 37 63 38 64 39 65 40 66 41 67 42 68 43 21 45
REMARK SMILES IDX 20 46 18 47 19 48 17 50 16 52 14 53 15 54 9 56 8 57 6 58
REMARK SMILES IDX 7 59 5 61 4 62 3 63 2 64 1 65 10 66 11 67 12 68 13 69 22 71
REMARK SMILES IDX 23 72 24 73 25 74 26 75 27 76 28 77
REMARK H PARENT 31 4 36 13 59 34 20 49 16 55 8 60 13 70 27 78 27 79 28 80
REMARK H PARENT 28 81
REMARK Flexibility Score:  259.900
ROOT
ATOM      1  O   UNL     1       4.214   0.630   0.432  1.00  0.00    -0.273 OA
ATOM      2  N   UNL     1       4.744  -0.527   2.333  1.00  0.00    -0.343 N 
ATOM      3  C   UNL     1       4.834  -0.283   0.979  1.00  0.00     0.243 C 
ATOM      4  H   UNL     1       5.280  -1.277   2.751  1.00  0.00     0.164 HD
ENDROOT
BRANCH   2   5
ATOM      5  C   UNL     1       3.806   0.222   3.162  1.00  0.00     0.171 C 
ATOM      6  C   UNL     1       3.609   0.633   6.025  1.00  0.00     0.214 C 
ATOM      7  N   UNL     1       2.908  -0.474   5.416  1.00  0.00    -0.303 N 
ATOM      8  C   UNL     1       3.769   1.827   5.097  1.00  0.00     0.057 C 
ATOM      9  C   UNL     1       3.000  -0.757   4.063  1.00  0.00     0.247 C 
ATOM     10  C   UNL     1       4.496   1.405   3.839  1.00  0.00     0.040 C 
ATOM     11  O   UNL     1       2.467  -1.756   3.564  1.00  0.00    -0.272 OA
BRANCH   6  12
ATOM     12  O   UNL     1       4.869   0.165   6.447  1.00  0.00    -0.373 OA
ATOM     13  H   UNL     1       4.947   0.371   7.402  1.00  0.00     0.213 HD
ENDBRANCH   6  12
BRANCH   7  14
ATOM     14  C   UNL     1       2.194  -1.396   6.324  1.00  0.00     0.177 C 
BRANCH  14  15
ATOM     15  C   UNL     1       2.959  -2.683   6.687  1.00  0.00     0.038 C 
BRANCH  15  16
ATOM     16  C   UNL     1       2.197  -4.024   6.771  1.00  0.00    -0.015 C 
ATOM     17  C   UNL     1       1.430  -4.178   8.088  1.00  0.00     0.007 C 
ATOM     18  C   UNL     1       3.185  -5.191   6.652  1.00  0.00     0.007 C 
ENDBRANCH  15  16
ENDBRANCH  14  15
BRANCH  14  19
ATOM     19  C   UNL     1       1.262  -0.590   7.294  1.00  0.00     0.245 C 
ATOM     20  O   UNL     1       1.724  -0.319   8.416  1.00  0.00    -0.272 OA
BRANCH  19  21
ATOM     21  N   UNL     1      -0.055  -0.274   7.013  1.00  0.00    -0.332 N 
ATOM     22  C   UNL     1      -1.105  -1.229   6.708  1.00  0.00     0.147 C 
BRANCH  21  23
ATOM     23  C   UNL     1      -0.438   1.165   7.008  1.00  0.00     0.178 C 
BRANCH  23  24
ATOM     24  C   UNL     1      -0.495   1.813   5.609  1.00  0.00     0.070 C 
BRANCH  24  25
ATOM     25  C   UNL     1      -0.425   3.321   5.546  1.00  0.00    -0.045 A 
ATOM     26  C   UNL     1       0.771   3.996   5.822  1.00  0.00     0.004 A 
ATOM     27  C   UNL     1      -1.565   4.069   5.214  1.00  0.00     0.004 A 
ATOM     28  C   UNL     1       0.823   5.391   5.778  1.00  0.00     0.000 A 
ATOM     29  C   UNL     1      -1.511   5.463   5.169  1.00  0.00     0.000 A 
ATOM     30  C   UNL     1      -0.318   6.123   5.454  1.00  0.00     0.000 A 
ENDBRANCH  24  25
ENDBRANCH  23  24
BRANCH  23  31
ATOM     31  C   UNL     1      -1.653   1.469   7.916  1.00  0.00     0.243 C 
ATOM     32  O   UNL     1      -2.811   1.543   7.513  1.00  0.00    -0.273 OA
ATOM     33  N   UNL     1      -1.303   1.838   9.204  1.00  0.00    -0.341 N 
ATOM     34  H   UNL     1      -0.321   1.761   9.480  1.00  0.00     0.164 HD
BRANCH  33  35
ATOM     35  C   UNL     1      -2.279   2.283  10.202  1.00  0.00     0.194 C 
BRANCH  35  36
ATOM     36  C   UNL     1      -2.138   3.778  10.606  1.00  0.00     0.017 C 
ATOM     37  C   UNL     1      -2.295   4.704   9.387  1.00  0.00     0.010 C 
ATOM     38  C   UNL     1      -0.788   4.102  11.257  1.00  0.00     0.010 C 
ENDBRANCH  35  36
BRANCH  35  39
ATOM     39  C   UNL     1      -2.335   1.349  11.443  1.00  0.00     0.329 C 
ATOM     40  O   UNL     1      -1.502   0.484  11.689  1.00  0.00    -0.250 OA
BRANCH  39  41
ATOM     41  O   UNL     1      -3.371   1.658  12.280  1.00  0.00    -0.458 OA
BRANCH  41  42
ATOM     42  C   UNL     1      -3.021   1.943  13.655  1.00  0.00     0.205 CG0
ATOM     43  C   UNL     1      -3.778   0.948  14.532  1.00  0.00     0.056 C 
ATOM     44  G   UNL     1      -3.398   3.406  13.965  1.00  0.00     0.000 G0
ENDBRANCH  41  42
ENDBRANCH  39  41
ENDBRANCH  35  39
ENDBRANCH  33  35
ENDBRANCH  23  31
ENDBRANCH  21  23
ENDBRANCH  19  21
ENDBRANCH  14  19
ENDBRANCH   7  14
ENDBRANCH   2   5
BRANCH   3  45
ATOM     45  C   UNL     1       5.777  -1.213   0.205  1.00  0.00     0.171 C 
BRANCH  45  46
ATOM     46  N   UNL     1       6.446  -0.368  -0.776  1.00  0.00    -0.342 N 
ATOM     47  C   UNL     1       7.797  -0.438  -1.008  1.00  0.00     0.247 C 
ATOM     48  O   UNL     1       8.527  -1.264  -0.460  1.00  0.00    -0.273 OA
ATOM     49  H   UNL     1       5.868   0.292  -1.293  1.00  0.00     0.164 HD
BRANCH  47  50
ATOM     50  C   UNL     1       8.343   0.614  -1.984  1.00  0.00     0.212 CG0
ATOM     51  G   UNL     1       8.662  -0.103  -3.311  1.00  0.00     0.000 G0
BRANCH  50  52
ATOM     52  N   UNL     1       7.288   1.616  -2.109  1.00  0.00    -0.339 N 
ATOM     53  C   UNL     1       7.234   2.755  -1.344  1.00  0.00     0.243 C 
ATOM     54  O   UNL     1       8.046   2.994  -0.454  1.00  0.00    -0.273 OA
ATOM     55  H   UNL     1       6.524   1.420  -2.752  1.00  0.00     0.164 HD
BRANCH  53  56
ATOM     56  C   UNL     1       5.982   3.620  -1.593  1.00  0.00     0.182 C 
BRANCH  56  57
ATOM     57  N   UNL     1       5.047   3.529  -0.467  1.00  0.00    -0.344 N 
ATOM     58  C   UNL     1       4.999   4.475   0.528  1.00  0.00     0.220 C 
ATOM     59  O   UNL     1       5.781   5.418   0.585  1.00  0.00    -0.275 OA
ATOM     60  H   UNL     1       4.318   2.823  -0.529  1.00  0.00     0.164 HD
BRANCH  58  61
ATOM     61  C   UNL     1       3.917   4.210   1.558  1.00  0.00     0.100 C 
BRANCH  61  62
ATOM     62  C   UNL     1       2.603   3.712   0.957  1.00  0.00     0.010 C 
BRANCH  62  63
ATOM     63  C   UNL     1       1.356   4.107   1.760  1.00  0.00     0.000 C 
BRANCH  63  64
ATOM     64  C   UNL     1       0.543   2.922   2.278  1.00  0.00    -0.003 C 
ATOM     65  C   UNL     1       1.118   1.599   1.791  1.00  0.00     0.004 C 
ENDBRANCH  63  64
ENDBRANCH  62  63
ENDBRANCH  61  62
ENDBRANCH  58  61
ENDBRANCH  56  57
BRANCH  56  66
ATOM     66  C   UNL     1       5.317   3.272  -2.924  1.00  0.00     0.157 C 
BRANCH  66  67
ATOM     67  C   UNL     1       4.045   2.504  -2.712  1.00  0.00     0.305 C 
ATOM     68  O   UNL     1       2.906   2.944  -2.758  1.00  0.00    -0.252 OA
BRANCH  67  69
ATOM     69  O   UNL     1       4.268   1.193  -2.501  1.00  0.00    -0.481 OA
ATOM     70  H   UNL     1       3.496   0.888  -1.979  1.00  0.00     0.296 HD
ENDBRANCH  67  69
ENDBRANCH  66  67
ENDBRANCH  56  66
ENDBRANCH  53  56
ENDBRANCH  50  52
ENDBRANCH  47  50
ENDBRANCH  45  46
BRANCH  45  71
ATOM     71  C   UNL     1       4.983  -2.339  -0.467  1.00  0.00     0.037 C 
BRANCH  71  72
ATOM     72  C   UNL     1       4.137  -3.126   0.538  1.00  0.00     0.026 C 
BRANCH  72  73
ATOM     73  C   UNL     1       4.970  -4.178   1.269  1.00  0.00     0.146 C 
BRANCH  73  74
ATOM     74  N   UNL     1       5.067  -3.777   2.669  1.00  0.00    -0.254 NA
ATOM     75  C   UNL     1       6.226  -3.479   3.128  1.00  0.00     0.185 C 
ATOM     76  N   UNL     1       6.347  -3.106   4.412  1.00  0.00    -0.370 N 
ATOM     77  N   UNL     1       7.411  -3.478   2.494  1.00  0.00    -0.370 N 
ATOM     78  H   UNL     1       5.501  -3.086   4.965  1.00  0.00     0.159 HD
ATOM     79  H   UNL     1       7.231  -2.999   4.877  1.00  0.00     0.159 HD
ATOM     80  H   UNL     1       7.473  -3.734   1.520  1.00  0.00     0.159 HD
ATOM     81  H   UNL     1       8.242  -3.112   2.928  1.00  0.00     0.159 HD
ENDBRANCH  73  74
ENDBRANCH  72  73
ENDBRANCH  71  72
ENDBRANCH  45  71
ENDBRANCH   3  45
TORSDOF 20
ENDMDL
MODEL 41
REMARK VINA RESULT:    -5.376      6.029      9.489
REMARK INTER + INTRA:         -23.496
REMARK INTER:                 -18.120
REMARK INTRA:                  -5.376
REMARK UNBOUND:                -8.064
REMARK SMILES CCCCCC(=O)N[C@H](CC(=O)O)C(=O)N[C@H]1C(=O)N[C@H](CCCN=C(N)N)C(=O)N[C@@H]2CC[C@H](O)N(C2=O)[C@@H](CC(C)C)C(=O)N(C)[C@@H](Cc2ccccc2)C(=O)N[C@H](C(C)C)C(=O)O[C@@H]1C
REMARK SMILES IDX 30 1 31 2 29 3 32 5 35 6 37 7 34 8 38 9 33 10 39 11 36 12
REMARK SMILES IDX 40 14 41 15 42 16 43 17 44 18 45 19 46 20 47 21 48 22 49 23
REMARK SMILES IDX 50 24 51 25 52 26 56 27 53 28 55 29 54 30 57 31 58 32 59 33
REMARK SMILES IDX 60 35 61 36 62 37 63 38 64 39 65 40 66 41 67 42 68 43 21 45
REMARK SMILES IDX 20 46 18 47 19 48 17 50 16 52 14 53 15 54 9 56 8 57 6 58
REMARK SMILES IDX 7 59 5 61 4 62 3 63 2 64 1 65 10 66 11 67 12 68 13 69 22 71
REMARK SMILES IDX 23 72 24 73 25 74 26 75 27 76 28 77
REMARK H PARENT 31 4 36 13 59 34 20 49 16 55 8 60 13 70 27 78 27 79 28 80
REMARK H PARENT 28 81
REMARK Flexibility Score:  259.900
ROOT
ATOM      1  O   UNL     1       6.391  -1.129   0.523  1.00  0.00    -0.273 OA
ATOM      2  N   UNL     1       5.674  -1.536   2.657  1.00  0.00    -0.343 N 
ATOM      3  C   UNL     1       6.442  -1.813   1.546  1.00  0.00     0.243 C 
ATOM      4  H   UNL     1       5.753  -2.112   3.486  1.00  0.00     0.164 HD
ENDROOT
BRANCH   2   5
ATOM      5  C   UNL     1       4.671  -0.478   2.620  1.00  0.00     0.171 C 
ATOM      6  C   UNL     1       3.753   1.428   4.603  1.00  0.00     0.214 C 
ATOM      7  N   UNL     1       3.087   0.153   4.482  1.00  0.00    -0.303 N 
ATOM      8  C   UNL     1       4.347   1.923   3.294  1.00  0.00     0.057 C 
ATOM      9  C   UNL     1       3.505  -0.823   3.591  1.00  0.00     0.247 C 
ATOM     10  C   UNL     1       5.320   0.899   2.753  1.00  0.00     0.040 C 
ATOM     11  O   UNL     1       2.984  -1.945   3.554  1.00  0.00    -0.272 OA
BRANCH   6  12
ATOM     12  O   UNL     1       4.759   1.297   5.581  1.00  0.00    -0.373 OA
ATOM     13  H   UNL     1       5.539   0.898   5.140  1.00  0.00     0.213 HD
ENDBRANCH   6  12
BRANCH   7  14
ATOM     14  C   UNL     1       2.015  -0.139   5.458  1.00  0.00     0.177 C 
BRANCH  14  15
ATOM     15  C   UNL     1       2.451  -0.965   6.684  1.00  0.00     0.038 C 
BRANCH  15  16
ATOM     16  C   UNL     1       1.777  -2.327   6.962  1.00  0.00    -0.015 C 
ATOM     17  C   UNL     1       2.746  -3.502   6.800  1.00  0.00     0.007 C 
ATOM     18  C   UNL     1       0.605  -2.533   5.995  1.00  0.00     0.007 C 
ENDBRANCH  15  16
ENDBRANCH  14  15
BRANCH  14  19
ATOM     19  C   UNL     1       0.964   1.024   5.474  1.00  0.00     0.245 C 
ATOM     20  O   UNL     1       0.355   1.243   4.413  1.00  0.00    -0.272 OA
BRANCH  19  21
ATOM     21  N   UNL     1       0.767   1.870   6.551  1.00  0.00    -0.332 N 
ATOM     22  C   UNL     1       1.601   3.010   6.890  1.00  0.00     0.147 C 
BRANCH  21  23
ATOM     23  C   UNL     1      -0.386   1.594   7.452  1.00  0.00     0.178 C 
BRANCH  23  24
ATOM     24  C   UNL     1       0.000   1.167   8.882  1.00  0.00     0.070 C 
BRANCH  24  25
ATOM     25  C   UNL     1      -0.232  -0.278   9.256  1.00  0.00    -0.045 A 
ATOM     26  C   UNL     1      -1.308  -0.995   8.716  1.00  0.00     0.004 A 
ATOM     27  C   UNL     1       0.629  -0.923  10.156  1.00  0.00     0.004 A 
ATOM     28  C   UNL     1      -1.525  -2.326   9.079  1.00  0.00     0.000 A 
ATOM     29  C   UNL     1       0.410  -2.254  10.517  1.00  0.00     0.000 A 
ATOM     30  C   UNL     1      -0.668  -2.953   9.980  1.00  0.00     0.000 A 
ENDBRANCH  24  25
ENDBRANCH  23  24
BRANCH  23  31
ATOM     31  C   UNL     1      -1.488   2.677   7.370  1.00  0.00     0.243 C 
ATOM     32  O   UNL     1      -2.285   2.777   6.441  1.00  0.00    -0.273 OA
ATOM     33  N   UNL     1      -1.384   3.648   8.352  1.00  0.00    -0.341 N 
ATOM     34  H   UNL     1      -0.696   3.512   9.097  1.00  0.00     0.164 HD
BRANCH  33  35
ATOM     35  C   UNL     1      -2.246   4.832   8.399  1.00  0.00     0.194 C 
BRANCH  35  36
ATOM     36  C   UNL     1      -1.555   6.140   7.920  1.00  0.00     0.017 C 
ATOM     37  C   UNL     1      -1.495   6.211   6.384  1.00  0.00     0.010 C 
ATOM     38  C   UNL     1      -0.122   6.293   8.443  1.00  0.00     0.010 C 
ENDBRANCH  35  36
BRANCH  35  39
ATOM     39  C   UNL     1      -2.938   5.013   9.779  1.00  0.00     0.329 C 
ATOM     40  O   UNL     1      -2.362   4.902  10.855  1.00  0.00    -0.250 OA
BRANCH  39  41
ATOM     41  O   UNL     1      -4.245   5.397   9.659  1.00  0.00    -0.458 OA
BRANCH  41  42
ATOM     42  C   UNL     1      -5.104   5.110  10.789  1.00  0.00     0.205 CG0
ATOM     43  C   UNL     1      -6.435   5.816  10.538  1.00  0.00     0.056 C 
ATOM     44  G   UNL     1      -4.407   5.603  12.073  1.00  0.00     0.000 G0
ENDBRANCH  41  42
ENDBRANCH  39  41
ENDBRANCH  35  39
ENDBRANCH  33  35
ENDBRANCH  23  31
ENDBRANCH  21  23
ENDBRANCH  19  21
ENDBRANCH  14  19
ENDBRANCH   7  14
ENDBRANCH   2   5
BRANCH   3  45
ATOM     45  C   UNL     1       7.381  -3.019   1.680  1.00  0.00     0.171 C 
BRANCH  45  46
ATOM     46  N   UNL     1       8.113  -3.090   0.423  1.00  0.00    -0.342 N 
ATOM     47  C   UNL     1       9.273  -3.812   0.286  1.00  0.00     0.247 C 
ATOM     48  O   UNL     1       9.737  -4.508   1.189  1.00  0.00    -0.273 OA
ATOM     49  H   UNL     1       7.732  -2.573  -0.368  1.00  0.00     0.164 HD
BRANCH  47  50
ATOM     50  C   UNL     1       9.971  -3.668  -1.074  1.00  0.00     0.212 CG0
ATOM     51  G   UNL     1      11.149  -2.691  -0.894  1.00  0.00     0.000 G0
BRANCH  50  52
ATOM     52  N   UNL     1      10.391  -5.018  -1.441  1.00  0.00    -0.339 N 
ATOM     53  C   UNL     1      10.838  -5.356  -2.695  1.00  0.00     0.243 C 
ATOM     54  O   UNL     1      10.870  -4.554  -3.624  1.00  0.00    -0.273 OA
ATOM     55  H   UNL     1      10.283  -5.752  -0.744  1.00  0.00     0.164 HD
BRANCH  53  56
ATOM     56  C   UNL     1      11.143  -6.857  -2.869  1.00  0.00     0.182 C 
BRANCH  56  57
ATOM     57  N   UNL     1      10.176  -7.489  -3.772  1.00  0.00    -0.344 N 
ATOM     58  C   UNL     1       8.824  -7.262  -3.679  1.00  0.00     0.220 C 
ATOM     59  O   UNL     1       8.327  -6.576  -2.793  1.00  0.00    -0.275 OA
ATOM     60  H   UNL     1      10.552  -7.981  -4.578  1.00  0.00     0.164 HD
BRANCH  58  61
ATOM     61  C   UNL     1       8.020  -7.973  -4.751  1.00  0.00     0.100 C 
BRANCH  61  62
ATOM     62  C   UNL     1       8.065  -7.283  -6.115  1.00  0.00     0.010 C 
BRANCH  62  63
ATOM     63  C   UNL     1       7.117  -7.890  -7.157  1.00  0.00     0.000 C 
BRANCH  63  64
ATOM     64  C   UNL     1       6.182  -6.878  -7.818  1.00  0.00    -0.003 C 
ATOM     65  C   UNL     1       5.762  -5.790  -6.840  1.00  0.00     0.004 C 
ENDBRANCH  63  64
ENDBRANCH  62  63
ENDBRANCH  61  62
ENDBRANCH  58  61
ENDBRANCH  56  57
BRANCH  56  66
ATOM     66  C   UNL     1      11.226  -7.572  -1.521  1.00  0.00     0.157 C 
BRANCH  66  67
ATOM     67  C   UNL     1      11.070  -9.057  -1.682  1.00  0.00     0.305 C 
ATOM     68  O   UNL     1      10.121  -9.737  -1.324  1.00  0.00    -0.252 OA
BRANCH  67  69
ATOM     69  O   UNL     1      12.105  -9.611  -2.341  1.00  0.00    -0.481 OA
ATOM     70  H   UNL     1      12.242 -10.480  -1.907  1.00  0.00     0.296 HD
ENDBRANCH  67  69
ENDBRANCH  66  67
ENDBRANCH  56  66
ENDBRANCH  53  56
ENDBRANCH  50  52
ENDBRANCH  47  50
ENDBRANCH  45  46
BRANCH  45  71
ATOM     71  C   UNL     1       6.574  -4.297   1.937  1.00  0.00     0.037 C 
BRANCH  71  72
ATOM     72  C   UNL     1       5.928  -4.837   0.659  1.00  0.00     0.026 C 
BRANCH  72  73
ATOM     73  C   UNL     1       4.423  -5.032   0.830  1.00  0.00     0.146 C 
BRANCH  73  74
ATOM     74  N   UNL     1       3.793  -3.717   0.767  1.00  0.00    -0.254 NA
ATOM     75  C   UNL     1       2.514  -3.669   0.693  1.00  0.00     0.185 C 
ATOM     76  N   UNL     1       1.905  -2.473   0.635  1.00  0.00    -0.370 N 
ATOM     77  N   UNL     1       1.631  -4.682   0.663  1.00  0.00    -0.370 N 
ATOM     78  H   UNL     1       2.498  -1.656   0.645  1.00  0.00     0.159 HD
ATOM     79  H   UNL     1       0.927  -2.359   0.431  1.00  0.00     0.159 HD
ATOM     80  H   UNL     1       1.946  -5.639   0.704  1.00  0.00     0.159 HD
ATOM     81  H   UNL     1       0.639  -4.520   0.721  1.00  0.00     0.159 HD
ENDBRANCH  73  74
ENDBRANCH  72  73
ENDBRANCH  71  72
ENDBRANCH  45  71
ENDBRANCH   3  45
TORSDOF 20
ENDMDL
MODEL 42
REMARK VINA RESULT:    -5.349      2.707      6.706
REMARK INTER + INTRA:         -23.420
REMARK INTER:                 -17.724
REMARK INTRA:                  -5.696
REMARK UNBOUND:                -8.064
REMARK SMILES CCCCCC(=O)N[C@H](CC(=O)O)C(=O)N[C@H]1C(=O)N[C@H](CCCN=C(N)N)C(=O)N[C@@H]2CC[C@H](O)N(C2=O)[C@@H](CC(C)C)C(=O)N(C)[C@@H](Cc2ccccc2)C(=O)N[C@H](C(C)C)C(=O)O[C@@H]1C
REMARK SMILES IDX 30 1 31 2 29 3 32 5 35 6 37 7 34 8 38 9 33 10 39 11 36 12
REMARK SMILES IDX 40 14 41 15 42 16 43 17 44 18 45 19 46 20 47 21 48 22 49 23
REMARK SMILES IDX 50 24 51 25 52 26 56 27 53 28 55 29 54 30 57 31 58 32 59 33
REMARK SMILES IDX 60 35 61 36 62 37 63 38 64 39 65 40 66 41 67 42 68 43 21 45
REMARK SMILES IDX 20 46 18 47 19 48 17 50 16 52 14 53 15 54 9 56 8 57 6 58
REMARK SMILES IDX 7 59 5 61 4 62 3 63 2 64 1 65 10 66 11 67 12 68 13 69 22 71
REMARK SMILES IDX 23 72 24 73 25 74 26 75 27 76 28 77
REMARK H PARENT 31 4 36 13 59 34 20 49 16 55 8 60 13 70 27 78 27 79 28 80
REMARK H PARENT 28 81
REMARK Flexibility Score:  259.900
ROOT
ATOM      1  O   UNL     1       2.021  -5.478   2.572  1.00  0.00    -0.273 OA
ATOM      2  N   UNL     1       1.241  -3.684   1.387  1.00  0.00    -0.343 N 
ATOM      3  C   UNL     1       2.036  -4.799   1.545  1.00  0.00     0.243 C 
ATOM      4  H   UNL     1       1.268  -3.158   0.523  1.00  0.00     0.164 HD
ENDROOT
BRANCH   2   5
ATOM      5  C   UNL     1       0.426  -3.192   2.492  1.00  0.00     0.171 C 
ATOM      6  C   UNL     1      -1.356  -0.920   2.758  1.00  0.00     0.214 C 
ATOM      7  N   UNL     1       0.037  -0.775   3.109  1.00  0.00    -0.303 N 
ATOM      8  C   UNL     1      -1.887  -2.329   2.974  1.00  0.00     0.057 C 
ATOM      9  C   UNL     1       0.953  -1.804   2.958  1.00  0.00     0.247 C 
ATOM     10  C   UNL     1      -1.063  -3.315   2.173  1.00  0.00     0.040 C 
ATOM     11  O   UNL     1       2.160  -1.645   3.178  1.00  0.00    -0.272 OA
BRANCH   6  12
ATOM     12  O   UNL     1      -1.503  -0.540   1.410  1.00  0.00    -0.373 OA
ATOM     13  H   UNL     1      -2.372  -0.880   1.108  1.00  0.00     0.213 HD
ENDBRANCH   6  12
BRANCH   7  14
ATOM     14  C   UNL     1       0.492   0.576   3.504  1.00  0.00     0.177 C 
BRANCH  14  15
ATOM     15  C   UNL     1       0.269   1.677   2.449  1.00  0.00     0.038 C 
BRANCH  15  16
ATOM     16  C   UNL     1       1.181   2.924   2.447  1.00  0.00    -0.015 C 
ATOM     17  C   UNL     1       0.745   3.968   3.479  1.00  0.00     0.007 C 
ATOM     18  C   UNL     1       1.158   3.581   1.061  1.00  0.00     0.007 C 
ENDBRANCH  15  16
ENDBRANCH  14  15
BRANCH  14  19
ATOM     19  C   UNL     1       0.356   0.763   5.054  1.00  0.00     0.245 C 
ATOM     20  O   UNL     1      -0.791   0.693   5.527  1.00  0.00    -0.272 OA
BRANCH  19  21
ATOM     21  N   UNL     1       1.407   1.108   5.884  1.00  0.00    -0.332 N 
ATOM     22  C   UNL     1       2.792   1.257   5.473  1.00  0.00     0.147 C 
BRANCH  21  23
ATOM     23  C   UNL     1       1.110   1.336   7.325  1.00  0.00     0.178 C 
BRANCH  23  24
ATOM     24  C   UNL     1       1.923   0.458   8.299  1.00  0.00     0.070 C 
BRANCH  24  25
ATOM     25  C   UNL     1       1.684  -1.033   8.245  1.00  0.00    -0.045 A 
ATOM     26  C   UNL     1       0.683  -1.628   9.023  1.00  0.00     0.004 A 
ATOM     27  C   UNL     1       2.469  -1.845   7.413  1.00  0.00     0.004 A 
ATOM     28  C   UNL     1       0.480  -3.009   8.980  1.00  0.00     0.000 A 
ATOM     29  C   UNL     1       2.264  -3.225   7.370  1.00  0.00     0.000 A 
ATOM     30  C   UNL     1       1.272  -3.806   8.156  1.00  0.00     0.000 A 
ENDBRANCH  24  25
ENDBRANCH  23  24
BRANCH  23  31
ATOM     31  C   UNL     1       1.047   2.836   7.698  1.00  0.00     0.243 C 
ATOM     32  O   UNL     1       0.077   3.558   7.482  1.00  0.00    -0.273 OA
ATOM     33  N   UNL     1       2.257   3.349   8.134  1.00  0.00    -0.341 N 
ATOM     34  H   UNL     1       3.032   2.699   8.290  1.00  0.00     0.164 HD
BRANCH  33  35
ATOM     35  C   UNL     1       2.463   4.770   8.429  1.00  0.00     0.194 C 
BRANCH  35  36
ATOM     36  C   UNL     1       3.674   5.403   7.688  1.00  0.00     0.017 C 
ATOM     37  C   UNL     1       3.995   4.644   6.389  1.00  0.00     0.010 C 
ATOM     38  C   UNL     1       4.954   5.427   8.533  1.00  0.00     0.010 C 
ENDBRANCH  35  36
BRANCH  35  39
ATOM     39  C   UNL     1       2.497   5.065   9.954  1.00  0.00     0.329 C 
ATOM     40  O   UNL     1       3.029   4.336  10.783  1.00  0.00    -0.250 OA
BRANCH  39  41
ATOM     41  O   UNL     1       1.940   6.276  10.262  1.00  0.00    -0.458 OA
BRANCH  41  42
ATOM     42  C   UNL     1       2.793   7.215  10.958  1.00  0.00     0.205 CG0
ATOM     43  C   UNL     1       2.163   7.474  12.326  1.00  0.00     0.056 C 
ATOM     44  G   UNL     1       2.908   8.498  10.110  1.00  0.00     0.000 G0
ENDBRANCH  41  42
ENDBRANCH  39  41
ENDBRANCH  35  39
ENDBRANCH  33  35
ENDBRANCH  23  31
ENDBRANCH  21  23
ENDBRANCH  19  21
ENDBRANCH  14  19
ENDBRANCH   7  14
ENDBRANCH   2   5
BRANCH   3  45
ATOM     45  C   UNL     1       2.925  -5.147   0.344  1.00  0.00     0.171 C 
BRANCH  45  46
ATOM     46  N   UNL     1       2.778  -6.583   0.147  1.00  0.00    -0.342 N 
ATOM     47  C   UNL     1       2.218  -7.117  -0.986  1.00  0.00     0.247 C 
ATOM     48  O   UNL     1       1.869  -6.430  -1.947  1.00  0.00    -0.273 OA
ATOM     49  H   UNL     1       3.106  -7.191   0.895  1.00  0.00     0.164 HD
BRANCH  47  50
ATOM     50  C   UNL     1       2.032  -8.641  -0.963  1.00  0.00     0.212 CG0
ATOM     51  G   UNL     1       3.361  -9.267  -0.497  1.00  0.00     0.000 G0
BRANCH  50  52
ATOM     52  N   UNL     1       0.925  -8.884  -0.042  1.00  0.00    -0.339 N 
ATOM     53  C   UNL     1      -0.396  -8.780  -0.404  1.00  0.00     0.243 C 
ATOM     54  O   UNL     1      -0.750  -8.422  -1.524  1.00  0.00    -0.273 OA
ATOM     55  H   UNL     1       1.153  -9.076   0.932  1.00  0.00     0.164 HD
BRANCH  53  56
ATOM     56  C   UNL     1      -1.385  -8.997   0.760  1.00  0.00     0.182 C 
BRANCH  56  57
ATOM     57  N   UNL     1      -1.063  -8.125   1.893  1.00  0.00    -0.344 N 
ATOM     58  C   UNL     1      -1.928  -7.158   2.346  1.00  0.00     0.220 C 
ATOM     59  O   UNL     1      -2.993  -6.908   1.792  1.00  0.00    -0.275 OA
ATOM     60  H   UNL     1      -0.241  -8.365   2.441  1.00  0.00     0.164 HD
BRANCH  58  61
ATOM     61  C   UNL     1      -1.414  -6.415   3.565  1.00  0.00     0.100 C 
BRANCH  61  62
ATOM     62  C   UNL     1      -0.568  -7.278   4.502  1.00  0.00     0.010 C 
BRANCH  62  63
ATOM     63  C   UNL     1       0.412  -6.482   5.374  1.00  0.00     0.000 C 
BRANCH  63  64
ATOM     64  C   UNL     1       0.772  -7.164   6.693  1.00  0.00    -0.003 C 
ATOM     65  C   UNL     1       0.750  -8.680   6.558  1.00  0.00     0.004 C 
ENDBRANCH  63  64
ENDBRANCH  62  63
ENDBRANCH  61  62
ENDBRANCH  58  61
ENDBRANCH  56  57
BRANCH  56  66
ATOM     66  C   UNL     1      -1.456 -10.468   1.167  1.00  0.00     0.157 C 
BRANCH  66  67
ATOM     67  C   UNL     1      -2.271 -10.648   2.415  1.00  0.00     0.305 C 
ATOM     68  O   UNL     1      -3.483 -10.780   2.486  1.00  0.00    -0.252 OA
BRANCH  67  69
ATOM     69  O   UNL     1      -1.506 -10.705   3.522  1.00  0.00    -0.481 OA
ATOM     70  H   UNL     1      -2.144 -10.757   4.265  1.00  0.00     0.296 HD
ENDBRANCH  67  69
ENDBRANCH  66  67
ENDBRANCH  56  66
ENDBRANCH  53  56
ENDBRANCH  50  52
ENDBRANCH  47  50
ENDBRANCH  45  46
BRANCH  45  71
ATOM     71  C   UNL     1       4.381  -4.762   0.628  1.00  0.00     0.037 C 
BRANCH  71  72
ATOM     72  C   UNL     1       4.697  -3.332   0.180  1.00  0.00     0.026 C 
BRANCH  72  73
ATOM     73  C   UNL     1       4.931  -2.410   1.374  1.00  0.00     0.146 C 
BRANCH  73  74
ATOM     74  N   UNL     1       5.044  -3.243   2.567  1.00  0.00    -0.254 NA
ATOM     75  C   UNL     1       5.995  -2.989   3.388  1.00  0.00     0.185 C 
ATOM     76  N   UNL     1       6.125  -3.737   4.495  1.00  0.00    -0.370 N 
ATOM     77  N   UNL     1       6.942  -2.036   3.315  1.00  0.00    -0.370 N 
ATOM     78  H   UNL     1       5.456  -4.483   4.624  1.00  0.00     0.159 HD
ATOM     79  H   UNL     1       6.923  -3.692   5.104  1.00  0.00     0.159 HD
ATOM     80  H   UNL     1       6.966  -1.395   2.537  1.00  0.00     0.159 HD
ATOM     81  H   UNL     1       7.571  -1.857   4.080  1.00  0.00     0.159 HD
ENDBRANCH  73  74
ENDBRANCH  72  73
ENDBRANCH  71  72
ENDBRANCH  45  71
ENDBRANCH   3  45
TORSDOF 20
ENDMDL
MODEL 43
REMARK VINA RESULT:    -5.342      6.056     10.375
REMARK INTER + INTRA:         -23.400
REMARK INTER:                 -17.161
REMARK INTRA:                  -6.240
REMARK UNBOUND:                -8.064
REMARK SMILES CCCCCC(=O)N[C@H](CC(=O)O)C(=O)N[C@H]1C(=O)N[C@H](CCCN=C(N)N)C(=O)N[C@@H]2CC[C@H](O)N(C2=O)[C@@H](CC(C)C)C(=O)N(C)[C@@H](Cc2ccccc2)C(=O)N[C@H](C(C)C)C(=O)O[C@@H]1C
REMARK SMILES IDX 30 1 31 2 29 3 32 5 35 6 37 7 34 8 38 9 33 10 39 11 36 12
REMARK SMILES IDX 40 14 41 15 42 16 43 17 44 18 45 19 46 20 47 21 48 22 49 23
REMARK SMILES IDX 50 24 51 25 52 26 56 27 53 28 55 29 54 30 57 31 58 32 59 33
REMARK SMILES IDX 60 35 61 36 62 37 63 38 64 39 65 40 66 41 67 42 68 43 21 45
REMARK SMILES IDX 20 46 18 47 19 48 17 50 16 52 14 53 15 54 9 56 8 57 6 58
REMARK SMILES IDX 7 59 5 61 4 62 3 63 2 64 1 65 10 66 11 67 12 68 13 69 22 71
REMARK SMILES IDX 23 72 24 73 25 74 26 75 27 76 28 77
REMARK H PARENT 31 4 36 13 59 34 20 49 16 55 8 60 13 70 27 78 27 79 28 80
REMARK H PARENT 28 81
REMARK Flexibility Score:  259.900
ROOT
ATOM      1  O   UNL     1       2.188  -0.197   3.727  1.00  0.00    -0.273 OA
ATOM      2  N   UNL     1       2.396   0.258   1.495  1.00  0.00    -0.343 N 
ATOM      3  C   UNL     1       2.225  -0.597   2.563  1.00  0.00     0.243 C 
ATOM      4  H   UNL     1       2.407  -0.105   0.550  1.00  0.00     0.164 HD
ENDROOT
BRANCH   2   5
ATOM      5  C   UNL     1       2.662   1.676   1.715  1.00  0.00     0.171 C 
ATOM      6  C   UNL     1       2.782   3.952  -0.077  1.00  0.00     0.214 C 
ATOM      7  N   UNL     1       3.986   3.205   0.205  1.00  0.00    -0.303 N 
ATOM      8  C   UNL     1       1.786   3.943   1.072  1.00  0.00     0.057 C 
ATOM      9  C   UNL     1       3.989   2.078   1.011  1.00  0.00     0.247 C 
ATOM     10  C   UNL     1       1.421   2.518   1.423  1.00  0.00     0.040 C 
ATOM     11  O   UNL     1       5.008   1.395   1.178  1.00  0.00    -0.272 OA
BRANCH   6  12
ATOM     12  O   UNL     1       2.199   3.406  -1.238  1.00  0.00    -0.373 OA
ATOM     13  H   UNL     1       2.121   2.439  -1.093  1.00  0.00     0.213 HD
ENDBRANCH   6  12
BRANCH   7  14
ATOM     14  C   UNL     1       5.209   3.605  -0.523  1.00  0.00     0.177 C 
BRANCH  14  15
ATOM     15  C   UNL     1       5.101   3.559  -2.060  1.00  0.00     0.038 C 
BRANCH  15  16
ATOM     16  C   UNL     1       5.515   2.275  -2.813  1.00  0.00    -0.015 C 
ATOM     17  C   UNL     1       4.325   1.353  -3.094  1.00  0.00     0.007 C 
ATOM     18  C   UNL     1       6.543   1.495  -1.983  1.00  0.00     0.007 C 
ENDBRANCH  15  16
ENDBRANCH  14  15
BRANCH  14  19
ATOM     19  C   UNL     1       6.005   4.676   0.298  1.00  0.00     0.245 C 
ATOM     20  O   UNL     1       5.481   5.797   0.413  1.00  0.00    -0.272 OA
BRANCH  19  21
ATOM     21  N   UNL     1       7.282   4.476   0.793  1.00  0.00    -0.332 N 
ATOM     22  C   UNL     1       7.617   3.685   1.964  1.00  0.00     0.147 C 
BRANCH  21  23
ATOM     23  C   UNL     1       8.415   5.130   0.082  1.00  0.00     0.178 C 
BRANCH  23  24
ATOM     24  C   UNL     1       8.193   5.338  -1.431  1.00  0.00     0.070 C 
BRANCH  24  25
ATOM     25  C   UNL     1       8.813   4.322  -2.363  1.00  0.00    -0.045 A 
ATOM     26  C   UNL     1       9.748   3.392  -1.891  1.00  0.00     0.004 A 
ATOM     27  C   UNL     1       8.461   4.301  -3.721  1.00  0.00     0.004 A 
ATOM     28  C   UNL     1      10.329   2.468  -2.762  1.00  0.00     0.000 A 
ATOM     29  C   UNL     1       9.041   3.376  -4.590  1.00  0.00     0.000 A 
ATOM     30  C   UNL     1       9.977   2.462  -4.110  1.00  0.00     0.000 A 
ENDBRANCH  24  25
ENDBRANCH  23  24
BRANCH  23  31
ATOM     31  C   UNL     1       8.969   6.363   0.834  1.00  0.00     0.243 C 
ATOM     32  O   UNL     1       8.374   6.939   1.742  1.00  0.00    -0.273 OA
ATOM     33  N   UNL     1      10.122   6.883   0.271  1.00  0.00    -0.341 N 
ATOM     34  H   UNL     1      10.569   6.361  -0.487  1.00  0.00     0.164 HD
BRANCH  33  35
ATOM     35  C   UNL     1      10.757   8.116   0.744  1.00  0.00     0.194 C 
BRANCH  35  36
ATOM     36  C   UNL     1      10.782   9.261  -0.308  1.00  0.00     0.017 C 
ATOM     37  C   UNL     1       9.746  10.349   0.024  1.00  0.00     0.010 C 
ATOM     38  C   UNL     1      10.496   8.777  -1.735  1.00  0.00     0.010 C 
ENDBRANCH  35  36
BRANCH  35  39
ATOM     39  C   UNL     1      12.160   7.867   1.364  1.00  0.00     0.329 C 
ATOM     40  O   UNL     1      12.410   6.965   2.155  1.00  0.00    -0.250 OA
BRANCH  39  41
ATOM     41  O   UNL     1      13.109   8.713   0.860  1.00  0.00    -0.458 OA
BRANCH  41  42
ATOM     42  C   UNL     1      13.892   9.448   1.831  1.00  0.00     0.205 CG0
ATOM     43  C   UNL     1      12.977  10.505   2.446  1.00  0.00     0.056 C 
ATOM     44  G   UNL     1      15.109  10.067   1.114  1.00  0.00     0.000 G0
ENDBRANCH  41  42
ENDBRANCH  39  41
ENDBRANCH  35  39
ENDBRANCH  33  35
ENDBRANCH  23  31
ENDBRANCH  21  23
ENDBRANCH  19  21
ENDBRANCH  14  19
ENDBRANCH   7  14
ENDBRANCH   2   5
BRANCH   3  45
ATOM     45  C   UNL     1       2.063  -2.079   2.199  1.00  0.00     0.171 C 
BRANCH  45  46
ATOM     46  N   UNL     1       0.820  -2.505   2.827  1.00  0.00    -0.342 N 
ATOM     47  C   UNL     1       0.106  -3.591   2.386  1.00  0.00     0.247 C 
ATOM     48  O   UNL     1       0.499  -4.325   1.478  1.00  0.00    -0.273 OA
ATOM     49  H   UNL     1       0.487  -1.958   3.619  1.00  0.00     0.164 HD
BRANCH  47  50
ATOM     50  C   UNL     1      -1.240  -3.814   3.090  1.00  0.00     0.212 CG0
ATOM     51  G   UNL     1      -2.342  -3.219   2.190  1.00  0.00     0.000 G0
BRANCH  50  52
ATOM     52  N   UNL     1      -1.354  -5.259   3.263  1.00  0.00    -0.339 N 
ATOM     53  C   UNL     1      -0.924  -5.922   4.387  1.00  0.00     0.243 C 
ATOM     54  O   UNL     1      -0.357  -5.352   5.315  1.00  0.00    -0.273 OA
ATOM     55  H   UNL     1      -1.714  -5.802   2.481  1.00  0.00     0.164 HD
BRANCH  53  56
ATOM     56  C   UNL     1      -1.070  -7.455   4.305  1.00  0.00     0.182 C 
BRANCH  56  57
ATOM     57  N   UNL     1      -2.211  -7.918   5.101  1.00  0.00    -0.344 N 
ATOM     58  C   UNL     1      -3.505  -7.840   4.647  1.00  0.00     0.220 C 
ATOM     59  O   UNL     1      -3.803  -7.314   3.580  1.00  0.00    -0.275 OA
ATOM     60  H   UNL     1      -2.001  -8.451   5.941  1.00  0.00     0.164 HD
BRANCH  58  61
ATOM     61  C   UNL     1      -4.518  -8.431   5.610  1.00  0.00     0.100 C 
BRANCH  61  62
ATOM     62  C   UNL     1      -4.295  -9.915   5.904  1.00  0.00     0.010 C 
BRANCH  62  63
ATOM     63  C   UNL     1      -4.274 -10.806   4.655  1.00  0.00     0.000 C 
BRANCH  63  64
ATOM     64  C   UNL     1      -5.630 -11.411   4.294  1.00  0.00    -0.003 C 
ATOM     65  C   UNL     1      -5.516 -12.904   4.022  1.00  0.00     0.004 C 
ENDBRANCH  63  64
ENDBRANCH  62  63
ENDBRANCH  61  62
ENDBRANCH  58  61
ENDBRANCH  56  57
BRANCH  56  66
ATOM     66  C   UNL     1       0.228  -8.163   4.692  1.00  0.00     0.157 C 
BRANCH  66  67
ATOM     67  C   UNL     1       0.133  -8.759   6.067  1.00  0.00     0.305 C 
ATOM     68  O   UNL     1      -0.085  -9.928   6.345  1.00  0.00    -0.252 OA
BRANCH  67  69
ATOM     69  O   UNL     1       0.372  -7.854   7.035  1.00  0.00    -0.481 OA
ATOM     70  H   UNL     1       0.441  -8.381   7.859  1.00  0.00     0.296 HD
ENDBRANCH  67  69
ENDBRANCH  66  67
ENDBRANCH  56  66
ENDBRANCH  53  56
ENDBRANCH  50  52
ENDBRANCH  47  50
ENDBRANCH  45  46
BRANCH  45  71
ATOM     71  C   UNL     1       3.261  -2.888   2.708  1.00  0.00     0.037 C 
BRANCH  71  72
ATOM     72  C   UNL     1       3.927  -3.695   1.591  1.00  0.00     0.026 C 
BRANCH  72  73
ATOM     73  C   UNL     1       5.441  -3.497   1.583  1.00  0.00     0.146 C 
BRANCH  73  74
ATOM     74  N   UNL     1       5.705  -2.063   1.643  1.00  0.00    -0.254 NA
ATOM     75  C   UNL     1       6.843  -1.681   2.092  1.00  0.00     0.185 C 
ATOM     76  N   UNL     1       7.115  -0.368   2.158  1.00  0.00    -0.370 N 
ATOM     77  N   UNL     1       7.870  -2.427   2.534  1.00  0.00    -0.370 N 
ATOM     78  H   UNL     1       6.391   0.266   1.851  1.00  0.00     0.159 HD
ATOM     79  H   UNL     1       7.920   0.008   2.629  1.00  0.00     0.159 HD
ATOM     80  H   UNL     1       7.809  -3.434   2.539  1.00  0.00     0.159 HD
ATOM     81  H   UNL     1       8.763  -2.018   2.756  1.00  0.00     0.159 HD
ENDBRANCH  73  74
ENDBRANCH  72  73
ENDBRANCH  71  72
ENDBRANCH  45  71
ENDBRANCH   3  45
TORSDOF 20
ENDMDL
MODEL 44
REMARK VINA RESULT:    -5.332      4.320     11.574
REMARK INTER + INTRA:         -23.370
REMARK INTER:                 -17.977
REMARK INTRA:                  -5.393
REMARK UNBOUND:                -8.064
REMARK SMILES CCCCCC(=O)N[C@H](CC(=O)O)C(=O)N[C@H]1C(=O)N[C@H](CCCN=C(N)N)C(=O)N[C@@H]2CC[C@H](O)N(C2=O)[C@@H](CC(C)C)C(=O)N(C)[C@@H](Cc2ccccc2)C(=O)N[C@H](C(C)C)C(=O)O[C@@H]1C
REMARK SMILES IDX 30 1 31 2 29 3 32 5 35 6 37 7 34 8 38 9 33 10 39 11 36 12
REMARK SMILES IDX 40 14 41 15 42 16 43 17 44 18 45 19 46 20 47 21 48 22 49 23
REMARK SMILES IDX 50 24 51 25 52 26 56 27 53 28 55 29 54 30 57 31 58 32 59 33
REMARK SMILES IDX 60 35 61 36 62 37 63 38 64 39 65 40 66 41 67 42 68 43 21 45
REMARK SMILES IDX 20 46 18 47 19 48 17 50 16 52 14 53 15 54 9 56 8 57 6 58
REMARK SMILES IDX 7 59 5 61 4 62 3 63 2 64 1 65 10 66 11 67 12 68 13 69 22 71
REMARK SMILES IDX 23 72 24 73 25 74 26 75 27 76 28 77
REMARK H PARENT 31 4 36 13 59 34 20 49 16 55 8 60 13 70 27 78 27 79 28 80
REMARK H PARENT 28 81
REMARK Flexibility Score:  259.900
ROOT
ATOM      1  O   UNL     1       1.868  -0.089  -0.345  1.00  0.00    -0.273 OA
ATOM      2  N   UNL     1       1.407   0.060   1.891  1.00  0.00    -0.343 N 
ATOM      3  C   UNL     1       2.069   0.447   0.745  1.00  0.00     0.243 C 
ATOM      4  H   UNL     1       1.588   0.534   2.767  1.00  0.00     0.164 HD
ENDROOT
BRANCH   2   5
ATOM      5  C   UNL     1       0.517  -1.096   1.878  1.00  0.00     0.171 C 
ATOM      6  C   UNL     1      -1.042  -2.396   3.948  1.00  0.00     0.214 C 
ATOM      7  N   UNL     1       0.305  -2.846   3.685  1.00  0.00    -0.303 N 
ATOM      8  C   UNL     1      -1.737  -1.826   2.721  1.00  0.00     0.057 C 
ATOM      9  C   UNL     1       1.121  -2.236   2.747  1.00  0.00     0.247 C 
ATOM     10  C   UNL     1      -0.926  -0.679   2.159  1.00  0.00     0.040 C 
ATOM     11  O   UNL     1       2.302  -2.572   2.588  1.00  0.00    -0.272 OA
BRANCH   6  12
ATOM     12  O   UNL     1      -0.981  -1.430   4.972  1.00  0.00    -0.373 OA
ATOM     13  H   UNL     1      -0.226  -1.671   5.550  1.00  0.00     0.213 HD
ENDBRANCH   6  12
BRANCH   7  14
ATOM     14  C   UNL     1       0.843  -3.903   4.568  1.00  0.00     0.177 C 
BRANCH  14  15
ATOM     15  C   UNL     1       0.497  -3.749   6.062  1.00  0.00     0.038 C 
BRANCH  15  16
ATOM     16  C   UNL     1       1.637  -3.629   7.098  1.00  0.00    -0.015 C 
ATOM     17  C   UNL     1       1.113  -3.527   8.533  1.00  0.00     0.007 C 
ATOM     18  C   UNL     1       2.477  -2.380   6.803  1.00  0.00     0.007 C 
ENDBRANCH  15  16
ENDBRANCH  14  15
BRANCH  14  19
ATOM     19  C   UNL     1       0.934  -5.263   3.794  1.00  0.00     0.245 C 
ATOM     20  O   UNL     1       1.928  -5.972   4.025  1.00  0.00    -0.272 OA
BRANCH  19  21
ATOM     21  N   UNL     1       0.045  -5.650   2.807  1.00  0.00    -0.332 N 
ATOM     22  C   UNL     1       0.372  -5.843   1.406  1.00  0.00     0.147 C 
BRANCH  21  23
ATOM     23  C   UNL     1      -1.373  -5.881   3.200  1.00  0.00     0.178 C 
BRANCH  23  24
ATOM     24  C   UNL     1      -2.305  -6.292   2.042  1.00  0.00     0.070 C 
BRANCH  24  25
ATOM     25  C   UNL     1      -3.080  -7.579   2.207  1.00  0.00    -0.045 A 
ATOM     26  C   UNL     1      -2.773  -8.705   1.432  1.00  0.00     0.004 A 
ATOM     27  C   UNL     1      -4.125  -7.661   3.139  1.00  0.00     0.004 A 
ATOM     28  C   UNL     1      -3.506  -9.886   1.578  1.00  0.00     0.000 A 
ATOM     29  C   UNL     1      -4.855  -8.842   3.284  1.00  0.00     0.000 A 
ATOM     30  C   UNL     1      -4.546  -9.953   2.502  1.00  0.00     0.000 A 
ENDBRANCH  24  25
ENDBRANCH  23  24
BRANCH  23  31
ATOM     31  C   UNL     1      -1.513  -6.734   4.484  1.00  0.00     0.243 C 
ATOM     32  O   UNL     1      -2.065  -6.346   5.510  1.00  0.00    -0.273 OA
ATOM     33  N   UNL     1      -0.794  -7.916   4.443  1.00  0.00    -0.341 N 
ATOM     34  H   UNL     1      -0.350  -8.184   3.561  1.00  0.00     0.164 HD
BRANCH  33  35
ATOM     35  C   UNL     1      -0.683  -8.824   5.588  1.00  0.00     0.194 C 
BRANCH  35  36
ATOM     36  C   UNL     1       0.765  -8.991   6.129  1.00  0.00     0.017 C 
ATOM     37  C   UNL     1       1.188  -7.778   6.976  1.00  0.00     0.010 C 
ATOM     38  C   UNL     1       1.809  -9.161   5.018  1.00  0.00     0.010 C 
ENDBRANCH  35  36
BRANCH  35  39
ATOM     39  C   UNL     1      -1.368 -10.196   5.332  1.00  0.00     0.329 C 
ATOM     40  O   UNL     1      -1.502 -10.699   4.222  1.00  0.00    -0.250 OA
BRANCH  39  41
ATOM     41  O   UNL     1      -1.729 -10.822   6.493  1.00  0.00    -0.458 OA
BRANCH  41  42
ATOM     42  C   UNL     1      -2.935 -11.621   6.442  1.00  0.00     0.205 CG0
ATOM     43  C   UNL     1      -4.117 -10.671   6.624  1.00  0.00     0.056 C 
ATOM     44  G   UNL     1      -2.862 -12.691   7.550  1.00  0.00     0.000 G0
ENDBRANCH  41  42
ENDBRANCH  39  41
ENDBRANCH  35  39
ENDBRANCH  33  35
ENDBRANCH  23  31
ENDBRANCH  21  23
ENDBRANCH  19  21
ENDBRANCH  14  19
ENDBRANCH   7  14
ENDBRANCH   2   5
BRANCH   3  45
ATOM     45  C   UNL     1       3.059   1.607   0.919  1.00  0.00     0.171 C 
BRANCH  45  46
ATOM     46  N   UNL     1       3.486   1.965  -0.427  1.00  0.00    -0.342 N 
ATOM     47  C   UNL     1       3.444   3.255  -0.894  1.00  0.00     0.247 C 
ATOM     48  O   UNL     1       3.115   4.210  -0.190  1.00  0.00    -0.273 OA
ATOM     49  H   UNL     1       3.820   1.212  -1.026  1.00  0.00     0.164 HD
BRANCH  47  50
ATOM     50  C   UNL     1       3.814   3.423  -2.375  1.00  0.00     0.212 CG0
ATOM     51  G   UNL     1       4.193   4.901  -2.597  1.00  0.00     0.000 G0
BRANCH  50  52
ATOM     52  N   UNL     1       4.924   2.502  -2.606  1.00  0.00    -0.339 N 
ATOM     53  C   UNL     1       6.147   2.898  -3.090  1.00  0.00     0.243 C 
ATOM     54  O   UNL     1       6.384   4.057  -3.419  1.00  0.00    -0.273 OA
ATOM     55  H   UNL     1       4.753   1.509  -2.457  1.00  0.00     0.164 HD
BRANCH  53  56
ATOM     56  C   UNL     1       7.131   1.737  -3.334  1.00  0.00     0.182 C 
BRANCH  56  57
ATOM     57  N   UNL     1       6.762   0.559  -2.542  1.00  0.00    -0.344 N 
ATOM     58  C   UNL     1       6.633  -0.691  -3.099  1.00  0.00     0.220 C 
ATOM     59  O   UNL     1       6.746  -0.896  -4.302  1.00  0.00    -0.275 OA
ATOM     60  H   UNL     1       6.760   0.665  -1.531  1.00  0.00     0.164 HD
BRANCH  58  61
ATOM     61  C   UNL     1       6.302  -1.770  -2.084  1.00  0.00     0.100 C 
BRANCH  61  62
ATOM     62  C   UNL     1       7.447  -2.751  -1.833  1.00  0.00     0.010 C 
BRANCH  62  63
ATOM     63  C   UNL     1       8.753  -2.089  -1.374  1.00  0.00     0.000 C 
BRANCH  63  64
ATOM     64  C   UNL     1       9.926  -2.285  -2.333  1.00  0.00    -0.003 C 
ATOM     65  C   UNL     1      10.567  -0.956  -2.705  1.00  0.00     0.004 C 
ENDBRANCH  63  64
ENDBRANCH  62  63
ENDBRANCH  61  62
ENDBRANCH  58  61
ENDBRANCH  56  57
BRANCH  56  66
ATOM     66  C   UNL     1       8.576   2.167  -3.087  1.00  0.00     0.157 C 
BRANCH  66  67
ATOM     67  C   UNL     1       8.842   2.367  -1.623  1.00  0.00     0.305 C 
ATOM     68  O   UNL     1       8.630   1.568  -0.724  1.00  0.00    -0.252 OA
BRANCH  67  69
ATOM     69  O   UNL     1       9.417   3.557  -1.365  1.00  0.00    -0.481 OA
ATOM     70  H   UNL     1      10.376   3.364  -1.302  1.00  0.00     0.296 HD
ENDBRANCH  67  69
ENDBRANCH  66  67
ENDBRANCH  56  66
ENDBRANCH  53  56
ENDBRANCH  50  52
ENDBRANCH  47  50
ENDBRANCH  45  46
BRANCH  45  71
ATOM     71  C   UNL     1       4.242   1.174   1.791  1.00  0.00     0.037 C 
BRANCH  71  72
ATOM     72  C   UNL     1       4.774  -0.206   1.395  1.00  0.00     0.026 C 
BRANCH  72  73
ATOM     73  C   UNL     1       6.261  -0.347   1.716  1.00  0.00     0.146 C 
BRANCH  73  74
ATOM     74  N   UNL     1       6.617  -1.755   1.574  1.00  0.00    -0.254 NA
ATOM     75  C   UNL     1       6.804  -2.436   2.643  1.00  0.00     0.185 C 
ATOM     76  N   UNL     1       7.132  -3.735   2.545  1.00  0.00    -0.370 N 
ATOM     77  N   UNL     1       6.720  -2.038   3.924  1.00  0.00    -0.370 N 
ATOM     78  H   UNL     1       7.224  -4.114   1.613  1.00  0.00     0.159 HD
ATOM     79  H   UNL     1       7.434  -4.290   3.326  1.00  0.00     0.159 HD
ATOM     80  H   UNL     1       6.477  -1.085   4.151  1.00  0.00     0.159 HD
ATOM     81  H   UNL     1       6.776  -2.693   4.686  1.00  0.00     0.159 HD
ENDBRANCH  73  74
ENDBRANCH  72  73
ENDBRANCH  71  72
ENDBRANCH  45  71
ENDBRANCH   3  45
TORSDOF 20
ENDMDL
MODEL 45
REMARK VINA RESULT:    -5.288      7.396     12.749
REMARK INTER + INTRA:         -23.245
REMARK INTER:                 -17.112
REMARK INTRA:                  -6.134
REMARK UNBOUND:                -8.064
REMARK SMILES CCCCCC(=O)N[C@H](CC(=O)O)C(=O)N[C@H]1C(=O)N[C@H](CCCN=C(N)N)C(=O)N[C@@H]2CC[C@H](O)N(C2=O)[C@@H](CC(C)C)C(=O)N(C)[C@@H](Cc2ccccc2)C(=O)N[C@H](C(C)C)C(=O)O[C@@H]1C
REMARK SMILES IDX 30 1 31 2 29 3 32 5 35 6 37 7 34 8 38 9 33 10 39 11 36 12
REMARK SMILES IDX 40 14 41 15 42 16 43 17 44 18 45 19 46 20 47 21 48 22 49 23
REMARK SMILES IDX 50 24 51 25 52 26 56 27 53 28 55 29 54 30 57 31 58 32 59 33
REMARK SMILES IDX 60 35 61 36 62 37 63 38 64 39 65 40 66 41 67 42 68 43 21 45
REMARK SMILES IDX 20 46 18 47 19 48 17 50 16 52 14 53 15 54 9 56 8 57 6 58
REMARK SMILES IDX 7 59 5 61 4 62 3 63 2 64 1 65 10 66 11 67 12 68 13 69 22 71
REMARK SMILES IDX 23 72 24 73 25 74 26 75 27 76 28 77
REMARK H PARENT 31 4 36 13 59 34 20 49 16 55 8 60 13 70 27 78 27 79 28 80
REMARK H PARENT 28 81
REMARK Flexibility Score:  259.900
ROOT
ATOM      1  O   UNL     1       9.199  -0.900  -3.467  1.00  0.00    -0.273 OA
ATOM      2  N   UNL     1       9.192  -0.986  -1.181  1.00  0.00    -0.343 N 
ATOM      3  C   UNL     1       9.685  -1.332  -2.421  1.00  0.00     0.243 C 
ATOM      4  H   UNL     1       9.627  -1.350  -0.342  1.00  0.00     0.164 HD
ENDROOT
BRANCH   2   5
ATOM      5  C   UNL     1       7.984  -0.177  -1.062  1.00  0.00     0.171 C 
ATOM      6  C   UNL     1       6.675   1.075   1.201  1.00  0.00     0.214 C 
ATOM      7  N   UNL     1       6.299  -0.265   0.816  1.00  0.00    -0.303 N 
ATOM      8  C   UNL     1       7.150   1.927   0.034  1.00  0.00     0.057 C 
ATOM      9  C   UNL     1       6.919  -0.940  -0.223  1.00  0.00     0.247 C 
ATOM     10  C   UNL     1       8.322   1.254  -0.647  1.00  0.00     0.040 C 
ATOM     11  O   UNL     1       6.652  -2.119  -0.491  1.00  0.00    -0.272 OA
BRANCH   6  12
ATOM     12  O   UNL     1       7.684   0.975   2.180  1.00  0.00    -0.373 OA
ATOM     13  H   UNL     1       7.642   1.792   2.720  1.00  0.00     0.213 HD
ENDBRANCH   6  12
BRANCH   7  14
ATOM     14  C   UNL     1       5.314  -0.957   1.673  1.00  0.00     0.177 C 
BRANCH  14  15
ATOM     15  C   UNL     1       5.904  -1.670   2.906  1.00  0.00     0.038 C 
BRANCH  15  16
ATOM     16  C   UNL     1       5.861  -3.212   2.986  1.00  0.00    -0.015 C 
ATOM     17  C   UNL     1       4.890  -3.823   1.973  1.00  0.00     0.007 C 
ATOM     18  C   UNL     1       5.426  -3.646   4.392  1.00  0.00     0.007 C 
ENDBRANCH  15  16
ENDBRANCH  14  15
BRANCH  14  19
ATOM     19  C   UNL     1       3.936  -0.212   1.629  1.00  0.00     0.245 C 
ATOM     20  O   UNL     1       3.381  -0.127   0.521  1.00  0.00    -0.272 OA
BRANCH  19  21
ATOM     21  N   UNL     1       3.376   0.438   2.714  1.00  0.00    -0.332 N 
ATOM     22  C   UNL     1       3.997   1.515   3.464  1.00  0.00     0.147 C 
BRANCH  21  23
ATOM     23  C   UNL     1       2.028  -0.001   3.169  1.00  0.00     0.178 C 
BRANCH  23  24
ATOM     24  C   UNL     1       2.034  -1.175   4.170  1.00  0.00     0.070 C 
BRANCH  24  25
ATOM     25  C   UNL     1       1.766  -2.554   3.614  1.00  0.00    -0.045 A 
ATOM     26  C   UNL     1       1.347  -2.725   2.288  1.00  0.00     0.004 A 
ATOM     27  C   UNL     1       1.928  -3.687   4.425  1.00  0.00     0.004 A 
ATOM     28  C   UNL     1       1.084  -4.001   1.788  1.00  0.00     0.000 A 
ATOM     29  C   UNL     1       1.667  -4.963   3.922  1.00  0.00     0.000 A 
ATOM     30  C   UNL     1       1.241  -5.119   2.605  1.00  0.00     0.000 A 
ENDBRANCH  24  25
ENDBRANCH  23  24
BRANCH  23  31
ATOM     31  C   UNL     1       1.107   1.181   3.557  1.00  0.00     0.243 C 
ATOM     32  O   UNL     1       0.659   1.995   2.754  1.00  0.00    -0.273 OA
ATOM     33  N   UNL     1       0.977   1.355   4.925  1.00  0.00    -0.341 N 
ATOM     34  H   UNL     1       1.377   0.646   5.544  1.00  0.00     0.164 HD
BRANCH  33  35
ATOM     35  C   UNL     1       0.251   2.479   5.522  1.00  0.00     0.194 C 
BRANCH  35  36
ATOM     36  C   UNL     1       1.087   3.306   6.539  1.00  0.00     0.017 C 
ATOM     37  C   UNL     1       2.219   4.076   5.837  1.00  0.00     0.010 C 
ATOM     38  C   UNL     1       1.727   2.447   7.636  1.00  0.00     0.010 C 
ENDBRANCH  35  36
BRANCH  35  39
ATOM     39  C   UNL     1      -1.125   2.058   6.108  1.00  0.00     0.329 C 
ATOM     40  O   UNL     1      -1.503   0.896   6.207  1.00  0.00    -0.250 OA
BRANCH  39  41
ATOM     41  O   UNL     1      -1.836   3.125   6.584  1.00  0.00    -0.458 OA
BRANCH  41  42
ATOM     42  C   UNL     1      -2.469   3.968   5.592  1.00  0.00     0.205 CG0
ATOM     43  C   UNL     1      -2.010   5.401   5.854  1.00  0.00     0.056 C 
ATOM     44  G   UNL     1      -3.997   3.806   5.712  1.00  0.00     0.000 G0
ENDBRANCH  41  42
ENDBRANCH  39  41
ENDBRANCH  35  39
ENDBRANCH  33  35
ENDBRANCH  23  31
ENDBRANCH  21  23
ENDBRANCH  19  21
ENDBRANCH  14  19
ENDBRANCH   7  14
ENDBRANCH   2   5
BRANCH   3  45
ATOM     45  C   UNL     1      10.895  -2.276  -2.408  1.00  0.00     0.171 C 
BRANCH  45  46
ATOM     46  N   UNL     1      11.994  -1.515  -2.986  1.00  0.00    -0.342 N 
ATOM     47  C   UNL     1      12.589  -0.466  -2.331  1.00  0.00     0.247 C 
ATOM     48  O   UNL     1      12.288  -0.139  -1.182  1.00  0.00    -0.273 OA
ATOM     49  H   UNL     1      12.313  -1.789  -3.914  1.00  0.00     0.164 HD
BRANCH  47  50
ATOM     50  C   UNL     1      13.645   0.295  -3.145  1.00  0.00     0.212 CG0
ATOM     51  G   UNL     1      14.494  -0.747  -3.900  1.00  0.00     0.000 G0
BRANCH  50  52
ATOM     52  N   UNL     1      12.891   1.177  -4.033  1.00  0.00    -0.339 N 
ATOM     53  C   UNL     1      12.602   2.485  -3.731  1.00  0.00     0.243 C 
ATOM     54  O   UNL     1      12.912   3.002  -2.661  1.00  0.00    -0.273 OA
ATOM     55  H   UNL     1      12.510   0.774  -4.887  1.00  0.00     0.164 HD
BRANCH  53  56
ATOM     56  C   UNL     1      11.721   3.192  -4.781  1.00  0.00     0.182 C 
BRANCH  56  57
ATOM     57  N   UNL     1      10.673   3.990  -4.138  1.00  0.00    -0.344 N 
ATOM     58  C   UNL     1      10.692   5.364  -4.132  1.00  0.00     0.220 C 
ATOM     59  O   UNL     1      11.620   6.015  -4.599  1.00  0.00    -0.275 OA
ATOM     60  H   UNL     1       9.840   3.495  -3.831  1.00  0.00     0.164 HD
BRANCH  58  61
ATOM     61  C   UNL     1       9.479   5.980  -3.461  1.00  0.00     0.100 C 
BRANCH  61  62
ATOM     62  C   UNL     1       9.322   5.588  -1.992  1.00  0.00     0.010 C 
BRANCH  62  63
ATOM     63  C   UNL     1       7.921   5.085  -1.623  1.00  0.00     0.000 C 
BRANCH  63  64
ATOM     64  C   UNL     1       6.924   5.100  -2.781  1.00  0.00    -0.003 C 
ATOM     65  C   UNL     1       6.446   3.696  -3.120  1.00  0.00     0.004 C 
ENDBRANCH  63  64
ENDBRANCH  62  63
ENDBRANCH  61  62
ENDBRANCH  58  61
ENDBRANCH  56  57
BRANCH  56  66
ATOM     66  C   UNL     1      11.151   2.199  -5.793  1.00  0.00     0.157 C 
BRANCH  66  67
ATOM     67  C   UNL     1      12.041   2.076  -6.995  1.00  0.00     0.305 C 
ATOM     68  O   UNL     1      13.019   1.353  -7.112  1.00  0.00    -0.252 OA
BRANCH  67  69
ATOM     69  O   UNL     1      11.623   2.839  -8.023  1.00  0.00    -0.481 OA
ATOM     70  H   UNL     1      11.879   3.753  -7.776  1.00  0.00     0.296 HD
ENDBRANCH  67  69
ENDBRANCH  66  67
ENDBRANCH  56  66
ENDBRANCH  53  56
ENDBRANCH  50  52
ENDBRANCH  47  50
ENDBRANCH  45  46
BRANCH  45  71
ATOM     71  C   UNL     1      10.594  -3.541  -3.219  1.00  0.00     0.037 C 
BRANCH  71  72
ATOM     72  C   UNL     1      11.305  -3.538  -4.575  1.00  0.00     0.026 C 
BRANCH  72  73
ATOM     73  C   UNL     1      11.526  -4.957  -5.094  1.00  0.00     0.146 C 
BRANCH  73  74
ATOM     74  N   UNL     1      10.797  -5.872  -4.221  1.00  0.00    -0.254 NA
ATOM     75  C   UNL     1      11.090  -7.118  -4.281  1.00  0.00     0.185 C 
ATOM     76  N   UNL     1      10.437  -7.984  -3.489  1.00  0.00    -0.370 N 
ATOM     77  N   UNL     1      12.000  -7.736  -5.054  1.00  0.00    -0.370 N 
ATOM     78  H   UNL     1       9.728  -7.602  -2.879  1.00  0.00     0.159 HD
ATOM     79  H   UNL     1      10.508  -8.982  -3.582  1.00  0.00     0.159 HD
ATOM     80  H   UNL     1      12.570  -7.209  -5.698  1.00  0.00     0.159 HD
ATOM     81  H   UNL     1      12.224  -8.710  -4.930  1.00  0.00     0.159 HD
ENDBRANCH  73  74
ENDBRANCH  72  73
ENDBRANCH  71  72
ENDBRANCH  45  71
ENDBRANCH   3  45
TORSDOF 20
ENDMDL
MODEL 46
REMARK VINA RESULT:    -5.271      5.626      9.663
REMARK INTER + INTRA:         -23.196
REMARK INTER:                 -17.349
REMARK INTRA:                  -5.847
REMARK UNBOUND:                -8.064
REMARK SMILES CCCCCC(=O)N[C@H](CC(=O)O)C(=O)N[C@H]1C(=O)N[C@H](CCCN=C(N)N)C(=O)N[C@@H]2CC[C@H](O)N(C2=O)[C@@H](CC(C)C)C(=O)N(C)[C@@H](Cc2ccccc2)C(=O)N[C@H](C(C)C)C(=O)O[C@@H]1C
REMARK SMILES IDX 30 1 31 2 29 3 32 5 35 6 37 7 34 8 38 9 33 10 39 11 36 12
REMARK SMILES IDX 40 14 41 15 42 16 43 17 44 18 45 19 46 20 47 21 48 22 49 23
REMARK SMILES IDX 50 24 51 25 52 26 56 27 53 28 55 29 54 30 57 31 58 32 59 33
REMARK SMILES IDX 60 35 61 36 62 37 63 38 64 39 65 40 66 41 67 42 68 43 21 45
REMARK SMILES IDX 20 46 18 47 19 48 17 50 16 52 14 53 15 54 9 56 8 57 6 58
REMARK SMILES IDX 7 59 5 61 4 62 3 63 2 64 1 65 10 66 11 67 12 68 13 69 22 71
REMARK SMILES IDX 23 72 24 73 25 74 26 75 27 76 28 77
REMARK H PARENT 31 4 36 13 59 34 20 49 16 55 8 60 13 70 27 78 27 79 28 80
REMARK H PARENT 28 81
REMARK Flexibility Score:  259.900
ROOT
ATOM      1  O   UNL     1      -2.938  -4.978  10.515  1.00  0.00    -0.273 OA
ATOM      2  N   UNL     1      -2.684  -4.597   8.274  1.00  0.00    -0.343 N 
ATOM      3  C   UNL     1      -3.443  -4.820   9.403  1.00  0.00     0.243 C 
ATOM      4  H   UNL     1      -3.135  -4.457   7.378  1.00  0.00     0.164 HD
ENDROOT
BRANCH   2   5
ATOM      5  C   UNL     1      -1.228  -4.657   8.335  1.00  0.00     0.171 C 
ATOM      6  C   UNL     1       0.849  -2.784   7.569  1.00  0.00     0.214 C 
ATOM      7  N   UNL     1       0.384  -3.760   6.611  1.00  0.00    -0.303 N 
ATOM      8  C   UNL     1       0.752  -3.261   9.009  1.00  0.00     0.057 C 
ATOM      9  C   UNL     1      -0.639  -4.650   6.895  1.00  0.00     0.247 C 
ATOM     10  C   UNL     1      -0.678  -3.636   9.330  1.00  0.00     0.040 C 
ATOM     11  O   UNL     1      -1.091  -5.425   6.041  1.00  0.00    -0.272 OA
BRANCH   6  12
ATOM     12  O   UNL     1       0.092  -1.610   7.387  1.00  0.00    -0.373 OA
ATOM     13  H   UNL     1       0.550  -1.076   6.703  1.00  0.00     0.213 HD
ENDBRANCH   6  12
BRANCH   7  14
ATOM     14  C   UNL     1       0.947  -3.681   5.246  1.00  0.00     0.177 C 
BRANCH  14  15
ATOM     15  C   UNL     1       0.374  -2.554   4.365  1.00  0.00     0.038 C 
BRANCH  15  16
ATOM     16  C   UNL     1      -0.859  -2.833   3.478  1.00  0.00    -0.015 C 
ATOM     17  C   UNL     1      -0.710  -2.248   2.070  1.00  0.00     0.007 C 
ATOM     18  C   UNL     1      -2.110  -2.222   4.122  1.00  0.00     0.007 C 
ENDBRANCH  15  16
ENDBRANCH  14  15
BRANCH  14  19
ATOM     19  C   UNL     1       2.437  -4.166   5.244  1.00  0.00     0.245 C 
ATOM     20  O   UNL     1       2.689  -5.203   5.880  1.00  0.00    -0.272 OA
BRANCH  19  21
ATOM     21  N   UNL     1       3.479  -3.454   4.677  1.00  0.00    -0.332 N 
ATOM     22  C   UNL     1       4.066  -2.242   5.222  1.00  0.00     0.147 C 
BRANCH  21  23
ATOM     23  C   UNL     1       4.049  -3.954   3.396  1.00  0.00     0.178 C 
BRANCH  23  24
ATOM     24  C   UNL     1       3.163  -3.710   2.157  1.00  0.00     0.070 C 
BRANCH  24  25
ATOM     25  C   UNL     1       3.033  -2.284   1.674  1.00  0.00    -0.045 A 
ATOM     26  C   UNL     1       2.884  -2.000   0.310  1.00  0.00     0.004 A 
ATOM     27  C   UNL     1       3.064  -1.221   2.589  1.00  0.00     0.004 A 
ATOM     28  C   UNL     1       2.782  -0.678  -0.130  1.00  0.00     0.000 A 
ATOM     29  C   UNL     1       2.960   0.099   2.148  1.00  0.00     0.000 A 
ATOM     30  C   UNL     1       2.822   0.369   0.788  1.00  0.00     0.000 A 
ENDBRANCH  24  25
ENDBRANCH  23  24
BRANCH  23  31
ATOM     31  C   UNL     1       5.540  -3.584   3.213  1.00  0.00     0.243 C 
ATOM     32  O   UNL     1       6.309  -3.350   4.142  1.00  0.00    -0.273 OA
ATOM     33  N   UNL     1       5.896  -3.357   1.894  1.00  0.00    -0.341 N 
ATOM     34  H   UNL     1       5.211  -3.565   1.164  1.00  0.00     0.164 HD
BRANCH  33  35
ATOM     35  C   UNL     1       7.224  -2.881   1.496  1.00  0.00     0.194 C 
BRANCH  35  36
ATOM     36  C   UNL     1       7.214  -1.504   0.774  1.00  0.00     0.017 C 
ATOM     37  C   UNL     1       6.616  -0.407   1.671  1.00  0.00     0.010 C 
ATOM     38  C   UNL     1       6.415  -1.513  -0.535  1.00  0.00     0.010 C 
ENDBRANCH  35  36
BRANCH  35  39
ATOM     39  C   UNL     1       8.027  -3.948   0.700  1.00  0.00     0.329 C 
ATOM     40  O   UNL     1       7.543  -4.665  -0.168  1.00  0.00    -0.250 OA
BRANCH  39  41
ATOM     41  O   UNL     1       9.358  -3.937   1.015  1.00  0.00    -0.458 OA
BRANCH  41  42
ATOM     42  C   UNL     1      10.272  -4.288  -0.052  1.00  0.00     0.205 CG0
ATOM     43  C   UNL     1      10.859  -5.657   0.285  1.00  0.00     0.056 C 
ATOM     44  G   UNL     1      11.351  -3.192  -0.155  1.00  0.00     0.000 G0
ENDBRANCH  41  42
ENDBRANCH  39  41
ENDBRANCH  35  39
ENDBRANCH  33  35
ENDBRANCH  23  31
ENDBRANCH  21  23
ENDBRANCH  19  21
ENDBRANCH  14  19
ENDBRANCH   7  14
ENDBRANCH   2   5
BRANCH   3  45
ATOM     45  C   UNL     1      -4.961  -4.838   9.181  1.00  0.00     0.171 C 
BRANCH  45  46
ATOM     46  N   UNL     1      -5.444  -3.549   9.658  1.00  0.00    -0.342 N 
ATOM     47  C   UNL     1      -5.900  -2.573   8.808  1.00  0.00     0.247 C 
ATOM     48  O   UNL     1      -6.004  -2.740   7.592  1.00  0.00    -0.273 OA
ATOM     49  H   UNL     1      -5.429  -3.389  10.663  1.00  0.00     0.164 HD
BRANCH  47  50
ATOM     50  C   UNL     1      -6.250  -1.237   9.479  1.00  0.00     0.212 CG0
ATOM     51  G   UNL     1      -6.874  -1.554  10.853  1.00  0.00     0.000 G0
BRANCH  50  52
ATOM     52  N   UNL     1      -4.989  -0.506   9.573  1.00  0.00    -0.339 N 
ATOM     53  C   UNL     1      -4.912   0.831   9.876  1.00  0.00     0.243 C 
ATOM     54  O   UNL     1      -5.907   1.531  10.042  1.00  0.00    -0.273 OA
ATOM     55  H   UNL     1      -4.134  -1.006   9.337  1.00  0.00     0.164 HD
BRANCH  53  56
ATOM     56  C   UNL     1      -3.480   1.403   9.833  1.00  0.00     0.182 C 
BRANCH  56  57
ATOM     57  N   UNL     1      -2.975   1.451   8.457  1.00  0.00    -0.344 N 
ATOM     58  C   UNL     1      -2.563   2.620   7.865  1.00  0.00     0.220 C 
ATOM     59  O   UNL     1      -2.656   3.712   8.416  1.00  0.00    -0.275 OA
ATOM     60  H   UNL     1      -2.786   0.561   8.004  1.00  0.00     0.164 HD
BRANCH  58  61
ATOM     61  C   UNL     1      -2.023   2.425   6.460  1.00  0.00     0.100 C 
BRANCH  61  62
ATOM     62  C   UNL     1      -0.670   3.096   6.221  1.00  0.00     0.010 C 
BRANCH  62  63
ATOM     63  C   UNL     1       0.288   2.280   5.344  1.00  0.00     0.000 C 
BRANCH  63  64
ATOM     64  C   UNL     1      -0.356   1.070   4.669  1.00  0.00    -0.003 C 
ATOM     65  C   UNL     1      -0.373   1.224   3.155  1.00  0.00     0.004 C 
ENDBRANCH  63  64
ENDBRANCH  62  63
ENDBRANCH  61  62
ENDBRANCH  58  61
ENDBRANCH  56  57
BRANCH  56  66
ATOM     66  C   UNL     1      -2.543   0.637  10.765  1.00  0.00     0.157 C 
BRANCH  66  67
ATOM     67  C   UNL     1      -1.546  -0.174   9.988  1.00  0.00     0.305 C 
ATOM     68  O   UNL     1      -0.342   0.018   9.915  1.00  0.00    -0.252 OA
BRANCH  67  69
ATOM     69  O   UNL     1      -2.113  -1.230   9.374  1.00  0.00    -0.481 OA
ATOM     70  H   UNL     1      -1.877  -1.126   8.428  1.00  0.00     0.296 HD
ENDBRANCH  67  69
ENDBRANCH  66  67
ENDBRANCH  56  66
ENDBRANCH  53  56
ENDBRANCH  50  52
ENDBRANCH  47  50
ENDBRANCH  45  46
BRANCH  45  71
ATOM     71  C   UNL     1      -5.600  -6.000   9.949  1.00  0.00     0.037 C 
BRANCH  71  72
ATOM     72  C   UNL     1      -7.086  -6.160   9.621  1.00  0.00     0.026 C 
BRANCH  72  73
ATOM     73  C   UNL     1      -7.294  -6.669   8.196  1.00  0.00     0.146 C 
BRANCH  73  74
ATOM     74  N   UNL     1      -7.345  -8.127   8.245  1.00  0.00    -0.254 NA
ATOM     75  C   UNL     1      -6.360  -8.779   7.747  1.00  0.00     0.185 C 
ATOM     76  N   UNL     1      -6.377 -10.121   7.778  1.00  0.00    -0.370 N 
ATOM     77  N   UNL     1      -5.244  -8.307   7.163  1.00  0.00    -0.370 N 
ATOM     78  H   UNL     1      -7.187 -10.558   8.195  1.00  0.00     0.159 HD
ATOM     79  H   UNL     1      -5.718 -10.695   7.284  1.00  0.00     0.159 HD
ATOM     80  H   UNL     1      -5.092  -7.314   7.072  1.00  0.00     0.159 HD
ATOM     81  H   UNL     1      -4.482  -8.915   6.911  1.00  0.00     0.159 HD
ENDBRANCH  73  74
ENDBRANCH  72  73
ENDBRANCH  71  72
ENDBRANCH  45  71
ENDBRANCH   3  45
TORSDOF 20
ENDMDL
MODEL 47
REMARK VINA RESULT:    -5.259      4.225      8.921
REMARK INTER + INTRA:         -23.161
REMARK INTER:                 -16.763
REMARK INTRA:                  -6.399
REMARK UNBOUND:                -8.064
REMARK SMILES CCCCCC(=O)N[C@H](CC(=O)O)C(=O)N[C@H]1C(=O)N[C@H](CCCN=C(N)N)C(=O)N[C@@H]2CC[C@H](O)N(C2=O)[C@@H](CC(C)C)C(=O)N(C)[C@@H](Cc2ccccc2)C(=O)N[C@H](C(C)C)C(=O)O[C@@H]1C
REMARK SMILES IDX 30 1 31 2 29 3 32 5 35 6 37 7 34 8 38 9 33 10 39 11 36 12
REMARK SMILES IDX 40 14 41 15 42 16 43 17 44 18 45 19 46 20 47 21 48 22 49 23
REMARK SMILES IDX 50 24 51 25 52 26 56 27 53 28 55 29 54 30 57 31 58 32 59 33
REMARK SMILES IDX 60 35 61 36 62 37 63 38 64 39 65 40 66 41 67 42 68 43 21 45
REMARK SMILES IDX 20 46 18 47 19 48 17 50 16 52 14 53 15 54 9 56 8 57 6 58
REMARK SMILES IDX 7 59 5 61 4 62 3 63 2 64 1 65 10 66 11 67 12 68 13 69 22 71
REMARK SMILES IDX 23 72 24 73 25 74 26 75 27 76 28 77
REMARK H PARENT 31 4 36 13 59 34 20 49 16 55 8 60 13 70 27 78 27 79 28 80
REMARK H PARENT 28 81
REMARK Flexibility Score:  259.900
ROOT
ATOM      1  O   UNL     1       1.413  -2.811   7.022  1.00  0.00    -0.273 OA
ATOM      2  N   UNL     1       0.659  -2.315   4.920  1.00  0.00    -0.343 N 
ATOM      3  C   UNL     1       1.066  -3.192   5.903  1.00  0.00     0.243 C 
ATOM      4  H   UNL     1       0.366  -2.665   4.016  1.00  0.00     0.164 HD
ENDROOT
BRANCH   2   5
ATOM      5  C   UNL     1       0.735  -0.874   5.132  1.00  0.00     0.171 C 
ATOM      6  C   UNL     1       0.556   1.389   3.329  1.00  0.00     0.214 C 
ATOM      7  N   UNL     1       1.847   0.809   3.614  1.00  0.00    -0.303 N 
ATOM      8  C   UNL     1      -0.431   1.256   4.478  1.00  0.00     0.057 C 
ATOM      9  C   UNL     1       1.999  -0.304   4.426  1.00  0.00     0.247 C 
ATOM     10  C   UNL     1      -0.606  -0.204   4.837  1.00  0.00     0.040 C 
ATOM     11  O   UNL     1       3.098  -0.847   4.596  1.00  0.00    -0.272 OA
BRANCH   6  12
ATOM     12  O   UNL     1       0.050   0.765   2.171  1.00  0.00    -0.373 OA
ATOM     13  H   UNL     1      -0.919   0.917   2.163  1.00  0.00     0.213 HD
ENDBRANCH   6  12
BRANCH   7  14
ATOM     14  C   UNL     1       3.007   1.362   2.883  1.00  0.00     0.177 C 
BRANCH  14  15
ATOM     15  C   UNL     1       3.411   0.589   1.613  1.00  0.00     0.038 C 
BRANCH  15  16
ATOM     16  C   UNL     1       2.431   0.517   0.421  1.00  0.00    -0.015 C 
ATOM     17  C   UNL     1       2.239  -0.913  -0.092  1.00  0.00     0.007 C 
ATOM     18  C   UNL     1       2.957   1.376  -0.736  1.00  0.00     0.007 C 
ENDBRANCH  15  16
ENDBRANCH  14  15
BRANCH  14  19
ATOM     19  C   UNL     1       3.065   2.919   3.054  1.00  0.00     0.245 C 
ATOM     20  O   UNL     1       2.685   3.602   2.088  1.00  0.00    -0.272 OA
BRANCH  19  21
ATOM     21  N   UNL     1       3.610   3.554   4.156  1.00  0.00    -0.332 N 
ATOM     22  C   UNL     1       4.120   2.893   5.343  1.00  0.00     0.147 C 
BRANCH  21  23
ATOM     23  C   UNL     1       3.675   5.042   4.140  1.00  0.00     0.178 C 
BRANCH  23  24
ATOM     24  C   UNL     1       2.901   5.734   5.281  1.00  0.00     0.070 C 
BRANCH  24  25
ATOM     25  C   UNL     1       1.396   5.591   5.277  1.00  0.00    -0.045 A 
ATOM     26  C   UNL     1       0.607   6.340   4.395  1.00  0.00     0.004 A 
ATOM     27  C   UNL     1       0.768   4.706   6.166  1.00  0.00     0.004 A 
ATOM     28  C   UNL     1      -0.784   6.215   4.409  1.00  0.00     0.000 A 
ATOM     29  C   UNL     1      -0.623   4.582   6.178  1.00  0.00     0.000 A 
ATOM     30  C   UNL     1      -1.398   5.338   5.302  1.00  0.00     0.000 A 
ENDBRANCH  24  25
ENDBRANCH  23  24
BRANCH  23  31
ATOM     31  C   UNL     1       5.105   5.581   3.903  1.00  0.00     0.243 C 
ATOM     32  O   UNL     1       5.942   5.022   3.199  1.00  0.00    -0.273 OA
ATOM     33  N   UNL     1       5.429   6.662   4.706  1.00  0.00    -0.341 N 
ATOM     34  H   UNL     1       4.691   7.081   5.276  1.00  0.00     0.164 HD
BRANCH  33  35
ATOM     35  C   UNL     1       6.766   7.261   4.737  1.00  0.00     0.194 C 
BRANCH  35  36
ATOM     36  C   UNL     1       7.700   6.673   5.833  1.00  0.00     0.017 C 
ATOM     37  C   UNL     1       6.897   6.203   7.058  1.00  0.00     0.010 C 
ATOM     38  C   UNL     1       8.752   7.672   6.330  1.00  0.00     0.010 C 
ENDBRANCH  35  36
BRANCH  35  39
ATOM     39  C   UNL     1       6.725   8.814   4.783  1.00  0.00     0.329 C 
ATOM     40  O   UNL     1       6.139   9.460   5.644  1.00  0.00    -0.250 OA
BRANCH  39  41
ATOM     41  O   UNL     1       7.489   9.384   3.802  1.00  0.00    -0.458 OA
BRANCH  41  42
ATOM     42  C   UNL     1       7.361  10.817   3.641  1.00  0.00     0.205 CG0
ATOM     43  C   UNL     1       7.125  11.088   2.156  1.00  0.00     0.056 C 
ATOM     44  G   UNL     1       8.647  11.487   4.165  1.00  0.00     0.000 G0
ENDBRANCH  41  42
ENDBRANCH  39  41
ENDBRANCH  35  39
ENDBRANCH  33  35
ENDBRANCH  23  31
ENDBRANCH  21  23
ENDBRANCH  19  21
ENDBRANCH  14  19
ENDBRANCH   7  14
ENDBRANCH   2   5
BRANCH   3  45
ATOM     45  C   UNL     1       1.038  -4.675   5.513  1.00  0.00     0.171 C 
BRANCH  45  46
ATOM     46  N   UNL     1      -0.341  -5.105   5.699  1.00  0.00    -0.342 N 
ATOM     47  C   UNL     1      -1.074  -5.683   4.693  1.00  0.00     0.247 C 
ATOM     48  O   UNL     1      -0.599  -5.947   3.587  1.00  0.00    -0.273 OA
ATOM     49  H   UNL     1      -0.756  -4.957   6.617  1.00  0.00     0.164 HD
BRANCH  47  50
ATOM     50  C   UNL     1      -2.546  -5.956   5.034  1.00  0.00     0.212 CG0
ATOM     51  G   UNL     1      -2.684  -7.461   5.339  1.00  0.00     0.000 G0
BRANCH  50  52
ATOM     52  N   UNL     1      -2.843  -5.105   6.183  1.00  0.00    -0.339 N 
ATOM     53  C   UNL     1      -3.893  -5.331   7.040  1.00  0.00     0.243 C 
ATOM     54  O   UNL     1      -4.699  -6.242   6.872  1.00  0.00    -0.273 OA
ATOM     55  H   UNL     1      -2.277  -4.269   6.311  1.00  0.00     0.164 HD
BRANCH  53  56
ATOM     56  C   UNL     1      -4.059  -4.251   8.127  1.00  0.00     0.182 C 
BRANCH  56  57
ATOM     57  N   UNL     1      -3.594  -2.945   7.649  1.00  0.00    -0.344 N 
ATOM     58  C   UNL     1      -4.454  -1.989   7.166  1.00  0.00     0.220 C 
ATOM     59  O   UNL     1      -5.657  -2.185   7.033  1.00  0.00    -0.275 OA
ATOM     60  H   UNL     1      -2.624  -2.706   7.835  1.00  0.00     0.164 HD
BRANCH  58  61
ATOM     61  C   UNL     1      -3.760  -0.695   6.782  1.00  0.00     0.100 C 
BRANCH  61  62
ATOM     62  C   UNL     1      -3.563   0.269   7.952  1.00  0.00     0.010 C 
BRANCH  62  63
ATOM     63  C   UNL     1      -2.642   1.455   7.639  1.00  0.00     0.000 C 
BRANCH  63  64
ATOM     64  C   UNL     1      -1.592   1.734   8.713  1.00  0.00    -0.003 C 
ATOM     65  C   UNL     1      -0.189   1.426   8.211  1.00  0.00     0.004 C 
ENDBRANCH  63  64
ENDBRANCH  62  63
ENDBRANCH  61  62
ENDBRANCH  58  61
ENDBRANCH  56  57
BRANCH  56  66
ATOM     66  C   UNL     1      -3.381  -4.662   9.433  1.00  0.00     0.157 C 
BRANCH  66  67
ATOM     67  C   UNL     1      -1.931  -4.270   9.439  1.00  0.00     0.305 C 
ATOM     68  O   UNL     1      -1.176  -4.242   8.480  1.00  0.00    -0.252 OA
BRANCH  67  69
ATOM     69  O   UNL     1      -1.512  -3.879  10.658  1.00  0.00    -0.481 OA
ATOM     70  H   UNL     1      -1.130  -4.687  11.062  1.00  0.00     0.296 HD
ENDBRANCH  67  69
ENDBRANCH  66  67
ENDBRANCH  56  66
ENDBRANCH  53  56
ENDBRANCH  50  52
ENDBRANCH  47  50
ENDBRANCH  45  46
BRANCH  45  71
ATOM     71  C   UNL     1       2.003  -5.477   6.394  1.00  0.00     0.037 C 
BRANCH  71  72
ATOM     72  C   UNL     1       1.266  -6.440   7.328  1.00  0.00     0.026 C 
BRANCH  72  73
ATOM     73  C   UNL     1       1.495  -7.895   6.926  1.00  0.00     0.146 C 
BRANCH  73  74
ATOM     74  N   UNL     1       1.453  -7.969   5.469  1.00  0.00    -0.254 NA
ATOM     75  C   UNL     1       1.098  -9.079   4.935  1.00  0.00     0.185 C 
ATOM     76  N   UNL     1       1.049  -9.177   3.597  1.00  0.00    -0.370 N 
ATOM     77  N   UNL     1       0.747 -10.230   5.534  1.00  0.00    -0.370 N 
ATOM     78  H   UNL     1       1.306  -8.356   3.068  1.00  0.00     0.159 HD
ATOM     79  H   UNL     1       0.923 -10.047   3.110  1.00  0.00     0.159 HD
ATOM     80  H   UNL     1       0.734 -10.303   6.540  1.00  0.00     0.159 HD
ATOM     81  H   UNL     1       0.374 -11.006   5.011  1.00  0.00     0.159 HD
ENDBRANCH  73  74
ENDBRANCH  72  73
ENDBRANCH  71  72
ENDBRANCH  45  71
ENDBRANCH   3  45
TORSDOF 20
ENDMDL
MODEL 48
REMARK VINA RESULT:    -5.248      2.847     12.532
REMARK INTER + INTRA:         -23.130
REMARK INTER:                 -15.221
REMARK INTRA:                  -7.909
REMARK UNBOUND:                -8.064
REMARK SMILES CCCCCC(=O)N[C@H](CC(=O)O)C(=O)N[C@H]1C(=O)N[C@H](CCCN=C(N)N)C(=O)N[C@@H]2CC[C@H](O)N(C2=O)[C@@H](CC(C)C)C(=O)N(C)[C@@H](Cc2ccccc2)C(=O)N[C@H](C(C)C)C(=O)O[C@@H]1C
REMARK SMILES IDX 30 1 31 2 29 3 32 5 35 6 37 7 34 8 38 9 33 10 39 11 36 12
REMARK SMILES IDX 40 14 41 15 42 16 43 17 44 18 45 19 46 20 47 21 48 22 49 23
REMARK SMILES IDX 50 24 51 25 52 26 56 27 53 28 55 29 54 30 57 31 58 32 59 33
REMARK SMILES IDX 60 35 61 36 62 37 63 38 64 39 65 40 66 41 67 42 68 43 21 45
REMARK SMILES IDX 20 46 18 47 19 48 17 50 16 52 14 53 15 54 9 56 8 57 6 58
REMARK SMILES IDX 7 59 5 61 4 62 3 63 2 64 1 65 10 66 11 67 12 68 13 69 22 71
REMARK SMILES IDX 23 72 24 73 25 74 26 75 27 76 28 77
REMARK H PARENT 31 4 36 13 59 34 20 49 16 55 8 60 13 70 27 78 27 79 28 80
REMARK H PARENT 28 81
REMARK Flexibility Score:  259.900
ROOT
ATOM      1  O   UNL     1       0.757   0.446   6.657  1.00  0.00    -0.273 OA
ATOM      2  N   UNL     1       2.215  -0.905   5.525  1.00  0.00    -0.343 N 
ATOM      3  C   UNL     1       1.653   0.318   5.822  1.00  0.00     0.243 C 
ATOM      4  H   UNL     1       2.961  -0.970   4.843  1.00  0.00     0.164 HD
ENDROOT
BRANCH   2   5
ATOM      5  C   UNL     1       1.680  -2.129   6.111  1.00  0.00     0.171 C 
ATOM      6  C   UNL     1       2.589  -4.882   6.078  1.00  0.00     0.214 C 
ATOM      7  N   UNL     1       1.679  -4.422   5.055  1.00  0.00    -0.303 N 
ATOM      8  C   UNL     1       2.422  -4.155   7.403  1.00  0.00     0.057 C 
ATOM      9  C   UNL     1       1.246  -3.108   4.982  1.00  0.00     0.247 C 
ATOM     10  C   UNL     1       2.608  -2.668   7.198  1.00  0.00     0.040 C 
ATOM     11  O   UNL     1       0.536  -2.702   4.053  1.00  0.00    -0.272 OA
BRANCH   6  12
ATOM     12  O   UNL     1       3.901  -4.722   5.591  1.00  0.00    -0.373 OA
ATOM     13  H   UNL     1       4.126  -5.540   5.097  1.00  0.00     0.213 HD
ENDBRANCH   6  12
BRANCH   7  14
ATOM     14  C   UNL     1       1.334  -5.382   3.984  1.00  0.00     0.177 C 
BRANCH  14  15
ATOM     15  C   UNL     1       2.462  -5.672   2.975  1.00  0.00     0.038 C 
BRANCH  15  16
ATOM     16  C   UNL     1       2.571  -4.822   1.690  1.00  0.00    -0.015 C 
ATOM     17  C   UNL     1       1.497  -5.181   0.659  1.00  0.00     0.007 C 
ATOM     18  C   UNL     1       3.947  -5.032   1.044  1.00  0.00     0.007 C 
ENDBRANCH  15  16
ENDBRANCH  14  15
BRANCH  14  19
ATOM     19  C   UNL     1       0.294  -6.431   4.509  1.00  0.00     0.245 C 
ATOM     20  O   UNL     1      -0.421  -6.080   5.462  1.00  0.00    -0.272 OA
BRANCH  19  21
ATOM     21  N   UNL     1       0.213  -7.733   4.048  1.00  0.00    -0.332 N 
ATOM     22  C   UNL     1       0.793  -8.894   4.699  1.00  0.00     0.147 C 
BRANCH  21  23
ATOM     23  C   UNL     1      -0.518  -7.976   2.774  1.00  0.00     0.178 C 
BRANCH  23  24
ATOM     24  C   UNL     1      -0.005  -9.179   1.955  1.00  0.00     0.070 C 
BRANCH  24  25
ATOM     25  C   UNL     1       1.050  -8.900   0.910  1.00  0.00    -0.045 A 
ATOM     26  C   UNL     1       2.411  -8.910   1.243  1.00  0.00     0.004 A 
ATOM     27  C   UNL     1       0.679  -8.621  -0.414  1.00  0.00     0.004 A 
ATOM     28  C   UNL     1       3.379  -8.635   0.275  1.00  0.00     0.000 A 
ATOM     29  C   UNL     1       1.647  -8.347  -1.380  1.00  0.00     0.000 A 
ATOM     30  C   UNL     1       2.997  -8.351  -1.034  1.00  0.00     0.000 A 
ENDBRANCH  24  25
ENDBRANCH  23  24
BRANCH  23  31
ATOM     31  C   UNL     1      -2.055  -7.907   2.937  1.00  0.00     0.243 C 
ATOM     32  O   UNL     1      -2.711  -6.874   2.829  1.00  0.00    -0.273 OA
ATOM     33  N   UNL     1      -2.615  -9.085   3.400  1.00  0.00    -0.341 N 
ATOM     34  H   UNL     1      -2.017  -9.911   3.475  1.00  0.00     0.164 HD
BRANCH  33  35
ATOM     35  C   UNL     1      -4.035  -9.214   3.740  1.00  0.00     0.194 C 
BRANCH  35  36
ATOM     36  C   UNL     1      -4.303  -9.545   5.235  1.00  0.00     0.017 C 
ATOM     37  C   UNL     1      -5.259 -10.741   5.381  1.00  0.00     0.010 C 
ATOM     38  C   UNL     1      -4.911  -8.373   6.014  1.00  0.00     0.010 C 
ENDBRANCH  35  36
BRANCH  35  39
ATOM     39  C   UNL     1      -4.792 -10.181   2.787  1.00  0.00     0.329 C 
ATOM     40  O   UNL     1      -5.988 -10.098   2.534  1.00  0.00    -0.250 OA
BRANCH  39  41
ATOM     41  O   UNL     1      -3.956 -11.086   2.193  1.00  0.00    -0.458 OA
BRANCH  41  42
ATOM     42  C   UNL     1      -4.251 -12.483   2.431  1.00  0.00     0.205 CG0
ATOM     43  C   UNL     1      -3.129 -13.041   3.305  1.00  0.00     0.056 C 
ATOM     44  G   UNL     1      -4.353 -13.203   1.072  1.00  0.00     0.000 G0
ENDBRANCH  41  42
ENDBRANCH  39  41
ENDBRANCH  35  39
ENDBRANCH  33  35
ENDBRANCH  23  31
ENDBRANCH  21  23
ENDBRANCH  19  21
ENDBRANCH  14  19
ENDBRANCH   7  14
ENDBRANCH   2   5
BRANCH   3  45
ATOM     45  C   UNL     1       2.237   1.513   5.055  1.00  0.00     0.171 C 
BRANCH  45  46
ATOM     46  N   UNL     1       2.036   2.670   5.917  1.00  0.00    -0.342 N 
ATOM     47  C   UNL     1       3.077   3.324   6.526  1.00  0.00     0.247 C 
ATOM     48  O   UNL     1       4.257   3.029   6.332  1.00  0.00    -0.273 OA
ATOM     49  H   UNL     1       1.078   2.983   6.060  1.00  0.00     0.164 HD
BRANCH  47  50
ATOM     50  C   UNL     1       2.665   4.441   7.496  1.00  0.00     0.212 CG0
ATOM     51  G   UNL     1       2.806   5.783   6.749  1.00  0.00     0.000 G0
BRANCH  50  52
ATOM     52  N   UNL     1       1.290   4.136   7.880  1.00  0.00    -0.339 N 
ATOM     53  C   UNL     1       0.959   3.176   8.806  1.00  0.00     0.243 C 
ATOM     54  O   UNL     1       1.799   2.460   9.345  1.00  0.00    -0.273 OA
ATOM     55  H   UNL     1       0.542   4.619   7.386  1.00  0.00     0.164 HD
BRANCH  53  56
ATOM     56  C   UNL     1      -0.559   2.972   8.984  1.00  0.00     0.182 C 
BRANCH  56  57
ATOM     57  N   UNL     1      -0.915   1.553   8.884  1.00  0.00    -0.344 N 
ATOM     58  C   UNL     1      -1.202   0.787   9.988  1.00  0.00     0.220 C 
ATOM     59  O   UNL     1      -1.110   1.215  11.134  1.00  0.00    -0.275 OA
ATOM     60  H   UNL     1      -1.101   1.189   7.954  1.00  0.00     0.164 HD
BRANCH  58  61
ATOM     61  C   UNL     1      -1.601  -0.636   9.646  1.00  0.00     0.100 C 
BRANCH  61  62
ATOM     62  C   UNL     1      -2.325  -0.767   8.305  1.00  0.00     0.010 C 
BRANCH  62  63
ATOM     63  C   UNL     1      -1.685  -1.776   7.343  1.00  0.00     0.000 C 
BRANCH  63  64
ATOM     64  C   UNL     1      -2.062  -3.231   7.617  1.00  0.00    -0.003 C 
ATOM     65  C   UNL     1      -1.164  -3.847   8.680  1.00  0.00     0.004 C 
ENDBRANCH  63  64
ENDBRANCH  62  63
ENDBRANCH  61  62
ENDBRANCH  58  61
ENDBRANCH  56  57
BRANCH  56  66
ATOM     66  C   UNL     1      -1.358   3.836   8.010  1.00  0.00     0.157 C 
BRANCH  66  67
ATOM     67  C   UNL     1      -1.871   3.023   6.856  1.00  0.00     0.305 C 
ATOM     68  O   UNL     1      -2.995   2.561   6.729  1.00  0.00    -0.252 OA
BRANCH  67  69
ATOM     69  O   UNL     1      -0.951   2.874   5.885  1.00  0.00    -0.481 OA
ATOM     70  H   UNL     1      -1.358   2.249   5.249  1.00  0.00     0.296 HD
ENDBRANCH  67  69
ENDBRANCH  66  67
ENDBRANCH  56  66
ENDBRANCH  53  56
ENDBRANCH  50  52
ENDBRANCH  47  50
ENDBRANCH  45  46
BRANCH  45  71
ATOM     71  C   UNL     1       1.527   1.681   3.708  1.00  0.00     0.037 C 
BRANCH  71  72
ATOM     72  C   UNL     1       2.388   2.437   2.693  1.00  0.00     0.026 C 
BRANCH  72  73
ATOM     73  C   UNL     1       2.250   3.949   2.857  1.00  0.00     0.146 C 
BRANCH  73  74
ATOM     74  N   UNL     1       0.909   4.223   3.365  1.00  0.00    -0.254 NA
ATOM     75  C   UNL     1       0.739   5.281   4.067  1.00  0.00     0.185 C 
ATOM     76  N   UNL     1      -0.484   5.561   4.547  1.00  0.00    -0.370 N 
ATOM     77  N   UNL     1       1.640   6.214   4.422  1.00  0.00    -0.370 N 
ATOM     78  H   UNL     1      -1.221   4.904   4.332  1.00  0.00     0.159 HD
ATOM     79  H   UNL     1      -0.663   6.286   5.219  1.00  0.00     0.159 HD
ATOM     80  H   UNL     1       2.602   6.137   4.128  1.00  0.00     0.159 HD
ATOM     81  H   UNL     1       1.365   7.066   4.881  1.00  0.00     0.159 HD
ENDBRANCH  73  74
ENDBRANCH  72  73
ENDBRANCH  71  72
ENDBRANCH  45  71
ENDBRANCH   3  45
TORSDOF 20
ENDMDL
MODEL 49
REMARK VINA RESULT:    -5.234      5.869     11.564
REMARK INTER + INTRA:         -23.089
REMARK INTER:                 -15.833
REMARK INTRA:                  -7.256
REMARK UNBOUND:                -8.064
REMARK SMILES CCCCCC(=O)N[C@H](CC(=O)O)C(=O)N[C@H]1C(=O)N[C@H](CCCN=C(N)N)C(=O)N[C@@H]2CC[C@H](O)N(C2=O)[C@@H](CC(C)C)C(=O)N(C)[C@@H](Cc2ccccc2)C(=O)N[C@H](C(C)C)C(=O)O[C@@H]1C
REMARK SMILES IDX 30 1 31 2 29 3 32 5 35 6 37 7 34 8 38 9 33 10 39 11 36 12
REMARK SMILES IDX 40 14 41 15 42 16 43 17 44 18 45 19 46 20 47 21 48 22 49 23
REMARK SMILES IDX 50 24 51 25 52 26 56 27 53 28 55 29 54 30 57 31 58 32 59 33
REMARK SMILES IDX 60 35 61 36 62 37 63 38 64 39 65 40 66 41 67 42 68 43 21 45
REMARK SMILES IDX 20 46 18 47 19 48 17 50 16 52 14 53 15 54 9 56 8 57 6 58
REMARK SMILES IDX 7 59 5 61 4 62 3 63 2 64 1 65 10 66 11 67 12 68 13 69 22 71
REMARK SMILES IDX 23 72 24 73 25 74 26 75 27 76 28 77
REMARK H PARENT 31 4 36 13 59 34 20 49 16 55 8 60 13 70 27 78 27 79 28 80
REMARK H PARENT 28 81
REMARK Flexibility Score:  259.900
ROOT
ATOM      1  O   UNL     1       0.778   0.951   5.173  1.00  0.00    -0.273 OA
ATOM      2  N   UNL     1       0.970   0.051   3.079  1.00  0.00    -0.343 N 
ATOM      3  C   UNL     1       0.513   0.047   4.379  1.00  0.00     0.243 C 
ATOM      4  H   UNL     1       0.719  -0.702   2.450  1.00  0.00     0.164 HD
ENDROOT
BRANCH   2   5
ATOM      5  C   UNL     1       1.896   1.081   2.620  1.00  0.00     0.171 C 
ATOM      6  C   UNL     1       2.990   1.718   0.013  1.00  0.00     0.214 C 
ATOM      7  N   UNL     1       3.701   0.807   0.878  1.00  0.00    -0.303 N 
ATOM      8  C   UNL     1       2.181   2.760   0.770  1.00  0.00     0.057 C 
ATOM      9  C   UNL     1       3.210   0.420   2.114  1.00  0.00     0.247 C 
ATOM     10  C   UNL     1       1.197   2.073   1.692  1.00  0.00     0.040 C 
ATOM     11  O   UNL     1       3.783  -0.427   2.812  1.00  0.00    -0.272 OA
BRANCH   6  12
ATOM     12  O   UNL     1       2.150   0.954  -0.821  1.00  0.00    -0.373 OA
ATOM     13  H   UNL     1       1.597   1.585  -1.329  1.00  0.00     0.213 HD
ENDBRANCH   6  12
BRANCH   7  14
ATOM     14  C   UNL     1       4.921   0.176   0.329  1.00  0.00     0.177 C 
BRANCH  14  15
ATOM     15  C   UNL     1       4.674  -0.997  -0.639  1.00  0.00     0.038 C 
BRANCH  15  16
ATOM     16  C   UNL     1       5.060  -2.430  -0.212  1.00  0.00    -0.015 C 
ATOM     17  C   UNL     1       3.894  -3.180   0.439  1.00  0.00     0.007 C 
ATOM     18  C   UNL     1       6.218  -2.378   0.793  1.00  0.00     0.007 C 
ENDBRANCH  15  16
ENDBRANCH  14  15
BRANCH  14  19
ATOM     19  C   UNL     1       6.068   1.236   0.196  1.00  0.00     0.245 C 
ATOM     20  O   UNL     1       6.401   1.833   1.234  1.00  0.00    -0.272 OA
BRANCH  19  21
ATOM     21  N   UNL     1       6.635   1.612  -1.009  1.00  0.00    -0.332 N 
ATOM     22  C   UNL     1       5.983   2.406  -2.035  1.00  0.00     0.147 C 
BRANCH  21  23
ATOM     23  C   UNL     1       8.025   1.162  -1.294  1.00  0.00     0.178 C 
BRANCH  23  24
ATOM     24  C   UNL     1       8.160   0.208  -2.499  1.00  0.00     0.070 C 
BRANCH  24  25
ATOM     25  C   UNL     1       8.378  -1.256  -2.197  1.00  0.00    -0.045 A 
ATOM     26  C   UNL     1       9.293  -1.658  -1.216  1.00  0.00     0.004 A 
ATOM     27  C   UNL     1       7.665  -2.238  -2.902  1.00  0.00     0.004 A 
ATOM     28  C   UNL     1       9.501  -3.014  -0.955  1.00  0.00     0.000 A 
ATOM     29  C   UNL     1       7.873  -3.592  -2.639  1.00  0.00     0.000 A 
ATOM     30  C   UNL     1       8.793  -3.980  -1.667  1.00  0.00     0.000 A 
ENDBRANCH  24  25
ENDBRANCH  23  24
BRANCH  23  31
ATOM     31  C   UNL     1       9.053   2.318  -1.260  1.00  0.00     0.243 C 
ATOM     32  O   UNL     1       9.371   2.924  -0.240  1.00  0.00    -0.273 OA
ATOM     33  N   UNL     1       9.453   2.739  -2.516  1.00  0.00    -0.341 N 
ATOM     34  H   UNL     1       9.151   2.197  -3.329  1.00  0.00     0.164 HD
BRANCH  33  35
ATOM     35  C   UNL     1      10.329   3.895  -2.730  1.00  0.00     0.194 C 
BRANCH  35  36
ATOM     36  C   UNL     1       9.840   4.865  -3.842  1.00  0.00     0.017 C 
ATOM     37  C   UNL     1      10.121   6.331  -3.469  1.00  0.00     0.010 C 
ATOM     38  C   UNL     1       8.339   4.745  -4.132  1.00  0.00     0.010 C 
ENDBRANCH  35  36
BRANCH  35  39
ATOM     39  C   UNL     1      11.817   3.490  -2.926  1.00  0.00     0.329 C 
ATOM     40  O   UNL     1      12.755   4.019  -2.341  1.00  0.00    -0.250 OA
BRANCH  39  41
ATOM     41  O   UNL     1      11.957   2.416  -3.760  1.00  0.00    -0.458 OA
BRANCH  41  42
ATOM     42  C   UNL     1      12.746   2.631  -4.955  1.00  0.00     0.205 CG0
ATOM     43  C   UNL     1      13.045   1.259  -5.556  1.00  0.00     0.056 C 
ATOM     44  G   UNL     1      14.026   3.397  -4.568  1.00  0.00     0.000 G0
ENDBRANCH  41  42
ENDBRANCH  39  41
ENDBRANCH  35  39
ENDBRANCH  33  35
ENDBRANCH  23  31
ENDBRANCH  21  23
ENDBRANCH  19  21
ENDBRANCH  14  19
ENDBRANCH   7  14
ENDBRANCH   2   5
BRANCH   3  45
ATOM     45  C   UNL     1      -0.367  -1.150   4.763  1.00  0.00     0.171 C 
BRANCH  45  46
ATOM     46  N   UNL     1      -0.821  -0.885   6.122  1.00  0.00    -0.342 N 
ATOM     47  C   UNL     1      -2.090  -1.190   6.547  1.00  0.00     0.247 C 
ATOM     48  O   UNL     1      -2.910  -1.774   5.837  1.00  0.00    -0.273 OA
ATOM     49  H   UNL     1      -0.155  -0.454   6.760  1.00  0.00     0.164 HD
BRANCH  47  50
ATOM     50  C   UNL     1      -2.428  -0.726   7.971  1.00  0.00     0.212 CG0
ATOM     51  G   UNL     1      -1.726  -1.684   8.954  1.00  0.00     0.000 G0
BRANCH  50  52
ATOM     52  N   UNL     1      -1.942   0.649   8.058  1.00  0.00    -0.339 N 
ATOM     53  C   UNL     1      -2.642   1.660   8.668  1.00  0.00     0.243 C 
ATOM     54  O   UNL     1      -3.762   1.497   9.144  1.00  0.00    -0.273 OA
ATOM     55  H   UNL     1      -1.069   0.872   7.584  1.00  0.00     0.164 HD
BRANCH  53  56
ATOM     56  C   UNL     1      -1.970   3.044   8.559  1.00  0.00     0.182 C 
BRANCH  56  57
ATOM     57  N   UNL     1      -1.839   3.457   7.158  1.00  0.00    -0.344 N 
ATOM     58  C   UNL     1      -2.541   4.514   6.634  1.00  0.00     0.220 C 
ATOM     59  O   UNL     1      -3.378   5.138   7.277  1.00  0.00    -0.275 OA
ATOM     60  H   UNL     1      -1.085   3.034   6.622  1.00  0.00     0.164 HD
BRANCH  58  61
ATOM     61  C   UNL     1      -2.205   4.798   5.182  1.00  0.00     0.100 C 
BRANCH  61  62
ATOM     62  C   UNL     1      -0.748   4.513   4.819  1.00  0.00     0.010 C 
BRANCH  62  63
ATOM     63  C   UNL     1      -0.001   5.715   4.227  1.00  0.00     0.000 C 
BRANCH  63  64
ATOM     64  C   UNL     1       1.448   5.845   4.694  1.00  0.00    -0.003 C 
ATOM     65  C   UNL     1       2.332   4.779   4.065  1.00  0.00     0.004 C 
ENDBRANCH  63  64
ENDBRANCH  62  63
ENDBRANCH  61  62
ENDBRANCH  58  61
ENDBRANCH  56  57
BRANCH  56  66
ATOM     66  C   UNL     1      -0.632   3.076   9.297  1.00  0.00     0.157 C 
BRANCH  66  67
ATOM     67  C   UNL     1       0.516   3.192   8.337  1.00  0.00     0.305 C 
ATOM     68  O   UNL     1       1.131   4.207   8.049  1.00  0.00    -0.252 OA
BRANCH  67  69
ATOM     69  O   UNL     1       0.872   2.001   7.819  1.00  0.00    -0.481 OA
ATOM     70  H   UNL     1       1.785   1.849   8.144  1.00  0.00     0.296 HD
ENDBRANCH  67  69
ENDBRANCH  66  67
ENDBRANCH  56  66
ENDBRANCH  53  56
ENDBRANCH  50  52
ENDBRANCH  47  50
ENDBRANCH  45  46
BRANCH  45  71
ATOM     71  C   UNL     1       0.438  -2.452   4.679  1.00  0.00     0.037 C 
BRANCH  71  72
ATOM     72  C   UNL     1       1.676  -2.423   5.579  1.00  0.00     0.026 C 
BRANCH  72  73
ATOM     73  C   UNL     1       2.767  -3.357   5.060  1.00  0.00     0.146 C 
BRANCH  73  74
ATOM     74  N   UNL     1       2.418  -4.717   5.461  1.00  0.00    -0.254 NA
ATOM     75  C   UNL     1       2.194  -5.575   4.536  1.00  0.00     0.185 C 
ATOM     76  N   UNL     1       1.871  -6.835   4.873  1.00  0.00    -0.370 N 
ATOM     77  N   UNL     1       2.231  -5.409   3.202  1.00  0.00    -0.370 N 
ATOM     78  H   UNL     1       1.814  -7.043   5.859  1.00  0.00     0.159 HD
ATOM     79  H   UNL     1       1.543  -7.518   4.213  1.00  0.00     0.159 HD
ATOM     80  H   UNL     1       2.464  -4.513   2.802  1.00  0.00     0.159 HD
ATOM     81  H   UNL     1       2.150  -6.189   2.570  1.00  0.00     0.159 HD
ENDBRANCH  73  74
ENDBRANCH  72  73
ENDBRANCH  71  72
ENDBRANCH  45  71
ENDBRANCH   3  45
TORSDOF 20
ENDMDL
MODEL 50
REMARK VINA RESULT:    -5.221      4.435     12.316
REMARK INTER + INTRA:         -23.051
REMARK INTER:                 -17.152
REMARK INTRA:                  -5.899
REMARK UNBOUND:                -8.064
REMARK SMILES CCCCCC(=O)N[C@H](CC(=O)O)C(=O)N[C@H]1C(=O)N[C@H](CCCN=C(N)N)C(=O)N[C@@H]2CC[C@H](O)N(C2=O)[C@@H](CC(C)C)C(=O)N(C)[C@@H](Cc2ccccc2)C(=O)N[C@H](C(C)C)C(=O)O[C@@H]1C
REMARK SMILES IDX 30 1 31 2 29 3 32 5 35 6 37 7 34 8 38 9 33 10 39 11 36 12
REMARK SMILES IDX 40 14 41 15 42 16 43 17 44 18 45 19 46 20 47 21 48 22 49 23
REMARK SMILES IDX 50 24 51 25 52 26 56 27 53 28 55 29 54 30 57 31 58 32 59 33
REMARK SMILES IDX 60 35 61 36 62 37 63 38 64 39 65 40 66 41 67 42 68 43 21 45
REMARK SMILES IDX 20 46 18 47 19 48 17 50 16 52 14 53 15 54 9 56 8 57 6 58
REMARK SMILES IDX 7 59 5 61 4 62 3 63 2 64 1 65 10 66 11 67 12 68 13 69 22 71
REMARK SMILES IDX 23 72 24 73 25 74 26 75 27 76 28 77
REMARK H PARENT 31 4 36 13 59 34 20 49 16 55 8 60 13 70 27 78 27 79 28 80
REMARK H PARENT 28 81
REMARK Flexibility Score:  259.900
ROOT
ATOM      1  O   UNL     1       4.063   0.722   2.527  1.00  0.00    -0.273 OA
ATOM      2  N   UNL     1       4.382  -1.534   2.329  1.00  0.00    -0.343 N 
ATOM      3  C   UNL     1       4.764  -0.221   2.158  1.00  0.00     0.243 C 
ATOM      4  H   UNL     1       4.991  -2.284   2.025  1.00  0.00     0.164 HD
ENDROOT
BRANCH   2   5
ATOM      5  C   UNL     1       3.062  -1.861   2.856  1.00  0.00     0.171 C 
ATOM      6  C   UNL     1       1.987  -4.232   4.131  1.00  0.00     0.214 C 
ATOM      7  N   UNL     1       1.893  -4.092   2.697  1.00  0.00    -0.303 N 
ATOM      8  C   UNL     1       1.970  -2.902   4.868  1.00  0.00     0.057 C 
ATOM      9  C   UNL     1       2.430  -3.010   2.019  1.00  0.00     0.247 C 
ATOM     10  C   UNL     1       3.103  -2.028   4.374  1.00  0.00     0.040 C 
ATOM     11  O   UNL     1       2.421  -2.940   0.783  1.00  0.00    -0.272 OA
BRANCH   6  12
ATOM     12  O   UNL     1       3.172  -4.938   4.418  1.00  0.00    -0.373 OA
ATOM     13  H   UNL     1       3.353  -4.821   5.375  1.00  0.00     0.213 HD
ENDBRANCH   6  12
BRANCH   7  14
ATOM     14  C   UNL     1       1.322  -5.233   1.948  1.00  0.00     0.177 C 
BRANCH  14  15
ATOM     15  C   UNL     1       2.203  -6.497   1.907  1.00  0.00     0.038 C 
BRANCH  15  16
ATOM     16  C   UNL     1       2.783  -6.977   0.558  1.00  0.00    -0.015 C 
ATOM     17  C   UNL     1       1.866  -6.645  -0.623  1.00  0.00     0.007 C 
ATOM     18  C   UNL     1       2.989  -8.497   0.594  1.00  0.00     0.007 C 
ENDBRANCH  15  16
ENDBRANCH  14  15
BRANCH  14  19
ATOM     19  C   UNL     1      -0.242  -5.220   2.047  1.00  0.00     0.245 C 
ATOM     20  O   UNL     1      -0.785  -4.110   2.179  1.00  0.00    -0.272 OA
BRANCH  19  21
ATOM     21  N   UNL     1      -1.020  -6.362   2.108  1.00  0.00    -0.332 N 
ATOM     22  C   UNL     1      -2.052  -6.730   1.155  1.00  0.00     0.147 C 
BRANCH  21  23
ATOM     23  C   UNL     1      -0.799  -7.295   3.247  1.00  0.00     0.178 C 
BRANCH  23  24
ATOM     24  C   UNL     1      -1.464  -6.866   4.571  1.00  0.00     0.070 C 
BRANCH  24  25
ATOM     25  C   UNL     1      -0.553  -6.374   5.671  1.00  0.00    -0.045 A 
ATOM     26  C   UNL     1       0.616  -7.073   6.001  1.00  0.00     0.004 A 
ATOM     27  C   UNL     1      -0.869  -5.207   6.383  1.00  0.00     0.004 A 
ATOM     28  C   UNL     1       1.444  -6.620   7.031  1.00  0.00     0.000 A 
ATOM     29  C   UNL     1      -0.040  -4.756   7.411  1.00  0.00     0.000 A 
ATOM     30  C   UNL     1       1.115  -5.465   7.736  1.00  0.00     0.000 A 
ENDBRANCH  24  25
ENDBRANCH  23  24
BRANCH  23  31
ATOM     31  C   UNL     1      -1.012  -8.779   2.862  1.00  0.00     0.243 C 
ATOM     32  O   UNL     1      -0.222  -9.433   2.185  1.00  0.00    -0.273 OA
ATOM     33  N   UNL     1      -2.267  -9.262   3.192  1.00  0.00    -0.341 N 
ATOM     34  H   UNL     1      -2.883  -8.668   3.752  1.00  0.00     0.164 HD
BRANCH  33  35
ATOM     35  C   UNL     1      -2.731 -10.600   2.818  1.00  0.00     0.194 C 
BRANCH  35  36
ATOM     36  C   UNL     1      -4.116 -10.618   2.111  1.00  0.00     0.017 C 
ATOM     37  C   UNL     1      -4.047  -9.944   0.729  1.00  0.00     0.010 C 
ATOM     38  C   UNL     1      -5.213  -9.908   2.913  1.00  0.00     0.010 C 
ENDBRANCH  35  36
BRANCH  35  39
ATOM     39  C   UNL     1      -2.671 -11.606   4.002  1.00  0.00     0.329 C 
ATOM     40  O   UNL     1      -2.307 -11.312   5.134  1.00  0.00    -0.250 OA
BRANCH  39  41
ATOM     41  O   UNL     1      -3.155 -12.839   3.661  1.00  0.00    -0.458 OA
BRANCH  41  42
ATOM     42  C   UNL     1      -3.746 -13.614   4.732  1.00  0.00     0.205 CG0
ATOM     43  C   UNL     1      -5.240 -13.294   4.752  1.00  0.00     0.056 C 
ATOM     44  G   UNL     1      -3.046 -13.241   6.053  1.00  0.00     0.000 G0
ENDBRANCH  41  42
ENDBRANCH  39  41
ENDBRANCH  35  39
ENDBRANCH  33  35
ENDBRANCH  23  31
ENDBRANCH  21  23
ENDBRANCH  19  21
ENDBRANCH  14  19
ENDBRANCH   7  14
ENDBRANCH   2   5
BRANCH   3  45
ATOM     45  C   UNL     1       6.132  -0.015   1.494  1.00  0.00     0.171 C 
BRANCH  45  46
ATOM     46  N   UNL     1       6.114   1.343   0.966  1.00  0.00    -0.342 N 
ATOM     47  C   UNL     1       7.134   2.232   1.187  1.00  0.00     0.247 C 
ATOM     48  O   UNL     1       8.169   1.928   1.783  1.00  0.00    -0.273 OA
ATOM     49  H   UNL     1       5.300   1.618   0.418  1.00  0.00     0.164 HD
BRANCH  47  50
ATOM     50  C   UNL     1       6.884   3.653   0.661  1.00  0.00     0.212 CG0
ATOM     51  G   UNL     1       8.125   4.502   1.000  1.00  0.00     0.000 G0
BRANCH  50  52
ATOM     52  N   UNL     1       6.663   3.503  -0.775  1.00  0.00    -0.339 N 
ATOM     53  C   UNL     1       7.176   4.365  -1.713  1.00  0.00     0.243 C 
ATOM     54  O   UNL     1       7.820   5.366  -1.410  1.00  0.00    -0.273 OA
ATOM     55  H   UNL     1       6.044   2.755  -1.082  1.00  0.00     0.164 HD
BRANCH  53  56
ATOM     56  C   UNL     1       6.736   4.055  -3.158  1.00  0.00     0.182 C 
BRANCH  56  57
ATOM     57  N   UNL     1       6.193   2.697  -3.263  1.00  0.00    -0.344 N 
ATOM     58  C   UNL     1       4.858   2.423  -3.093  1.00  0.00     0.220 C 
ATOM     59  O   UNL     1       4.041   3.279  -2.771  1.00  0.00    -0.275 OA
ATOM     60  H   UNL     1       6.815   1.979  -3.626  1.00  0.00     0.164 HD
BRANCH  58  61
ATOM     61  C   UNL     1       4.512   0.961  -3.304  1.00  0.00     0.100 C 
BRANCH  61  62
ATOM     62  C   UNL     1       5.552  -0.007  -2.737  1.00  0.00     0.010 C 
BRANCH  62  63
ATOM     63  C   UNL     1       6.369  -0.745  -3.805  1.00  0.00     0.000 C 
BRANCH  63  64
ATOM     64  C   UNL     1       6.813  -2.149  -3.395  1.00  0.00    -0.003 C 
ATOM     65  C   UNL     1       8.325  -2.297  -3.470  1.00  0.00     0.004 C 
ENDBRANCH  63  64
ENDBRANCH  62  63
ENDBRANCH  61  62
ENDBRANCH  58  61
ENDBRANCH  56  57
BRANCH  56  66
ATOM     66  C   UNL     1       7.869   4.301  -4.153  1.00  0.00     0.157 C 
BRANCH  66  67
ATOM     67  C   UNL     1       8.443   3.007  -4.655  1.00  0.00     0.305 C 
ATOM     68  O   UNL     1       8.993   2.142  -3.990  1.00  0.00    -0.252 OA
BRANCH  67  69
ATOM     69  O   UNL     1       8.248   2.839  -5.976  1.00  0.00    -0.481 OA
ATOM     70  H   UNL     1       9.040   2.352  -6.287  1.00  0.00     0.296 HD
ENDBRANCH  67  69
ENDBRANCH  66  67
ENDBRANCH  56  66
ENDBRANCH  53  56
ENDBRANCH  50  52
ENDBRANCH  47  50
ENDBRANCH  45  46
BRANCH  45  71
ATOM     71  C   UNL     1       6.347  -1.050   0.384  1.00  0.00     0.037 C 
BRANCH  71  72
ATOM     72  C   UNL     1       7.833  -1.294   0.104  1.00  0.00     0.026 C 
BRANCH  72  73
ATOM     73  C   UNL     1       8.218  -2.751   0.348  1.00  0.00     0.146 C 
BRANCH  73  74
ATOM     74  N   UNL     1       7.005  -3.557   0.244  1.00  0.00    -0.254 NA
ATOM     75  C   UNL     1       6.590  -4.155   1.299  1.00  0.00     0.185 C 
ATOM     76  N   UNL     1       5.476  -4.902   1.234  1.00  0.00    -0.370 N 
ATOM     77  N   UNL     1       7.119  -4.153   2.535  1.00  0.00    -0.370 N 
ATOM     78  H   UNL     1       5.018  -4.964   0.336  1.00  0.00     0.159 HD
ATOM     79  H   UNL     1       5.174  -5.511   1.975  1.00  0.00     0.159 HD
ATOM     80  H   UNL     1       7.958  -3.629   2.733  1.00  0.00     0.159 HD
ATOM     81  H   UNL     1       6.639  -4.568   3.316  1.00  0.00     0.159 HD
ENDBRANCH  73  74
ENDBRANCH  72  73
ENDBRANCH  71  72
ENDBRANCH  45  71
ENDBRANCH   3  45
TORSDOF 20
ENDMDL
