MODEL 1
REMARK VINA RESULT:    -8.008      0.000      0.000
REMARK INTER + INTRA:         -19.414
REMARK INTER:                 -16.201
REMARK INTRA:                  -3.213
REMARK UNBOUND:                -3.213
REMARK SMILES CC[C@@H](C)[C@@H](NC(=O)[C@@H](O)Cc1ccc(O)c(Cl)c1)C(=O)N1[C@H](C(=O)NCCCCN=C(N)N)C[C@H]2CC[C@H](OS(=O)(=O)O)C[C@@H]21
REMARK SMILES IDX 22 1 36 2 46 3 35 4 23 5 45 6 37 7 39 8 38 9 20 10 21 11
REMARK SMILES IDX 5 12 6 13 7 14 8 15 9 17 11 18 12 19 17 20 19 21 15 22 14 23
REMARK SMILES IDX 13 24 18 25 16 26 10 28 3 30 4 31 2 32 1 33 24 34 25 35
REMARK SMILES IDX 26 36 27 38 28 39 29 40 30 41 31 42 32 43 33 44 34 45 40 50
REMARK SMILES IDX 41 51 42 52 43 53 44 54
REMARK H PARENT 6 16 16 27 10 29 26 37 33 46 33 47 34 48 34 49 44 55
ROOT
ATOM      1  N   UNL     1      -7.618  -4.200  -3.163  1.00  0.00    -0.326 N 
ATOM      2  C   UNL     1      -8.548  -2.066  -3.514  1.00  0.00     0.014 C 
ATOM      3  C   UNL     1      -8.304  -3.128  -2.437  1.00  0.00     0.091 C 
ATOM      4  C   UNL     1      -8.802  -2.903  -4.758  1.00  0.00     0.041 C 
ATOM      5  C   UNL     1      -7.672  -3.941  -4.623  1.00  0.00     0.175 C 
ATOM      6  C   UNL     1      -7.580  -2.469  -1.264  1.00  0.00     0.059 C 
ATOM      7  C   UNL     1      -9.595  -1.067  -3.063  1.00  0.00     0.008 C 
ATOM      8  C   UNL     1      -7.953  -0.984  -1.059  1.00  0.00     0.143 C 
ATOM      9  C   UNL     1      -9.363  -0.662  -1.592  1.00  0.00     0.034 C 
ENDROOT
BRANCH   1  10
ATOM     10  C   UNL     1      -7.164  -5.428  -2.712  1.00  0.00     0.246 C 
ATOM     11  O   UNL     1      -7.871  -6.428  -2.879  1.00  0.00    -0.272 OA
BRANCH  10  12
ATOM     12  C   UNL     1      -5.761  -5.531  -2.047  1.00  0.00     0.174 C 
BRANCH  12  13
ATOM     13  N   UNL     1      -4.901  -6.417  -2.830  1.00  0.00    -0.342 N 
ATOM     14  C   UNL     1      -3.569  -6.192  -3.098  1.00  0.00     0.249 C 
ATOM     15  O   UNL     1      -2.944  -5.226  -2.681  1.00  0.00    -0.272 OA
ATOM     16  H   UNL     1      -5.315  -7.173  -3.369  1.00  0.00     0.164 HD
BRANCH  14  17
ATOM     17  C   UNL     1      -2.941  -7.303  -3.966  1.00  0.00     0.207 C 
BRANCH  17  18
ATOM     18  C   UNL     1      -3.477  -7.230  -5.400  1.00  0.00     0.077 C 
BRANCH  18  19
ATOM     19  C   UNL     1      -2.359  -7.220  -6.418  1.00  0.00    -0.043 A 
ATOM     20  C   UNL     1      -1.158  -8.291  -8.233  1.00  0.00     0.083 A 
ATOM     21  C   UNL     1      -2.220  -8.280  -7.328  1.00  0.00     0.028 A 
ATOM     22  C   UNL     1      -0.230  -7.249  -8.234  1.00  0.00     0.134 A 
ATOM     23  C   UNL     1      -0.356  -6.194  -7.338  1.00  0.00     0.048 A 
ATOM     24  C   UNL     1      -1.416  -6.180  -6.430  1.00  0.00     0.008 A 
ATOM     25  Cl  UNL     1      -1.004  -9.602  -9.343  1.00  0.00    -0.080 Cl
BRANCH  22  26
ATOM     26  O   UNL     1       0.833  -7.222  -9.096  1.00  0.00    -0.506 OA
ATOM     27  H   UNL     1       0.579  -6.640  -9.836  1.00  0.00     0.293 HD
ENDBRANCH  22  26
ENDBRANCH  18  19
ENDBRANCH  17  18
BRANCH  17  28
ATOM     28  O   UNL     1      -3.215  -8.604  -3.420  1.00  0.00    -0.383 OA
ATOM     29  H   UNL     1      -2.865  -8.592  -2.501  1.00  0.00     0.211 HD
ENDBRANCH  17  28
ENDBRANCH  14  17
ENDBRANCH  12  13
BRANCH  12  30
ATOM     30  C   UNL     1      -5.835  -5.945  -0.553  1.00  0.00     0.018 C 
ATOM     31  C   UNL     1      -5.070  -4.946   0.330  1.00  0.00     0.010 C 
BRANCH  30  32
ATOM     32  C   UNL     1      -5.335  -7.385  -0.282  1.00  0.00     0.002 C 
ATOM     33  C   UNL     1      -6.428  -8.436  -0.134  1.00  0.00     0.004 C 
ENDBRANCH  30  32
ENDBRANCH  12  30
ENDBRANCH  10  12
ENDBRANCH   1  10
BRANCH   5  34
ATOM     34  C   UNL     1      -6.318  -3.382  -5.134  1.00  0.00     0.242 C 
ATOM     35  O   UNL     1      -5.864  -2.304  -4.750  1.00  0.00    -0.273 OA
ATOM     36  N   UNL     1      -5.688  -4.152  -6.086  1.00  0.00    -0.354 N 
ATOM     37  H   UNL     1      -6.171  -4.974  -6.452  1.00  0.00     0.163 HD
BRANCH  36  38
ATOM     38  C   UNL     1      -4.327  -3.897  -6.511  1.00  0.00     0.116 C 
BRANCH  38  39
ATOM     39  C   UNL     1      -4.215  -4.071  -8.024  1.00  0.00     0.023 C 
BRANCH  39  40
ATOM     40  C   UNL     1      -5.471  -3.615  -8.758  1.00  0.00     0.026 C 
BRANCH  40  41
ATOM     41  C   UNL     1      -6.002  -4.724  -9.665  1.00  0.00     0.146 C 
BRANCH  41  42
ATOM     42  N   UNL     1      -6.341  -5.895  -8.866  1.00  0.00    -0.254 NA
ATOM     43  C   UNL     1      -6.544  -7.018  -9.444  1.00  0.00     0.185 C 
ATOM     44  N   UNL     1      -6.499  -7.341 -10.750  1.00  0.00    -0.370 N 
ATOM     45  N   UNL     1      -6.859  -8.084  -8.690  1.00  0.00    -0.370 N 
ATOM     46  H   UNL     1      -6.916  -8.193 -11.083  1.00  0.00     0.159 HD
ATOM     47  H   UNL     1      -6.261  -6.655 -11.460  1.00  0.00     0.159 HD
ATOM     48  H   UNL     1      -6.906  -7.930  -7.692  1.00  0.00     0.159 HD
ATOM     49  H   UNL     1      -6.800  -9.028  -9.030  1.00  0.00     0.159 HD
ENDBRANCH  41  42
ENDBRANCH  40  41
ENDBRANCH  39  40
ENDBRANCH  38  39
ENDBRANCH  36  38
ENDBRANCH   5  34
BRANCH   8  50
ATOM     50  O   UNL     1      -7.012  -0.146  -1.730  1.00  0.00    -0.245 OA
BRANCH  50  51
ATOM     51  S   UNL     1      -6.519   1.234  -1.023  1.00  0.00     0.397 S 
ATOM     52  O   UNL     1      -7.195   1.350   0.249  1.00  0.00    -0.169 OA
ATOM     53  O   UNL     1      -6.535   2.309  -1.993  1.00  0.00    -0.169 OA
BRANCH  51  54
ATOM     54  O   UNL     1      -4.984   0.903  -0.675  1.00  0.00    -0.264 OA
ATOM     55  H   UNL     1      -4.526   1.752  -0.510  1.00  0.00     0.236 HD
ENDBRANCH  51  54
ENDBRANCH  50  51
ENDBRANCH   8  50
TORSDOF 19
ENDMDL
MODEL 2
REMARK VINA RESULT:    -7.861      4.046      8.090
REMARK INTER + INTRA:         -19.117
REMARK INTER:                 -13.624
REMARK INTRA:                  -5.493
REMARK UNBOUND:                -3.213
REMARK SMILES CC[C@@H](C)[C@@H](NC(=O)[C@@H](O)Cc1ccc(O)c(Cl)c1)C(=O)N1[C@H](C(=O)NCCCCN=C(N)N)C[C@H]2CC[C@H](OS(=O)(=O)O)C[C@@H]21
REMARK SMILES IDX 22 1 36 2 46 3 35 4 23 5 45 6 37 7 39 8 38 9 20 10 21 11
REMARK SMILES IDX 5 12 6 13 7 14 8 15 9 17 11 18 12 19 17 20 19 21 15 22 14 23
REMARK SMILES IDX 13 24 18 25 16 26 10 28 3 30 4 31 2 32 1 33 24 34 25 35
REMARK SMILES IDX 26 36 27 38 28 39 29 40 30 41 31 42 32 43 33 44 34 45 40 50
REMARK SMILES IDX 41 51 42 52 43 53 44 54
REMARK H PARENT 6 16 16 27 10 29 26 37 33 46 33 47 34 48 34 49 44 55
ROOT
ATOM      1  N   UNL     1      -2.752  -6.086  -5.413  1.00  0.00    -0.326 N 
ATOM      2  C   UNL     1      -2.246  -6.772  -7.608  1.00  0.00     0.014 C 
ATOM      3  C   UNL     1      -3.035  -7.170  -6.357  1.00  0.00     0.091 C 
ATOM      4  C   UNL     1      -1.011  -6.102  -7.025  1.00  0.00     0.041 C 
ATOM      5  C   UNL     1      -1.663  -5.226  -5.939  1.00  0.00     0.175 C 
ATOM      6  C   UNL     1      -4.487  -7.418  -6.762  1.00  0.00     0.059 C 
ATOM      7  C   UNL     1      -2.079  -7.953  -8.543  1.00  0.00     0.008 C 
ATOM      8  C   UNL     1      -4.648  -7.969  -8.195  1.00  0.00     0.143 C 
ATOM      9  C   UNL     1      -3.399  -8.744  -8.661  1.00  0.00     0.034 C 
ENDROOT
BRANCH   1  10
ATOM     10  C   UNL     1      -3.178  -5.911  -4.108  1.00  0.00     0.246 C 
ATOM     11  O   UNL     1      -2.336  -5.826  -3.207  1.00  0.00    -0.272 OA
BRANCH  10  12
ATOM     12  C   UNL     1      -4.700  -5.784  -3.808  1.00  0.00     0.174 C 
BRANCH  12  13
ATOM     13  N   UNL     1      -5.224  -4.556  -4.402  1.00  0.00    -0.342 N 
ATOM     14  C   UNL     1      -6.341  -4.480  -5.204  1.00  0.00     0.249 C 
ATOM     15  O   UNL     1      -7.043  -5.442  -5.488  1.00  0.00    -0.272 OA
ATOM     16  H   UNL     1      -4.663  -3.708  -4.384  1.00  0.00     0.164 HD
BRANCH  14  17
ATOM     17  C   UNL     1      -6.628  -3.043  -5.691  1.00  0.00     0.207 C 
BRANCH  17  18
ATOM     18  C   UNL     1      -8.021  -2.592  -5.239  1.00  0.00     0.077 C 
BRANCH  18  19
ATOM     19  C   UNL     1      -8.009  -2.070  -3.819  1.00  0.00    -0.043 A 
ATOM     20  C   UNL     1      -9.133  -1.717  -1.699  1.00  0.00     0.083 A 
ATOM     21  C   UNL     1      -9.128  -2.244  -2.991  1.00  0.00     0.028 A 
ATOM     22  C   UNL     1      -8.023  -1.015  -1.227  1.00  0.00     0.134 A 
ATOM     23  C   UNL     1      -6.907  -0.836  -2.037  1.00  0.00     0.048 A 
ATOM     24  C   UNL     1      -6.901  -1.360  -3.332  1.00  0.00     0.008 A 
ATOM     25  Cl  UNL     1     -10.518  -1.941  -0.697  1.00  0.00    -0.080 Cl
BRANCH  22  26
ATOM     26  O   UNL     1      -7.985  -0.472   0.028  1.00  0.00    -0.506 OA
ATOM     27  H   UNL     1      -7.583   0.412  -0.061  1.00  0.00     0.293 HD
ENDBRANCH  22  26
ENDBRANCH  18  19
ENDBRANCH  17  18
BRANCH  17  28
ATOM     28  O   UNL     1      -6.541  -2.956  -7.122  1.00  0.00    -0.383 OA
ATOM     29  H   UNL     1      -7.077  -3.702  -7.474  1.00  0.00     0.211 HD
ENDBRANCH  17  28
ENDBRANCH  14  17
ENDBRANCH  12  13
BRANCH  12  30
ATOM     30  C   UNL     1      -5.024  -5.895  -2.294  1.00  0.00     0.018 C 
ATOM     31  C   UNL     1      -6.087  -6.976  -2.041  1.00  0.00     0.010 C 
BRANCH  30  32
ATOM     32  C   UNL     1      -5.463  -4.557  -1.652  1.00  0.00     0.002 C 
ATOM     33  C   UNL     1      -6.848  -4.561  -1.019  1.00  0.00     0.004 C 
ENDBRANCH  30  32
ENDBRANCH  12  30
ENDBRANCH  10  12
ENDBRANCH   1  10
BRANCH   5  34
ATOM     34  C   UNL     1      -2.237  -3.912  -6.534  1.00  0.00     0.242 C 
ATOM     35  O   UNL     1      -3.447  -3.706  -6.626  1.00  0.00    -0.273 OA
ATOM     36  N   UNL     1      -1.298  -3.020  -6.999  1.00  0.00    -0.354 N 
ATOM     37  H   UNL     1      -0.316  -3.298  -7.004  1.00  0.00     0.163 HD
BRANCH  36  38
ATOM     38  C   UNL     1      -1.640  -1.666  -7.383  1.00  0.00     0.116 C 
BRANCH  38  39
ATOM     39  C   UNL     1      -1.308  -1.446  -8.857  1.00  0.00     0.023 C 
BRANCH  39  40
ATOM     40  C   UNL     1      -1.223  -2.753  -9.637  1.00  0.00     0.026 C 
BRANCH  40  41
ATOM     41  C   UNL     1      -2.240  -2.770 -10.778  1.00  0.00     0.146 C 
BRANCH  41  42
ATOM     42  N   UNL     1      -3.375  -1.922 -10.439  1.00  0.00    -0.254 NA
ATOM     43  C   UNL     1      -4.378  -2.424  -9.821  1.00  0.00     0.185 C 
ATOM     44  N   UNL     1      -4.590  -3.682  -9.395  1.00  0.00    -0.370 N 
ATOM     45  N   UNL     1      -5.416  -1.626  -9.522  1.00  0.00    -0.370 N 
ATOM     46  H   UNL     1      -5.515  -3.990  -9.145  1.00  0.00     0.159 HD
ATOM     47  H   UNL     1      -3.899  -4.414  -9.527  1.00  0.00     0.159 HD
ATOM     48  H   UNL     1      -5.333  -0.658  -9.801  1.00  0.00     0.159 HD
ATOM     49  H   UNL     1      -6.116  -1.876  -8.846  1.00  0.00     0.159 HD
ENDBRANCH  41  42
ENDBRANCH  40  41
ENDBRANCH  39  40
ENDBRANCH  38  39
ENDBRANCH  36  38
ENDBRANCH   5  34
BRANCH   8  50
ATOM     50  O   UNL     1      -4.884  -6.897  -9.109  1.00  0.00    -0.245 OA
BRANCH  50  51
ATOM     51  S   UNL     1      -6.360  -6.713  -9.767  1.00  0.00     0.397 S 
ATOM     52  O   UNL     1      -6.854  -8.023 -10.128  1.00  0.00    -0.169 OA
ATOM     53  O   UNL     1      -6.334  -5.622 -10.719  1.00  0.00    -0.169 OA
BRANCH  51  54
ATOM     54  O   UNL     1      -7.236  -6.247  -8.502  1.00  0.00    -0.264 OA
ATOM     55  H   UNL     1      -7.149  -5.276  -8.421  1.00  0.00     0.236 HD
ENDBRANCH  51  54
ENDBRANCH  50  51
ENDBRANCH   8  50
TORSDOF 19
ENDMDL
MODEL 3
REMARK VINA RESULT:    -7.502      4.851      8.773
REMARK INTER + INTRA:         -18.390
REMARK INTER:                 -14.547
REMARK INTRA:                  -3.842
REMARK UNBOUND:                -3.213
REMARK SMILES CC[C@@H](C)[C@@H](NC(=O)[C@@H](O)Cc1ccc(O)c(Cl)c1)C(=O)N1[C@H](C(=O)NCCCCN=C(N)N)C[C@H]2CC[C@H](OS(=O)(=O)O)C[C@@H]21
REMARK SMILES IDX 22 1 36 2 46 3 35 4 23 5 45 6 37 7 39 8 38 9 20 10 21 11
REMARK SMILES IDX 5 12 6 13 7 14 8 15 9 17 11 18 12 19 17 20 19 21 15 22 14 23
REMARK SMILES IDX 13 24 18 25 16 26 10 28 3 30 4 31 2 32 1 33 24 34 25 35
REMARK SMILES IDX 26 36 27 38 28 39 29 40 30 41 31 42 32 43 33 44 34 45 40 50
REMARK SMILES IDX 41 51 42 52 43 53 44 54
REMARK H PARENT 6 16 16 27 10 29 26 37 33 46 33 47 34 48 34 49 44 55
ROOT
ATOM      1  N   UNL     1      -2.602  -6.112  -5.524  1.00  0.00    -0.326 N 
ATOM      2  C   UNL     1      -2.063  -6.892  -7.679  1.00  0.00     0.014 C 
ATOM      3  C   UNL     1      -2.800  -7.276  -6.393  1.00  0.00     0.091 C 
ATOM      4  C   UNL     1      -0.885  -6.082  -7.161  1.00  0.00     0.041 C 
ATOM      5  C   UNL     1      -1.598  -5.197  -6.122  1.00  0.00     0.175 C 
ATOM      6  C   UNL     1      -4.230  -7.674  -6.756  1.00  0.00     0.059 C 
ATOM      7  C   UNL     1      -1.804  -8.113  -8.540  1.00  0.00     0.008 C 
ATOM      8  C   UNL     1      -4.358  -8.328  -8.148  1.00  0.00     0.143 C 
ATOM      9  C   UNL     1      -3.051  -9.021  -8.585  1.00  0.00     0.034 C 
ENDROOT
BRANCH   1  10
ATOM     10  C   UNL     1      -3.027  -5.891  -4.225  1.00  0.00     0.246 C 
ATOM     11  O   UNL     1      -2.186  -5.800  -3.325  1.00  0.00    -0.272 OA
BRANCH  10  12
ATOM     12  C   UNL     1      -4.546  -5.719  -3.934  1.00  0.00     0.174 C 
BRANCH  12  13
ATOM     13  N   UNL     1      -5.052  -4.527  -4.613  1.00  0.00    -0.342 N 
ATOM     14  C   UNL     1      -6.124  -4.505  -5.477  1.00  0.00     0.249 C 
ATOM     15  O   UNL     1      -6.797  -5.490  -5.753  1.00  0.00    -0.272 OA
ATOM     16  H   UNL     1      -4.504  -3.671  -4.604  1.00  0.00     0.164 HD
BRANCH  14  17
ATOM     17  C   UNL     1      -6.402  -3.097  -6.046  1.00  0.00     0.207 C 
BRANCH  17  18
ATOM     18  C   UNL     1      -7.820  -2.644  -5.685  1.00  0.00     0.077 C 
BRANCH  18  19
ATOM     19  C   UNL     1      -7.893  -2.094  -4.278  1.00  0.00    -0.043 A 
ATOM     20  C   UNL     1      -6.868  -0.902  -2.430  1.00  0.00     0.083 A 
ATOM     21  C   UNL     1      -6.818  -1.365  -3.746  1.00  0.00     0.028 A 
ATOM     22  C   UNL     1      -7.987  -1.164  -1.640  1.00  0.00     0.134 A 
ATOM     23  C   UNL     1      -9.059  -1.886  -2.154  1.00  0.00     0.048 A 
ATOM     24  C   UNL     1      -9.011  -2.352  -3.470  1.00  0.00     0.008 A 
ATOM     25  Cl  UNL     1      -5.538  -0.007  -1.795  1.00  0.00    -0.080 Cl
BRANCH  22  26
ATOM     26  O   UNL     1      -8.078  -0.740  -0.342  1.00  0.00    -0.506 OA
ATOM     27  H   UNL     1      -8.967  -0.987  -0.028  1.00  0.00     0.293 HD
ENDBRANCH  22  26
ENDBRANCH  18  19
ENDBRANCH  17  18
BRANCH  17  28
ATOM     28  O   UNL     1      -6.244  -3.076  -7.474  1.00  0.00    -0.383 OA
ATOM     29  H   UNL     1      -6.077  -4.008  -7.743  1.00  0.00     0.211 HD
ENDBRANCH  17  28
ENDBRANCH  14  17
ENDBRANCH  12  13
BRANCH  12  30
ATOM     30  C   UNL     1      -4.869  -5.718  -2.415  1.00  0.00     0.018 C 
ATOM     31  C   UNL     1      -5.366  -7.099  -1.961  1.00  0.00     0.010 C 
BRANCH  30  32
ATOM     32  C   UNL     1      -5.881  -4.624  -1.996  1.00  0.00     0.002 C 
ATOM     33  C   UNL     1      -7.309  -5.108  -1.775  1.00  0.00     0.004 C 
ENDBRANCH  30  32
ENDBRANCH  12  30
ENDBRANCH  10  12
ENDBRANCH   1  10
BRANCH   5  34
ATOM     34  C   UNL     1      -2.292  -3.979  -6.789  1.00  0.00     0.242 C 
ATOM     35  O   UNL     1      -3.413  -4.055  -7.293  1.00  0.00    -0.273 OA
ATOM     36  N   UNL     1      -1.543  -2.825  -6.824  1.00  0.00    -0.354 N 
ATOM     37  H   UNL     1      -0.576  -2.857  -6.498  1.00  0.00     0.163 HD
BRANCH  36  38
ATOM     38  C   UNL     1      -2.107  -1.548  -7.210  1.00  0.00     0.116 C 
BRANCH  38  39
ATOM     39  C   UNL     1      -1.403  -1.027  -8.460  1.00  0.00     0.023 C 
BRANCH  39  40
ATOM     40  C   UNL     1       0.102  -0.880  -8.263  1.00  0.00     0.026 C 
BRANCH  40  41
ATOM     41  C   UNL     1       0.642   0.302  -9.069  1.00  0.00     0.146 C 
BRANCH  41  42
ATOM     42  N   UNL     1       1.990   0.627  -8.624  1.00  0.00    -0.254 NA
ATOM     43  C   UNL     1       2.847   1.065  -9.469  1.00  0.00     0.185 C 
ATOM     44  N   UNL     1       2.721   1.298 -10.788  1.00  0.00    -0.370 N 
ATOM     45  N   UNL     1       4.087   1.354  -9.039  1.00  0.00    -0.370 N 
ATOM     46  H   UNL     1       3.534   1.406 -11.369  1.00  0.00     0.159 HD
ATOM     47  H   UNL     1       1.843   1.145 -11.274  1.00  0.00     0.159 HD
ATOM     48  H   UNL     1       4.264   1.215  -8.054  1.00  0.00     0.159 HD
ATOM     49  H   UNL     1       4.730   1.914  -9.571  1.00  0.00     0.159 HD
ENDBRANCH  41  42
ENDBRANCH  40  41
ENDBRANCH  39  40
ENDBRANCH  38  39
ENDBRANCH  36  38
ENDBRANCH   5  34
BRANCH   8  50
ATOM     50  O   UNL     1      -4.697  -7.342  -9.124  1.00  0.00    -0.245 OA
BRANCH  50  51
ATOM     51  S   UNL     1      -6.248  -6.888  -9.301  1.00  0.00     0.397 S 
ATOM     52  O   UNL     1      -6.776  -7.551 -10.472  1.00  0.00    -0.169 OA
ATOM     53  O   UNL     1      -6.358  -5.455  -9.125  1.00  0.00    -0.169 OA
BRANCH  51  54
ATOM     54  O   UNL     1      -6.952  -7.598  -8.042  1.00  0.00    -0.264 OA
ATOM     55  H   UNL     1      -7.834  -7.189  -7.923  1.00  0.00     0.236 HD
ENDBRANCH  51  54
ENDBRANCH  50  51
ENDBRANCH   8  50
TORSDOF 19
ENDMDL
MODEL 4
REMARK VINA RESULT:    -7.388      4.397      8.223
REMARK INTER + INTRA:         -18.158
REMARK INTER:                 -15.277
REMARK INTRA:                  -2.882
REMARK UNBOUND:                -3.213
REMARK SMILES CC[C@@H](C)[C@@H](NC(=O)[C@@H](O)Cc1ccc(O)c(Cl)c1)C(=O)N1[C@H](C(=O)NCCCCN=C(N)N)C[C@H]2CC[C@H](OS(=O)(=O)O)C[C@@H]21
REMARK SMILES IDX 22 1 36 2 46 3 35 4 23 5 45 6 37 7 39 8 38 9 20 10 21 11
REMARK SMILES IDX 5 12 6 13 7 14 8 15 9 17 11 18 12 19 17 20 19 21 15 22 14 23
REMARK SMILES IDX 13 24 18 25 16 26 10 28 3 30 4 31 2 32 1 33 24 34 25 35
REMARK SMILES IDX 26 36 27 38 28 39 29 40 30 41 31 42 32 43 33 44 34 45 40 50
REMARK SMILES IDX 41 51 42 52 43 53 44 54
REMARK H PARENT 6 16 16 27 10 29 26 37 33 46 33 47 34 48 34 49 44 55
ROOT
ATOM      1  N   UNL     1      -3.775  -6.505  -5.381  1.00  0.00    -0.326 N 
ATOM      2  C   UNL     1      -4.084  -7.324  -7.566  1.00  0.00     0.014 C 
ATOM      3  C   UNL     1      -4.842  -6.815  -6.337  1.00  0.00     0.091 C 
ATOM      4  C   UNL     1      -2.898  -8.052  -6.952  1.00  0.00     0.041 C 
ATOM      5  C   UNL     1      -2.479  -7.031  -5.877  1.00  0.00     0.175 C 
ATOM      6  C   UNL     1      -5.772  -5.686  -6.776  1.00  0.00     0.059 C 
ATOM      7  C   UNL     1      -5.011  -8.072  -8.504  1.00  0.00     0.008 C 
ATOM      8  C   UNL     1      -6.307  -5.846  -8.215  1.00  0.00     0.143 C 
ATOM      9  C   UNL     1      -6.352  -7.323  -8.656  1.00  0.00     0.034 C 
ENDROOT
BRANCH   1  10
ATOM     10  C   UNL     1      -3.856  -6.026  -4.085  1.00  0.00     0.246 C 
ATOM     11  O   UNL     1      -2.903  -5.394  -3.616  1.00  0.00    -0.272 OA
BRANCH  10  12
ATOM     12  C   UNL     1      -5.158  -6.255  -3.263  1.00  0.00     0.174 C 
BRANCH  12  13
ATOM     13  N   UNL     1      -5.881  -4.993  -3.111  1.00  0.00    -0.342 N 
ATOM     14  C   UNL     1      -7.203  -4.796  -3.440  1.00  0.00     0.249 C 
ATOM     15  O   UNL     1      -7.937  -5.675  -3.874  1.00  0.00    -0.272 OA
ATOM     16  H   UNL     1      -5.366  -4.139  -2.912  1.00  0.00     0.164 HD
BRANCH  14  17
ATOM     17  C   UNL     1      -7.672  -3.348  -3.181  1.00  0.00     0.207 C 
BRANCH  17  18
ATOM     18  C   UNL     1      -7.590  -3.017  -1.687  1.00  0.00     0.077 C 
BRANCH  18  19
ATOM     19  C   UNL     1      -8.728  -3.639  -0.911  1.00  0.00    -0.043 A 
ATOM     20  C   UNL     1     -10.931  -3.469   0.090  1.00  0.00     0.083 A 
ATOM     21  C   UNL     1      -9.903  -2.910  -0.669  1.00  0.00     0.028 A 
ATOM     22  C   UNL     1     -10.794  -4.756   0.612  1.00  0.00     0.134 A 
ATOM     23  C   UNL     1      -9.636  -5.489   0.380  1.00  0.00     0.048 A 
ATOM     24  C   UNL     1      -8.604  -4.932  -0.377  1.00  0.00     0.008 A 
ATOM     25  Cl  UNL     1     -12.367  -2.557   0.376  1.00  0.00    -0.080 Cl
BRANCH  22  26
ATOM     26  O   UNL     1     -11.771  -5.342   1.371  1.00  0.00    -0.506 OA
ATOM     27  H   UNL     1     -12.621  -5.133   0.942  1.00  0.00     0.293 HD
ENDBRANCH  22  26
ENDBRANCH  18  19
ENDBRANCH  17  18
BRANCH  17  28
ATOM     28  O   UNL     1      -9.019  -3.150  -3.640  1.00  0.00    -0.383 OA
ATOM     29  H   UNL     1      -9.017  -3.382  -4.596  1.00  0.00     0.211 HD
ENDBRANCH  17  28
ENDBRANCH  14  17
ENDBRANCH  12  13
BRANCH  12  30
ATOM     30  C   UNL     1      -4.892  -6.952  -1.901  1.00  0.00     0.018 C 
ATOM     31  C   UNL     1      -3.771  -7.996  -2.031  1.00  0.00     0.010 C 
BRANCH  30  32
ATOM     32  C   UNL     1      -6.153  -7.601  -1.279  1.00  0.00     0.002 C 
ATOM     33  C   UNL     1      -5.892  -8.808  -0.387  1.00  0.00     0.004 C 
ENDBRANCH  30  32
ENDBRANCH  12  30
ENDBRANCH  10  12
ENDBRANCH   1  10
BRANCH   5  34
ATOM     34  C   UNL     1      -1.616  -5.890  -6.478  1.00  0.00     0.242 C 
ATOM     35  O   UNL     1      -0.481  -6.084  -6.915  1.00  0.00    -0.273 OA
ATOM     36  N   UNL     1      -2.189  -4.639  -6.438  1.00  0.00    -0.354 N 
ATOM     37  H   UNL     1      -3.081  -4.522  -5.955  1.00  0.00     0.163 HD
BRANCH  36  38
ATOM     38  C   UNL     1      -1.624  -3.506  -7.141  1.00  0.00     0.116 C 
BRANCH  38  39
ATOM     39  C   UNL     1      -2.116  -3.495  -8.587  1.00  0.00     0.023 C 
BRANCH  39  40
ATOM     40  C   UNL     1      -1.274  -2.593  -9.483  1.00  0.00     0.026 C 
BRANCH  40  41
ATOM     41  C   UNL     1      -2.117  -1.449 -10.046  1.00  0.00     0.146 C 
BRANCH  41  42
ATOM     42  N   UNL     1      -2.984  -1.951 -11.104  1.00  0.00    -0.254 NA
ATOM     43  C   UNL     1      -2.652  -1.780 -12.328  1.00  0.00     0.185 C 
ATOM     44  N   UNL     1      -1.569  -1.180 -12.856  1.00  0.00    -0.370 N 
ATOM     45  N   UNL     1      -3.467  -2.246 -13.289  1.00  0.00    -0.370 N 
ATOM     46  H   UNL     1      -1.557  -0.903 -13.823  1.00  0.00     0.159 HD
ATOM     47  H   UNL     1      -0.842  -0.782 -12.270  1.00  0.00     0.159 HD
ATOM     48  H   UNL     1      -4.303  -2.721 -12.977  1.00  0.00     0.159 HD
ATOM     49  H   UNL     1      -3.172  -2.364 -14.242  1.00  0.00     0.159 HD
ENDBRANCH  41  42
ENDBRANCH  40  41
ENDBRANCH  39  40
ENDBRANCH  38  39
ENDBRANCH  36  38
ENDBRANCH   5  34
BRANCH   8  50
ATOM     50  O   UNL     1      -5.480  -5.124  -9.129  1.00  0.00    -0.245 OA
BRANCH  50  51
ATOM     51  S   UNL     1      -6.104  -3.875  -9.962  1.00  0.00     0.397 S 
ATOM     52  O   UNL     1      -5.700  -2.653  -9.303  1.00  0.00    -0.169 OA
ATOM     53  O   UNL     1      -7.492  -4.144 -10.276  1.00  0.00    -0.169 OA
BRANCH  51  54
ATOM     54  O   UNL     1      -5.265  -3.932 -11.332  1.00  0.00    -0.264 OA
ATOM     55  H   UNL     1      -4.988  -3.019 -11.551  1.00  0.00     0.236 HD
ENDBRANCH  51  54
ENDBRANCH  50  51
ENDBRANCH   8  50
TORSDOF 19
ENDMDL
MODEL 5
REMARK VINA RESULT:    -7.365      8.247     11.114
REMARK INTER + INTRA:         -18.113
REMARK INTER:                 -14.550
REMARK INTRA:                  -3.563
REMARK UNBOUND:                -3.213
REMARK SMILES CC[C@@H](C)[C@@H](NC(=O)[C@@H](O)Cc1ccc(O)c(Cl)c1)C(=O)N1[C@H](C(=O)NCCCCN=C(N)N)C[C@H]2CC[C@H](OS(=O)(=O)O)C[C@@H]21
REMARK SMILES IDX 22 1 36 2 46 3 35 4 23 5 45 6 37 7 39 8 38 9 20 10 21 11
REMARK SMILES IDX 5 12 6 13 7 14 8 15 9 17 11 18 12 19 17 20 19 21 15 22 14 23
REMARK SMILES IDX 13 24 18 25 16 26 10 28 3 30 4 31 2 32 1 33 24 34 25 35
REMARK SMILES IDX 26 36 27 38 28 39 29 40 30 41 31 42 32 43 33 44 34 45 40 50
REMARK SMILES IDX 41 51 42 52 43 53 44 54
REMARK H PARENT 6 16 16 27 10 29 26 37 33 46 33 47 34 48 34 49 44 55
ROOT
ATOM      1  N   UNL     1      -0.897   0.591  -8.936  1.00  0.00    -0.326 N 
ATOM      2  C   UNL     1      -1.505  -1.562  -9.669  1.00  0.00     0.014 C 
ATOM      3  C   UNL     1      -0.939  -0.798  -8.469  1.00  0.00     0.091 C 
ATOM      4  C   UNL     1      -0.921  -0.806 -10.853  1.00  0.00     0.041 C 
ATOM      5  C   UNL     1      -1.161   0.644 -10.395  1.00  0.00     0.175 C 
ATOM      6  C   UNL     1      -1.790  -1.125  -7.243  1.00  0.00     0.059 C 
ATOM      7  C   UNL     1      -1.245  -3.050  -9.536  1.00  0.00     0.008 C 
ATOM      8  C   UNL     1      -2.382  -2.551  -7.260  1.00  0.00     0.143 C 
ATOM      9  C   UNL     1      -1.525  -3.524  -8.094  1.00  0.00     0.034 C 
ENDROOT
BRANCH   1  10
ATOM     10  C   UNL     1      -0.458   1.733  -8.287  1.00  0.00     0.246 C 
ATOM     11  O   UNL     1      -1.241   2.348  -7.556  1.00  0.00    -0.272 OA
BRANCH  10  12
ATOM     12  C   UNL     1       1.019   2.192  -8.458  1.00  0.00     0.174 C 
BRANCH  12  13
ATOM     13  N   UNL     1       1.110   3.195  -9.518  1.00  0.00    -0.342 N 
ATOM     14  C   UNL     1       0.885   4.543  -9.351  1.00  0.00     0.249 C 
ATOM     15  O   UNL     1       0.608   5.060  -8.276  1.00  0.00    -0.272 OA
ATOM     16  H   UNL     1       1.177   2.899 -10.489  1.00  0.00     0.164 HD
BRANCH  14  17
ATOM     17  C   UNL     1       1.041   5.340 -10.664  1.00  0.00     0.207 C 
BRANCH  17  18
ATOM     18  C   UNL     1       2.385   6.074 -10.688  1.00  0.00     0.077 C 
BRANCH  18  19
ATOM     19  C   UNL     1       3.377   5.400 -11.609  1.00  0.00    -0.043 A 
ATOM     20  C   UNL     1       4.008   4.637 -13.823  1.00  0.00     0.083 A 
ATOM     21  C   UNL     1       3.114   5.303 -12.984  1.00  0.00     0.028 A 
ATOM     22  C   UNL     1       5.166   4.063 -13.296  1.00  0.00     0.134 A 
ATOM     23  C   UNL     1       5.438   4.151 -11.936  1.00  0.00     0.048 A 
ATOM     24  C   UNL     1       4.545   4.816 -11.093  1.00  0.00     0.008 A 
ATOM     25  Cl  UNL     1       3.668   4.528 -15.510  1.00  0.00    -0.080 Cl
BRANCH  22  26
ATOM     26  O   UNL     1       6.066   3.390 -14.077  1.00  0.00    -0.506 OA
ATOM     27  H   UNL     1       6.185   2.510 -13.674  1.00  0.00     0.293 HD
ENDBRANCH  22  26
ENDBRANCH  18  19
ENDBRANCH  17  18
BRANCH  17  28
ATOM     28  O   UNL     1      -0.024   6.292 -10.821  1.00  0.00    -0.383 OA
ATOM     29  H   UNL     1      -0.365   6.169 -11.736  1.00  0.00     0.211 HD
ENDBRANCH  17  28
ENDBRANCH  14  17
ENDBRANCH  12  13
BRANCH  12  30
ATOM     30  C   UNL     1       1.994   1.004  -8.682  1.00  0.00     0.018 C 
ATOM     31  C   UNL     1       3.070   0.967  -7.585  1.00  0.00     0.010 C 
BRANCH  30  32
ATOM     32  C   UNL     1       2.660   1.002 -10.080  1.00  0.00     0.002 C 
ATOM     33  C   UNL     1       4.177   1.138 -10.079  1.00  0.00     0.004 C 
ENDBRANCH  30  32
ENDBRANCH  12  30
ENDBRANCH  10  12
ENDBRANCH   1  10
BRANCH   5  34
ATOM     34  C   UNL     1      -2.619   1.098 -10.674  1.00  0.00     0.242 C 
ATOM     35  O   UNL     1      -3.111   2.094 -10.143  1.00  0.00    -0.273 OA
ATOM     36  N   UNL     1      -3.337   0.278 -11.515  1.00  0.00    -0.354 N 
ATOM     37  H   UNL     1      -2.914  -0.597 -11.828  1.00  0.00     0.163 HD
BRANCH  36  38
ATOM     38  C   UNL     1      -4.627   0.659 -12.051  1.00  0.00     0.116 C 
BRANCH  38  39
ATOM     39  C   UNL     1      -5.741   0.101 -11.169  1.00  0.00     0.023 C 
BRANCH  39  40
ATOM     40  C   UNL     1      -5.483  -1.342 -10.748  1.00  0.00     0.026 C 
BRANCH  40  41
ATOM     41  C   UNL     1      -6.339  -2.307 -11.569  1.00  0.00     0.146 C 
BRANCH  41  42
ATOM     42  N   UNL     1      -7.113  -3.160 -10.677  1.00  0.00    -0.254 NA
ATOM     43  C   UNL     1      -6.801  -4.395 -10.554  1.00  0.00     0.185 C 
ATOM     44  N   UNL     1      -5.817  -5.102 -11.139  1.00  0.00    -0.370 N 
ATOM     45  N   UNL     1      -7.530  -5.166  -9.729  1.00  0.00    -0.370 N 
ATOM     46  H   UNL     1      -5.838  -6.107 -11.140  1.00  0.00     0.159 HD
ATOM     47  H   UNL     1      -5.161  -4.670 -11.783  1.00  0.00     0.159 HD
ATOM     48  H   UNL     1      -8.288  -4.708  -9.241  1.00  0.00     0.159 HD
ATOM     49  H   UNL     1      -7.214  -6.061  -9.400  1.00  0.00     0.159 HD
ENDBRANCH  41  42
ENDBRANCH  40  41
ENDBRANCH  39  40
ENDBRANCH  38  39
ENDBRANCH  36  38
ENDBRANCH   5  34
BRANCH   8  50
ATOM     50  O   UNL     1      -3.701  -2.527  -7.805  1.00  0.00    -0.245 OA
BRANCH  50  51
ATOM     51  S   UNL     1      -4.791  -3.634  -7.321  1.00  0.00     0.397 S 
ATOM     52  O   UNL     1      -4.731  -3.717  -5.879  1.00  0.00    -0.169 OA
ATOM     53  O   UNL     1      -4.689  -4.813  -8.155  1.00  0.00    -0.169 OA
BRANCH  51  54
ATOM     54  O   UNL     1      -6.183  -2.905  -7.661  1.00  0.00    -0.264 OA
ATOM     55  H   UNL     1      -6.163  -2.017  -7.250  1.00  0.00     0.236 HD
ENDBRANCH  51  54
ENDBRANCH  50  51
ENDBRANCH   8  50
TORSDOF 19
ENDMDL
MODEL 6
REMARK VINA RESULT:    -7.332      4.773      8.009
REMARK INTER + INTRA:         -18.046
REMARK INTER:                 -14.925
REMARK INTRA:                  -3.121
REMARK UNBOUND:                -3.213
REMARK SMILES CC[C@@H](C)[C@@H](NC(=O)[C@@H](O)Cc1ccc(O)c(Cl)c1)C(=O)N1[C@H](C(=O)NCCCCN=C(N)N)C[C@H]2CC[C@H](OS(=O)(=O)O)C[C@@H]21
REMARK SMILES IDX 22 1 36 2 46 3 35 4 23 5 45 6 37 7 39 8 38 9 20 10 21 11
REMARK SMILES IDX 5 12 6 13 7 14 8 15 9 17 11 18 12 19 17 20 19 21 15 22 14 23
REMARK SMILES IDX 13 24 18 25 16 26 10 28 3 30 4 31 2 32 1 33 24 34 25 35
REMARK SMILES IDX 26 36 27 38 28 39 29 40 30 41 31 42 32 43 33 44 34 45 40 50
REMARK SMILES IDX 41 51 42 52 43 53 44 54
REMARK H PARENT 6 16 16 27 10 29 26 37 33 46 33 47 34 48 34 49 44 55
ROOT
ATOM      1  N   UNL     1      -4.470  -5.179  -6.285  1.00  0.00    -0.326 N 
ATOM      2  C   UNL     1      -3.751  -6.124  -4.252  1.00  0.00     0.014 C 
ATOM      3  C   UNL     1      -4.588  -4.983  -4.837  1.00  0.00     0.091 C 
ATOM      4  C   UNL     1      -2.625  -6.267  -5.265  1.00  0.00     0.041 C 
ATOM      5  C   UNL     1      -3.428  -6.194  -6.577  1.00  0.00     0.175 C 
ATOM      6  C   UNL     1      -5.980  -5.034  -4.210  1.00  0.00     0.059 C 
ATOM      7  C   UNL     1      -3.414  -5.859  -2.798  1.00  0.00     0.008 C 
ATOM      8  C   UNL     1      -5.989  -5.564  -2.760  1.00  0.00     0.143 C 
ATOM      9  C   UNL     1      -4.646  -5.316  -2.044  1.00  0.00     0.034 C 
ENDROOT
BRANCH   1  10
ATOM     10  C   UNL     1      -5.001  -4.438  -7.327  1.00  0.00     0.246 C 
ATOM     11  O   UNL     1      -6.160  -4.020  -7.238  1.00  0.00    -0.272 OA
BRANCH  10  12
ATOM     12  C   UNL     1      -4.116  -4.111  -8.565  1.00  0.00     0.174 C 
BRANCH  12  13
ATOM     13  N   UNL     1      -3.263  -2.958  -8.278  1.00  0.00    -0.342 N 
ATOM     14  C   UNL     1      -1.917  -3.020  -7.998  1.00  0.00     0.249 C 
ATOM     15  O   UNL     1      -1.270  -4.061  -7.987  1.00  0.00    -0.272 OA
ATOM     16  H   UNL     1      -3.687  -2.051  -8.099  1.00  0.00     0.164 HD
BRANCH  14  17
ATOM     17  C   UNL     1      -1.301  -1.633  -7.721  1.00  0.00     0.207 C 
BRANCH  17  18
ATOM     18  C   UNL     1      -0.488  -1.156  -8.929  1.00  0.00     0.077 C 
BRANCH  18  19
ATOM     19  C   UNL     1      -0.076   0.292  -8.794  1.00  0.00    -0.043 A 
ATOM     20  C   UNL     1       1.608   2.027  -8.989  1.00  0.00     0.083 A 
ATOM     21  C   UNL     1       1.216   0.699  -9.161  1.00  0.00     0.028 A 
ATOM     22  C   UNL     1       0.716   2.954  -8.449  1.00  0.00     0.134 A 
ATOM     23  C   UNL     1      -0.566   2.565  -8.081  1.00  0.00     0.048 A 
ATOM     24  C   UNL     1      -0.962   1.236  -8.251  1.00  0.00     0.008 A 
ATOM     25  Cl  UNL     1       3.201   2.507  -9.445  1.00  0.00    -0.080 Cl
BRANCH  22  26
ATOM     26  O   UNL     1       1.059   4.264  -8.251  1.00  0.00    -0.506 OA
ATOM     27  H   UNL     1       1.952   4.264  -7.860  1.00  0.00     0.293 HD
ENDBRANCH  22  26
ENDBRANCH  18  19
ENDBRANCH  17  18
BRANCH  17  28
ATOM     28  O   UNL     1      -0.455  -1.664  -6.560  1.00  0.00    -0.383 OA
ATOM     29  H   UNL     1      -0.590  -0.804  -6.102  1.00  0.00     0.211 HD
ENDBRANCH  17  28
ENDBRANCH  14  17
ENDBRANCH  12  13
BRANCH  12  30
ATOM     30  C   UNL     1      -4.946  -3.926  -9.863  1.00  0.00     0.018 C 
ATOM     31  C   UNL     1      -4.987  -5.229 -10.676  1.00  0.00     0.010 C 
BRANCH  30  32
ATOM     32  C   UNL     1      -4.454  -2.759 -10.754  1.00  0.00     0.002 C 
ATOM     33  C   UNL     1      -3.328  -3.107 -11.720  1.00  0.00     0.004 C 
ENDBRANCH  30  32
ENDBRANCH  12  30
ENDBRANCH  10  12
ENDBRANCH   1  10
BRANCH   5  34
ATOM     34  C   UNL     1      -4.074  -7.560  -6.929  1.00  0.00     0.242 C 
ATOM     35  O   UNL     1      -5.224  -7.653  -7.359  1.00  0.00    -0.273 OA
ATOM     36  N   UNL     1      -3.289  -8.662  -6.674  1.00  0.00    -0.354 N 
ATOM     37  H   UNL     1      -2.392  -8.529  -6.206  1.00  0.00     0.163 HD
BRANCH  36  38
ATOM     38  C   UNL     1      -3.643  -9.988  -7.138  1.00  0.00     0.116 C 
BRANCH  38  39
ATOM     39  C   UNL     1      -2.514 -10.966  -6.823  1.00  0.00     0.023 C 
BRANCH  39  40
ATOM     40  C   UNL     1      -1.509 -10.395  -5.828  1.00  0.00     0.026 C 
BRANCH  40  41
ATOM     41  C   UNL     1      -0.171 -10.112  -6.511  1.00  0.00     0.146 C 
BRANCH  41  42
ATOM     42  N   UNL     1       0.040  -8.673  -6.603  1.00  0.00    -0.254 NA
ATOM     43  C   UNL     1      -0.162  -8.073  -7.715  1.00  0.00     0.185 C 
ATOM     44  N   UNL     1      -0.564  -8.563  -8.902  1.00  0.00    -0.370 N 
ATOM     45  N   UNL     1       0.042  -6.747  -7.780  1.00  0.00    -0.370 N 
ATOM     46  H   UNL     1      -0.446  -8.027  -9.745  1.00  0.00     0.159 HD
ATOM     47  H   UNL     1      -0.777  -9.547  -9.028  1.00  0.00     0.159 HD
ATOM     48  H   UNL     1       0.338  -6.297  -6.924  1.00  0.00     0.159 HD
ATOM     49  H   UNL     1      -0.314  -6.177  -8.527  1.00  0.00     0.159 HD
ENDBRANCH  41  42
ENDBRANCH  40  41
ENDBRANCH  39  40
ENDBRANCH  38  39
ENDBRANCH  36  38
ENDBRANCH   5  34
BRANCH   8  50
ATOM     50  O   UNL     1      -6.254  -6.967  -2.753  1.00  0.00    -0.245 OA
BRANCH  50  51
ATOM     51  S   UNL     1      -7.377  -7.567  -1.740  1.00  0.00     0.397 S 
ATOM     52  O   UNL     1      -8.637  -7.613  -2.448  1.00  0.00    -0.169 OA
ATOM     53  O   UNL     1      -7.256  -6.928  -0.446  1.00  0.00    -0.169 OA
BRANCH  51  54
ATOM     54  O   UNL     1      -6.906  -9.096  -1.584  1.00  0.00    -0.264 OA
ATOM     55  H   UNL     1      -7.291  -9.444  -0.754  1.00  0.00     0.236 HD
ENDBRANCH  51  54
ENDBRANCH  50  51
ENDBRANCH   8  50
TORSDOF 19
ENDMDL
MODEL 7
REMARK VINA RESULT:    -7.300      4.238      7.998
REMARK INTER + INTRA:         -17.982
REMARK INTER:                 -14.960
REMARK INTRA:                  -3.022
REMARK UNBOUND:                -3.213
REMARK SMILES CC[C@@H](C)[C@@H](NC(=O)[C@@H](O)Cc1ccc(O)c(Cl)c1)C(=O)N1[C@H](C(=O)NCCCCN=C(N)N)C[C@H]2CC[C@H](OS(=O)(=O)O)C[C@@H]21
REMARK SMILES IDX 22 1 36 2 46 3 35 4 23 5 45 6 37 7 39 8 38 9 20 10 21 11
REMARK SMILES IDX 5 12 6 13 7 14 8 15 9 17 11 18 12 19 17 20 19 21 15 22 14 23
REMARK SMILES IDX 13 24 18 25 16 26 10 28 3 30 4 31 2 32 1 33 24 34 25 35
REMARK SMILES IDX 26 36 27 38 28 39 29 40 30 41 31 42 32 43 33 44 34 45 40 50
REMARK SMILES IDX 41 51 42 52 43 53 44 54
REMARK H PARENT 6 16 16 27 10 29 26 37 33 46 33 47 34 48 34 49 44 55
ROOT
ATOM      1  N   UNL     1      -3.794  -6.487  -5.323  1.00  0.00    -0.326 N 
ATOM      2  C   UNL     1      -4.211  -7.321  -7.484  1.00  0.00     0.014 C 
ATOM      3  C   UNL     1      -4.901  -6.725  -6.253  1.00  0.00     0.091 C 
ATOM      4  C   UNL     1      -3.080  -8.134  -6.874  1.00  0.00     0.041 C 
ATOM      5  C   UNL     1      -2.557  -7.131  -5.829  1.00  0.00     0.175 C 
ATOM      6  C   UNL     1      -5.740  -5.530  -6.701  1.00  0.00     0.059 C 
ATOM      7  C   UNL     1      -5.215  -8.007  -8.389  1.00  0.00     0.008 C 
ATOM      8  C   UNL     1      -6.314  -5.673  -8.128  1.00  0.00     0.143 C 
ATOM      9  C   UNL     1      -6.491  -7.150  -8.535  1.00  0.00     0.034 C 
ENDROOT
BRANCH   1  10
ATOM     10  C   UNL     1      -3.810  -5.976  -4.036  1.00  0.00     0.246 C 
ATOM     11  O   UNL     1      -2.812  -5.385  -3.611  1.00  0.00    -0.272 OA
BRANCH  10  12
ATOM     12  C   UNL     1      -5.096  -6.119  -3.170  1.00  0.00     0.174 C 
BRANCH  12  13
ATOM     13  N   UNL     1      -5.967  -4.962  -3.376  1.00  0.00    -0.342 N 
ATOM     14  C   UNL     1      -7.341  -5.009  -3.438  1.00  0.00     0.249 C 
ATOM     15  O   UNL     1      -7.996  -6.035  -3.297  1.00  0.00    -0.272 OA
ATOM     16  H   UNL     1      -5.564  -4.074  -3.664  1.00  0.00     0.164 HD
BRANCH  14  17
ATOM     17  C   UNL     1      -7.974  -3.623  -3.683  1.00  0.00     0.207 C 
BRANCH  17  18
ATOM     18  C   UNL     1      -8.487  -3.028  -2.367  1.00  0.00     0.077 C 
BRANCH  18  19
ATOM     19  C   UNL     1      -7.876  -1.673  -2.088  1.00  0.00    -0.043 A 
ATOM     20  C   UNL     1      -8.125   0.715  -1.740  1.00  0.00     0.083 A 
ATOM     21  C   UNL     1      -8.695  -0.542  -1.949  1.00  0.00     0.028 A 
ATOM     22  C   UNL     1      -6.738   0.850  -1.670  1.00  0.00     0.134 A 
ATOM     23  C   UNL     1      -5.915  -0.262  -1.806  1.00  0.00     0.048 A 
ATOM     24  C   UNL     1      -6.482  -1.521  -2.017  1.00  0.00     0.008 A 
ATOM     25  Cl  UNL     1      -9.148   2.093  -1.573  1.00  0.00    -0.080 Cl
BRANCH  22  26
ATOM     26  O   UNL     1      -6.133   2.062  -1.478  1.00  0.00    -0.506 OA
ATOM     27  H   UNL     1      -6.743   2.738  -1.828  1.00  0.00     0.293 HD
ENDBRANCH  22  26
ENDBRANCH  18  19
ENDBRANCH  17  18
BRANCH  17  28
ATOM     28  O   UNL     1      -9.059  -3.708  -4.622  1.00  0.00    -0.383 OA
ATOM     29  H   UNL     1      -8.822  -3.108  -5.365  1.00  0.00     0.211 HD
ENDBRANCH  17  28
ENDBRANCH  14  17
ENDBRANCH  12  13
BRANCH  12  30
ATOM     30  C   UNL     1      -4.784  -6.366  -1.670  1.00  0.00     0.018 C 
ATOM     31  C   UNL     1      -5.592  -7.558  -1.133  1.00  0.00     0.010 C 
BRANCH  30  32
ATOM     32  C   UNL     1      -5.012  -5.123  -0.775  1.00  0.00     0.002 C 
ATOM     33  C   UNL     1      -6.151  -5.243   0.229  1.00  0.00     0.004 C 
ENDBRANCH  30  32
ENDBRANCH  12  30
ENDBRANCH  10  12
ENDBRANCH   1  10
BRANCH   5  34
ATOM     34  C   UNL     1      -1.611  -6.079  -6.469  1.00  0.00     0.242 C 
ATOM     35  O   UNL     1      -0.481  -6.365  -6.865  1.00  0.00    -0.273 OA
ATOM     36  N   UNL     1      -2.107  -4.795  -6.512  1.00  0.00    -0.354 N 
ATOM     37  H   UNL     1      -3.001  -4.598  -6.060  1.00  0.00     0.163 HD
BRANCH  36  38
ATOM     38  C   UNL     1      -1.457  -3.740  -7.262  1.00  0.00     0.116 C 
BRANCH  38  39
ATOM     39  C   UNL     1      -2.474  -3.043  -8.163  1.00  0.00     0.023 C 
BRANCH  39  40
ATOM     40  C   UNL     1      -2.018  -1.651  -8.587  1.00  0.00     0.026 C 
BRANCH  40  41
ATOM     41  C   UNL     1      -1.288  -1.705  -9.929  1.00  0.00     0.146 C 
BRANCH  41  42
ATOM     42  N   UNL     1      -1.980  -2.618 -10.830  1.00  0.00    -0.254 NA
ATOM     43  C   UNL     1      -2.109  -2.311 -12.066  1.00  0.00     0.185 C 
ATOM     44  N   UNL     1      -1.691  -1.221 -12.735  1.00  0.00    -0.370 N 
ATOM     45  N   UNL     1      -2.753  -3.164 -12.879  1.00  0.00    -0.370 N 
ATOM     46  H   UNL     1      -2.071  -0.997 -13.640  1.00  0.00     0.159 HD
ATOM     47  H   UNL     1      -1.174  -0.478 -12.275  1.00  0.00     0.159 HD
ATOM     48  H   UNL     1      -3.093  -4.017 -12.456  1.00  0.00     0.159 HD
ATOM     49  H   UNL     1      -2.690  -3.114 -13.880  1.00  0.00     0.159 HD
ENDBRANCH  41  42
ENDBRANCH  40  41
ENDBRANCH  39  40
ENDBRANCH  38  39
ENDBRANCH  36  38
ENDBRANCH   5  34
BRANCH   8  50
ATOM     50  O   UNL     1      -5.446  -5.043  -9.071  1.00  0.00    -0.245 OA
BRANCH  50  51
ATOM     51  S   UNL     1      -6.065  -4.415 -10.437  1.00  0.00     0.397 S 
ATOM     52  O   UNL     1      -5.194  -3.347 -10.872  1.00  0.00    -0.169 OA
ATOM     53  O   UNL     1      -7.491  -4.216 -10.278  1.00  0.00    -0.169 OA
BRANCH  51  54
ATOM     54  O   UNL     1      -5.846  -5.614 -11.486  1.00  0.00    -0.264 OA
ATOM     55  H   UNL     1      -5.330  -6.313 -11.037  1.00  0.00     0.236 HD
ENDBRANCH  51  54
ENDBRANCH  50  51
ENDBRANCH   8  50
TORSDOF 19
ENDMDL
MODEL 8
REMARK VINA RESULT:    -7.223      9.013     12.024
REMARK INTER + INTRA:         -17.825
REMARK INTER:                 -14.943
REMARK INTRA:                  -2.882
REMARK UNBOUND:                -3.213
REMARK SMILES CC[C@@H](C)[C@@H](NC(=O)[C@@H](O)Cc1ccc(O)c(Cl)c1)C(=O)N1[C@H](C(=O)NCCCCN=C(N)N)C[C@H]2CC[C@H](OS(=O)(=O)O)C[C@@H]21
REMARK SMILES IDX 22 1 36 2 46 3 35 4 23 5 45 6 37 7 39 8 38 9 20 10 21 11
REMARK SMILES IDX 5 12 6 13 7 14 8 15 9 17 11 18 12 19 17 20 19 21 15 22 14 23
REMARK SMILES IDX 13 24 18 25 16 26 10 28 3 30 4 31 2 32 1 33 24 34 25 35
REMARK SMILES IDX 26 36 27 38 28 39 29 40 30 41 31 42 32 43 33 44 34 45 40 50
REMARK SMILES IDX 41 51 42 52 43 53 44 54
REMARK H PARENT 6 16 16 27 10 29 26 37 33 46 33 47 34 48 34 49 44 55
ROOT
ATOM      1  N   UNL     1      -0.904   0.777  -8.809  1.00  0.00    -0.326 N 
ATOM      2  C   UNL     1      -1.632  -1.295  -9.656  1.00  0.00     0.014 C 
ATOM      3  C   UNL     1      -0.886  -0.652  -8.484  1.00  0.00     0.091 C 
ATOM      4  C   UNL     1      -1.227  -0.420 -10.832  1.00  0.00     0.041 C 
ATOM      5  C   UNL     1      -1.383   0.975 -10.199  1.00  0.00     0.175 C 
ATOM      6  C   UNL     1      -1.546  -1.107  -7.183  1.00  0.00     0.059 C 
ATOM      7  C   UNL     1      -1.367  -2.787  -9.714  1.00  0.00     0.008 C 
ATOM      8  C   UNL     1      -2.145  -2.528  -7.255  1.00  0.00     0.143 C 
ATOM      9  C   UNL     1      -1.431  -3.406  -8.302  1.00  0.00     0.034 C 
ENDROOT
BRANCH   1  10
ATOM     10  C   UNL     1      -0.363   1.851  -8.122  1.00  0.00     0.246 C 
ATOM     11  O   UNL     1      -1.047   2.425  -7.269  1.00  0.00    -0.272 OA
BRANCH  10  12
ATOM     12  C   UNL     1       1.105   2.283  -8.408  1.00  0.00     0.174 C 
BRANCH  12  13
ATOM     13  N   UNL     1       1.133   3.269  -9.488  1.00  0.00    -0.342 N 
ATOM     14  C   UNL     1       0.904   4.617  -9.333  1.00  0.00     0.249 C 
ATOM     15  O   UNL     1       0.676   5.151  -8.255  1.00  0.00    -0.272 OA
ATOM     16  H   UNL     1       1.155   2.955 -10.455  1.00  0.00     0.164 HD
BRANCH  14  17
ATOM     17  C   UNL     1       0.987   5.392 -10.666  1.00  0.00     0.207 C 
BRANCH  17  18
ATOM     18  C   UNL     1       2.299   6.180 -10.746  1.00  0.00     0.077 C 
BRANCH  18  19
ATOM     19  C   UNL     1       3.320   5.485 -11.618  1.00  0.00    -0.043 A 
ATOM     20  C   UNL     1       4.119   4.845 -13.817  1.00  0.00     0.083 A 
ATOM     21  C   UNL     1       3.204   5.529 -13.017  1.00  0.00     0.028 A 
ATOM     22  C   UNL     1       5.152   4.114 -13.229  1.00  0.00     0.134 A 
ATOM     23  C   UNL     1       5.279   4.063 -11.846  1.00  0.00     0.048 A 
ATOM     24  C   UNL     1       4.363   4.745 -11.041  1.00  0.00     0.008 A 
ATOM     25  Cl  UNL     1       3.960   4.910 -15.533  1.00  0.00    -0.080 Cl
BRANCH  22  26
ATOM     26  O   UNL     1       6.068   3.419 -13.972  1.00  0.00    -0.506 OA
ATOM     27  H   UNL     1       6.661   2.973 -13.340  1.00  0.00     0.293 HD
ENDBRANCH  22  26
ENDBRANCH  18  19
ENDBRANCH  17  18
BRANCH  17  28
ATOM     28  O   UNL     1      -0.121   6.295 -10.809  1.00  0.00    -0.383 OA
ATOM     29  H   UNL     1      -0.599   6.278  -9.949  1.00  0.00     0.211 HD
ENDBRANCH  17  28
ENDBRANCH  14  17
ENDBRANCH  12  13
BRANCH  12  30
ATOM     30  C   UNL     1       2.043   1.077  -8.681  1.00  0.00     0.018 C 
ATOM     31  C   UNL     1       3.131   0.975  -7.601  1.00  0.00     0.010 C 
BRANCH  30  32
ATOM     32  C   UNL     1       2.691   1.100 -10.087  1.00  0.00     0.002 C 
ATOM     33  C   UNL     1       4.198   0.885 -10.113  1.00  0.00     0.004 C 
ENDBRANCH  30  32
ENDBRANCH  12  30
ENDBRANCH  10  12
ENDBRANCH   1  10
BRANCH   5  34
ATOM     34  C   UNL     1      -2.862   1.445 -10.209  1.00  0.00     0.242 C 
ATOM     35  O   UNL     1      -3.623   1.205 -11.147  1.00  0.00    -0.273 OA
ATOM     36  N   UNL     1      -3.246   2.195  -9.120  1.00  0.00    -0.354 N 
ATOM     37  H   UNL     1      -2.539   2.463  -8.434  1.00  0.00     0.163 HD
BRANCH  36  38
ATOM     38  C   UNL     1      -4.631   2.530  -8.861  1.00  0.00     0.116 C 
BRANCH  38  39
ATOM     39  C   UNL     1      -4.950   3.905  -9.444  1.00  0.00     0.023 C 
BRANCH  39  40
ATOM     40  C   UNL     1      -4.517   5.042  -8.526  1.00  0.00     0.026 C 
BRANCH  40  41
ATOM     41  C   UNL     1      -4.883   4.735  -7.074  1.00  0.00     0.146 C 
BRANCH  41  42
ATOM     42  N   UNL     1      -3.937   5.390  -6.179  1.00  0.00    -0.254 NA
ATOM     43  C   UNL     1      -4.329   6.360  -5.443  1.00  0.00     0.185 C 
ATOM     44  N   UNL     1      -5.544   6.929  -5.335  1.00  0.00    -0.370 N 
ATOM     45  N   UNL     1      -3.441   6.953  -4.628  1.00  0.00    -0.370 N 
ATOM     46  H   UNL     1      -5.652   7.832  -4.906  1.00  0.00     0.159 HD
ATOM     47  H   UNL     1      -6.339   6.594  -5.872  1.00  0.00     0.159 HD
ATOM     48  H   UNL     1      -2.502   6.579  -4.641  1.00  0.00     0.159 HD
ATOM     49  H   UNL     1      -3.714   7.545  -3.864  1.00  0.00     0.159 HD
ENDBRANCH  41  42
ENDBRANCH  40  41
ENDBRANCH  39  40
ENDBRANCH  38  39
ENDBRANCH  36  38
ENDBRANCH   5  34
BRANCH   8  50
ATOM     50  O   UNL     1      -3.531  -2.459  -7.591  1.00  0.00    -0.245 OA
BRANCH  50  51
ATOM     51  S   UNL     1      -4.613  -3.302  -6.716  1.00  0.00     0.397 S 
ATOM     52  O   UNL     1      -5.340  -4.166  -7.619  1.00  0.00    -0.169 OA
ATOM     53  O   UNL     1      -5.296  -2.413  -5.800  1.00  0.00    -0.169 OA
BRANCH  51  54
ATOM     54  O   UNL     1      -3.663  -4.271  -5.852  1.00  0.00    -0.264 OA
ATOM     55  H   UNL     1      -3.779  -4.037  -4.909  1.00  0.00     0.236 HD
ENDBRANCH  51  54
ENDBRANCH  50  51
ENDBRANCH   8  50
TORSDOF 19
ENDMDL
MODEL 9
REMARK VINA RESULT:    -7.221      3.984      7.320
REMARK INTER + INTRA:         -17.821
REMARK INTER:                 -14.038
REMARK INTRA:                  -3.783
REMARK UNBOUND:                -3.213
REMARK SMILES CC[C@@H](C)[C@@H](NC(=O)[C@@H](O)Cc1ccc(O)c(Cl)c1)C(=O)N1[C@H](C(=O)NCCCCN=C(N)N)C[C@H]2CC[C@H](OS(=O)(=O)O)C[C@@H]21
REMARK SMILES IDX 22 1 36 2 46 3 35 4 23 5 45 6 37 7 39 8 38 9 20 10 21 11
REMARK SMILES IDX 5 12 6 13 7 14 8 15 9 17 11 18 12 19 17 20 19 21 15 22 14 23
REMARK SMILES IDX 13 24 18 25 16 26 10 28 3 30 4 31 2 32 1 33 24 34 25 35
REMARK SMILES IDX 26 36 27 38 28 39 29 40 30 41 31 42 32 43 33 44 34 45 40 50
REMARK SMILES IDX 41 51 42 52 43 53 44 54
REMARK H PARENT 6 16 16 27 10 29 26 37 33 46 33 47 34 48 34 49 44 55
ROOT
ATOM      1  N   UNL     1      -3.444  -6.630  -5.471  1.00  0.00    -0.326 N 
ATOM      2  C   UNL     1      -3.984  -7.374  -7.638  1.00  0.00     0.014 C 
ATOM      3  C   UNL     1      -4.606  -6.889  -6.326  1.00  0.00     0.091 C 
ATOM      4  C   UNL     1      -2.762  -8.145  -7.165  1.00  0.00     0.041 C 
ATOM      5  C   UNL     1      -2.216  -7.167  -6.108  1.00  0.00     0.175 C 
ATOM      6  C   UNL     1      -5.549  -5.728  -6.638  1.00  0.00     0.059 C 
ATOM      7  C   UNL     1      -5.016  -8.074  -8.501  1.00  0.00     0.008 C 
ATOM      8  C   UNL     1      -6.226  -5.832  -8.022  1.00  0.00     0.143 C 
ATOM      9  C   UNL     1      -6.347  -7.293  -8.499  1.00  0.00     0.034 C 
ENDROOT
BRANCH   1  10
ATOM     10  C   UNL     1      -3.387  -6.190  -4.160  1.00  0.00     0.246 C 
ATOM     11  O   UNL     1      -2.383  -5.583  -3.772  1.00  0.00    -0.272 OA
BRANCH  10  12
ATOM     12  C   UNL     1      -4.601  -6.430  -3.216  1.00  0.00     0.174 C 
BRANCH  12  13
ATOM     13  N   UNL     1      -5.388  -5.204  -3.094  1.00  0.00    -0.342 N 
ATOM     14  C   UNL     1      -6.750  -5.116  -3.279  1.00  0.00     0.249 C 
ATOM     15  O   UNL     1      -7.465  -6.075  -3.543  1.00  0.00    -0.272 OA
ATOM     16  H   UNL     1      -4.915  -4.306  -3.034  1.00  0.00     0.164 HD
BRANCH  14  17
ATOM     17  C   UNL     1      -7.285  -3.680  -3.097  1.00  0.00     0.207 C 
BRANCH  17  18
ATOM     18  C   UNL     1      -8.133  -3.267  -4.304  1.00  0.00     0.077 C 
BRANCH  18  19
ATOM     19  C   UNL     1      -7.515  -2.108  -5.054  1.00  0.00    -0.043 A 
ATOM     20  C   UNL     1      -7.495   0.246  -5.640  1.00  0.00     0.083 A 
ATOM     21  C   UNL     1      -8.036  -0.813  -4.909  1.00  0.00     0.028 A 
ATOM     22  C   UNL     1      -6.437   0.018  -6.520  1.00  0.00     0.134 A 
ATOM     23  C   UNL     1      -5.912  -1.260  -6.674  1.00  0.00     0.048 A 
ATOM     24  C   UNL     1      -6.452  -2.322  -5.944  1.00  0.00     0.008 A 
ATOM     25  Cl  UNL     1      -8.148   1.830  -5.448  1.00  0.00    -0.080 Cl
BRANCH  22  26
ATOM     26  O   UNL     1      -5.881   1.022  -7.266  1.00  0.00    -0.506 OA
ATOM     27  H   UNL     1      -5.374   1.581  -6.649  1.00  0.00     0.293 HD
ENDBRANCH  22  26
ENDBRANCH  18  19
ENDBRANCH  17  18
BRANCH  17  28
ATOM     28  O   UNL     1      -6.207  -2.744  -2.928  1.00  0.00    -0.383 OA
ATOM     29  H   UNL     1      -5.479  -3.061  -3.510  1.00  0.00     0.211 HD
ENDBRANCH  17  28
ENDBRANCH  14  17
ENDBRANCH  12  13
BRANCH  12  30
ATOM     30  C   UNL     1      -4.184  -7.007  -1.837  1.00  0.00     0.018 C 
ATOM     31  C   UNL     1      -3.363  -8.295  -2.008  1.00  0.00     0.010 C 
BRANCH  30  32
ATOM     32  C   UNL     1      -5.377  -7.259  -0.882  1.00  0.00     0.002 C 
ATOM     33  C   UNL     1      -5.423  -6.368   0.352  1.00  0.00     0.004 C 
ENDBRANCH  30  32
ENDBRANCH  12  30
ENDBRANCH  10  12
ENDBRANCH   1  10
BRANCH   5  34
ATOM     34  C   UNL     1      -1.389  -6.025  -6.757  1.00  0.00     0.242 C 
ATOM     35  O   UNL     1      -0.245  -6.198  -7.177  1.00  0.00    -0.273 OA
ATOM     36  N   UNL     1      -2.007  -4.795  -6.782  1.00  0.00    -0.354 N 
ATOM     37  H   UNL     1      -2.907  -4.688  -6.311  1.00  0.00     0.163 HD
BRANCH  36  38
ATOM     38  C   UNL     1      -1.477  -3.678  -7.536  1.00  0.00     0.116 C 
BRANCH  38  39
ATOM     39  C   UNL     1      -2.610  -2.960  -8.265  1.00  0.00     0.023 C 
BRANCH  39  40
ATOM     40  C   UNL     1      -2.237  -1.536  -8.663  1.00  0.00     0.026 C 
BRANCH  40  41
ATOM     41  C   UNL     1      -2.779  -1.203 -10.053  1.00  0.00     0.146 C 
BRANCH  41  42
ATOM     42  N   UNL     1      -2.394  -2.245 -10.995  1.00  0.00    -0.254 NA
ATOM     43  C   UNL     1      -3.147  -2.502 -11.998  1.00  0.00     0.185 C 
ATOM     44  N   UNL     1      -4.315  -1.946 -12.368  1.00  0.00    -0.370 N 
ATOM     45  N   UNL     1      -2.776  -3.470 -12.852  1.00  0.00    -0.370 N 
ATOM     46  H   UNL     1      -4.915  -2.407 -13.031  1.00  0.00     0.159 HD
ATOM     47  H   UNL     1      -4.736  -1.188 -11.839  1.00  0.00     0.159 HD
ATOM     48  H   UNL     1      -1.902  -3.935 -12.651  1.00  0.00     0.159 HD
ATOM     49  H   UNL     1      -3.176  -3.568 -13.769  1.00  0.00     0.159 HD
ENDBRANCH  41  42
ENDBRANCH  40  41
ENDBRANCH  39  40
ENDBRANCH  38  39
ENDBRANCH  36  38
ENDBRANCH   5  34
BRANCH   8  50
ATOM     50  O   UNL     1      -5.475  -5.099  -8.991  1.00  0.00    -0.245 OA
BRANCH  50  51
ATOM     51  S   UNL     1      -6.255  -4.176 -10.080  1.00  0.00     0.397 S 
ATOM     52  O   UNL     1      -5.847  -2.804  -9.876  1.00  0.00    -0.169 OA
ATOM     53  O   UNL     1      -7.652  -4.554 -10.126  1.00  0.00    -0.169 OA
BRANCH  51  54
ATOM     54  O   UNL     1      -5.571  -4.636 -11.461  1.00  0.00    -0.264 OA
ATOM     55  H   UNL     1      -4.601  -4.560 -11.353  1.00  0.00     0.236 HD
ENDBRANCH  51  54
ENDBRANCH  50  51
ENDBRANCH   8  50
TORSDOF 19
ENDMDL
MODEL 10
REMARK VINA RESULT:    -7.204      3.766      7.795
REMARK INTER + INTRA:         -17.787
REMARK INTER:                 -13.590
REMARK INTRA:                  -4.196
REMARK UNBOUND:                -3.213
REMARK SMILES CC[C@@H](C)[C@@H](NC(=O)[C@@H](O)Cc1ccc(O)c(Cl)c1)C(=O)N1[C@H](C(=O)NCCCCN=C(N)N)C[C@H]2CC[C@H](OS(=O)(=O)O)C[C@@H]21
REMARK SMILES IDX 22 1 36 2 46 3 35 4 23 5 45 6 37 7 39 8 38 9 20 10 21 11
REMARK SMILES IDX 5 12 6 13 7 14 8 15 9 17 11 18 12 19 17 20 19 21 15 22 14 23
REMARK SMILES IDX 13 24 18 25 16 26 10 28 3 30 4 31 2 32 1 33 24 34 25 35
REMARK SMILES IDX 26 36 27 38 28 39 29 40 30 41 31 42 32 43 33 44 34 45 40 50
REMARK SMILES IDX 41 51 42 52 43 53 44 54
REMARK H PARENT 6 16 16 27 10 29 26 37 33 46 33 47 34 48 34 49 44 55
ROOT
ATOM      1  N   UNL     1      -3.399  -6.941  -5.635  1.00  0.00    -0.326 N 
ATOM      2  C   UNL     1      -4.209  -7.626  -7.736  1.00  0.00     0.014 C 
ATOM      3  C   UNL     1      -4.629  -6.943  -6.432  1.00  0.00     0.091 C 
ATOM      4  C   UNL     1      -3.191  -8.653  -7.264  1.00  0.00     0.041 C 
ATOM      5  C   UNL     1      -2.372  -7.793  -6.283  1.00  0.00     0.175 C 
ATOM      6  C   UNL     1      -5.272  -5.600  -6.775  1.00  0.00     0.059 C 
ATOM      7  C   UNL     1      -5.421  -8.087  -8.522  1.00  0.00     0.008 C 
ATOM      8  C   UNL     1      -6.019  -5.596  -8.126  1.00  0.00     0.143 C 
ATOM      9  C   UNL     1      -6.518  -7.002  -8.516  1.00  0.00     0.034 C 
ENDROOT
BRANCH   1  10
ATOM     10  C   UNL     1      -3.173  -6.470  -4.353  1.00  0.00     0.246 C 
ATOM     11  O   UNL     1      -2.167  -5.787  -4.132  1.00  0.00    -0.272 OA
BRANCH  10  12
ATOM     12  C   UNL     1      -4.208  -6.772  -3.231  1.00  0.00     0.174 C 
BRANCH  12  13
ATOM     13  N   UNL     1      -4.819  -5.527  -2.767  1.00  0.00    -0.342 N 
ATOM     14  C   UNL     1      -6.099  -5.115  -3.067  1.00  0.00     0.249 C 
ATOM     15  O   UNL     1      -6.885  -5.769  -3.740  1.00  0.00    -0.272 OA
ATOM     16  H   UNL     1      -4.240  -4.812  -2.333  1.00  0.00     0.164 HD
BRANCH  14  17
ATOM     17  C   UNL     1      -6.445  -3.746  -2.443  1.00  0.00     0.207 C 
BRANCH  17  18
ATOM     18  C   UNL     1      -7.736  -3.842  -1.624  1.00  0.00     0.077 C 
BRANCH  18  19
ATOM     19  C   UNL     1      -7.620  -4.857  -0.509  1.00  0.00    -0.043 A 
ATOM     20  C   UNL     1      -6.508  -5.669   1.488  1.00  0.00     0.083 A 
ATOM     21  C   UNL     1      -6.645  -4.705   0.489  1.00  0.00     0.028 A 
ATOM     22  C   UNL     1      -7.340  -6.789   1.496  1.00  0.00     0.134 A 
ATOM     23  C   UNL     1      -8.310  -6.953   0.514  1.00  0.00     0.048 A 
ATOM     24  C   UNL     1      -8.448  -5.990  -0.489  1.00  0.00     0.008 A 
ATOM     25  Cl  UNL     1      -5.305  -5.464   2.706  1.00  0.00    -0.080 Cl
BRANCH  22  26
ATOM     26  O   UNL     1      -7.236  -7.767   2.449  1.00  0.00    -0.506 OA
ATOM     27  H   UNL     1      -7.358  -8.619   1.991  1.00  0.00     0.293 HD
ENDBRANCH  22  26
ENDBRANCH  18  19
ENDBRANCH  17  18
BRANCH  17  28
ATOM     28  O   UNL     1      -6.598  -2.740  -3.457  1.00  0.00    -0.383 OA
ATOM     29  H   UNL     1      -7.448  -2.938  -3.911  1.00  0.00     0.211 HD
ENDBRANCH  17  28
ENDBRANCH  14  17
ENDBRANCH  12  13
BRANCH  12  30
ATOM     30  C   UNL     1      -3.606  -7.605  -2.067  1.00  0.00     0.018 C 
ATOM     31  C   UNL     1      -3.133  -8.979  -2.567  1.00  0.00     0.010 C 
BRANCH  30  32
ATOM     32  C   UNL     1      -4.565  -7.777  -0.865  1.00  0.00     0.002 C 
ATOM     33  C   UNL     1      -4.779  -9.213  -0.403  1.00  0.00     0.004 C 
ENDBRANCH  30  32
ENDBRANCH  12  30
ENDBRANCH  10  12
ENDBRANCH   1  10
BRANCH   5  34
ATOM     34  C   UNL     1      -1.323  -6.923  -7.025  1.00  0.00     0.242 C 
ATOM     35  O   UNL     1      -0.186  -7.327  -7.267  1.00  0.00    -0.273 OA
ATOM     36  N   UNL     1      -1.738  -5.649  -7.342  1.00  0.00    -0.354 N 
ATOM     37  H   UNL     1      -2.649  -5.331  -7.009  1.00  0.00     0.163 HD
BRANCH  36  38
ATOM     38  C   UNL     1      -0.975  -4.782  -8.216  1.00  0.00     0.116 C 
BRANCH  38  39
ATOM     39  C   UNL     1      -1.433  -3.336  -8.042  1.00  0.00     0.023 C 
BRANCH  39  40
ATOM     40  C   UNL     1      -2.390  -3.166  -6.867  1.00  0.00     0.026 C 
BRANCH  40  41
ATOM     41  C   UNL     1      -3.178  -1.862  -6.994  1.00  0.00     0.146 C 
BRANCH  41  42
ATOM     42  N   UNL     1      -4.468  -2.001  -6.331  1.00  0.00    -0.254 NA
ATOM     43  C   UNL     1      -5.537  -2.059  -7.032  1.00  0.00     0.185 C 
ATOM     44  N   UNL     1      -5.700  -2.014  -8.367  1.00  0.00    -0.370 N 
ATOM     45  N   UNL     1      -6.717  -2.182  -6.401  1.00  0.00    -0.370 N 
ATOM     46  H   UNL     1      -6.603  -1.824  -8.767  1.00  0.00     0.159 HD
ATOM     47  H   UNL     1      -4.909  -1.936  -8.998  1.00  0.00     0.159 HD
ATOM     48  H   UNL     1      -6.683  -2.232  -5.392  1.00  0.00     0.159 HD
ATOM     49  H   UNL     1      -7.557  -2.469  -6.871  1.00  0.00     0.159 HD
ENDBRANCH  41  42
ENDBRANCH  40  41
ENDBRANCH  39  40
ENDBRANCH  38  39
ENDBRANCH  36  38
ENDBRANCH   5  34
BRANCH   8  50
ATOM     50  O   UNL     1      -5.160  -5.117  -9.161  1.00  0.00    -0.245 OA
BRANCH  50  51
ATOM     51  S   UNL     1      -5.806  -4.474 -10.508  1.00  0.00     0.397 S 
ATOM     52  O   UNL     1      -4.872  -3.501 -11.030  1.00  0.00    -0.169 OA
ATOM     53  O   UNL     1      -7.195  -4.142 -10.270  1.00  0.00    -0.169 OA
BRANCH  51  54
ATOM     54  O   UNL     1      -5.760  -5.716 -11.528  1.00  0.00    -0.264 OA
ATOM     55  H   UNL     1      -6.408  -5.540 -12.241  1.00  0.00     0.236 HD
ENDBRANCH  51  54
ENDBRANCH  50  51
ENDBRANCH   8  50
TORSDOF 19
ENDMDL
MODEL 11
REMARK VINA RESULT:    -7.151      4.573      8.464
REMARK INTER + INTRA:         -17.680
REMARK INTER:                 -13.829
REMARK INTRA:                  -3.851
REMARK UNBOUND:                -3.213
REMARK SMILES CC[C@@H](C)[C@@H](NC(=O)[C@@H](O)Cc1ccc(O)c(Cl)c1)C(=O)N1[C@H](C(=O)NCCCCN=C(N)N)C[C@H]2CC[C@H](OS(=O)(=O)O)C[C@@H]21
REMARK SMILES IDX 22 1 36 2 46 3 35 4 23 5 45 6 37 7 39 8 38 9 20 10 21 11
REMARK SMILES IDX 5 12 6 13 7 14 8 15 9 17 11 18 12 19 17 20 19 21 15 22 14 23
REMARK SMILES IDX 13 24 18 25 16 26 10 28 3 30 4 31 2 32 1 33 24 34 25 35
REMARK SMILES IDX 26 36 27 38 28 39 29 40 30 41 31 42 32 43 33 44 34 45 40 50
REMARK SMILES IDX 41 51 42 52 43 53 44 54
REMARK H PARENT 6 16 16 27 10 29 26 37 33 46 33 47 34 48 34 49 44 55
ROOT
ATOM      1  N   UNL     1      -4.328  -3.537  -7.326  1.00  0.00    -0.326 N 
ATOM      2  C   UNL     1      -6.408  -3.754  -8.409  1.00  0.00     0.014 C 
ATOM      3  C   UNL     1      -4.896  -3.834  -8.645  1.00  0.00     0.091 C 
ATOM      4  C   UNL     1      -6.527  -2.647  -7.373  1.00  0.00     0.041 C 
ATOM      5  C   UNL     1      -5.392  -3.048  -6.414  1.00  0.00     0.175 C 
ATOM      6  C   UNL     1      -4.578  -5.185  -9.283  1.00  0.00     0.059 C 
ATOM      7  C   UNL     1      -7.155  -3.628  -9.722  1.00  0.00     0.008 C 
ATOM      8  C   UNL     1      -5.704  -5.725 -10.190  1.00  0.00     0.143 C 
ATOM      9  C   UNL     1      -6.569  -4.591 -10.777  1.00  0.00     0.034 C 
ENDROOT
BRANCH   1  10
ATOM     10  C   UNL     1      -3.005  -3.447  -6.930  1.00  0.00     0.246 C 
ATOM     11  O   UNL     1      -2.480  -4.412  -6.364  1.00  0.00    -0.272 OA
BRANCH  10  12
ATOM     12  C   UNL     1      -2.197  -2.155  -7.242  1.00  0.00     0.174 C 
BRANCH  12  13
ATOM     13  N   UNL     1      -3.094  -1.113  -7.740  1.00  0.00    -0.342 N 
ATOM     14  C   UNL     1      -3.189   0.161  -7.226  1.00  0.00     0.249 C 
ATOM     15  O   UNL     1      -2.503   0.575  -6.300  1.00  0.00    -0.272 OA
ATOM     16  H   UNL     1      -3.831  -1.355  -8.399  1.00  0.00     0.164 HD
BRANCH  14  17
ATOM     17  C   UNL     1      -4.242   1.021  -7.957  1.00  0.00     0.207 C 
BRANCH  17  18
ATOM     18  C   UNL     1      -3.684   1.533  -9.289  1.00  0.00     0.077 C 
BRANCH  18  19
ATOM     19  C   UNL     1      -4.155   0.693 -10.455  1.00  0.00    -0.043 A 
ATOM     20  C   UNL     1      -3.954   0.018 -12.776  1.00  0.00     0.083 A 
ATOM     21  C   UNL     1      -3.487   0.756 -11.688  1.00  0.00     0.028 A 
ATOM     22  C   UNL     1      -5.088  -0.784 -12.641  1.00  0.00     0.134 A 
ATOM     23  C   UNL     1      -5.758  -0.856 -11.425  1.00  0.00     0.048 A 
ATOM     24  C   UNL     1      -5.295  -0.117 -10.335  1.00  0.00     0.008 A 
ATOM     25  Cl  UNL     1      -3.121   0.108 -14.284  1.00  0.00    -0.080 Cl
BRANCH  22  26
ATOM     26  O   UNL     1      -5.589  -1.518 -13.682  1.00  0.00    -0.506 OA
ATOM     27  H   UNL     1      -6.511  -1.737 -13.452  1.00  0.00     0.293 HD
ENDBRANCH  22  26
ENDBRANCH  18  19
ENDBRANCH  17  18
BRANCH  17  28
ATOM     28  O   UNL     1      -4.648   2.138  -7.150  1.00  0.00    -0.383 OA
ATOM     29  H   UNL     1      -5.060   2.784  -7.767  1.00  0.00     0.211 HD
ENDBRANCH  17  28
ENDBRANCH  14  17
ENDBRANCH  12  13
BRANCH  12  30
ATOM     30  C   UNL     1      -1.000  -2.412  -8.197  1.00  0.00     0.018 C 
ATOM     31  C   UNL     1      -0.228  -1.111  -8.468  1.00  0.00     0.010 C 
BRANCH  30  32
ATOM     32  C   UNL     1      -1.404  -3.078  -9.535  1.00  0.00     0.002 C 
ATOM     33  C   UNL     1      -1.455  -2.146 -10.738  1.00  0.00     0.004 C 
ENDBRANCH  30  32
ENDBRANCH  12  30
ENDBRANCH  10  12
ENDBRANCH   1  10
BRANCH   5  34
ATOM     34  C   UNL     1      -5.837  -4.169  -5.437  1.00  0.00     0.242 C 
ATOM     35  O   UNL     1      -6.968  -4.653  -5.463  1.00  0.00    -0.273 OA
ATOM     36  N   UNL     1      -4.893  -4.544  -4.507  1.00  0.00    -0.354 N 
ATOM     37  H   UNL     1      -4.017  -4.023  -4.458  1.00  0.00     0.163 HD
BRANCH  36  38
ATOM     38  C   UNL     1      -5.058  -5.712  -3.666  1.00  0.00     0.116 C 
BRANCH  38  39
ATOM     39  C   UNL     1      -3.749  -6.018  -2.942  1.00  0.00     0.023 C 
BRANCH  39  40
ATOM     40  C   UNL     1      -2.627  -6.398  -3.902  1.00  0.00     0.026 C 
BRANCH  40  41
ATOM     41  C   UNL     1      -3.060  -7.546  -4.814  1.00  0.00     0.146 C 
BRANCH  41  42
ATOM     42  N   UNL     1      -1.885  -8.198  -5.377  1.00  0.00    -0.254 NA
ATOM     43  C   UNL     1      -1.516  -7.918  -6.571  1.00  0.00     0.185 C 
ATOM     44  N   UNL     1      -2.054  -7.070  -7.466  1.00  0.00    -0.370 N 
ATOM     45  N   UNL     1      -0.433  -8.534  -7.072  1.00  0.00    -0.370 N 
ATOM     46  H   UNL     1      -1.811  -7.131  -8.440  1.00  0.00     0.159 HD
ATOM     47  H   UNL     1      -2.873  -6.512  -7.246  1.00  0.00     0.159 HD
ATOM     48  H   UNL     1       0.038  -9.184  -6.458  1.00  0.00     0.159 HD
ATOM     49  H   UNL     1       0.051  -8.204  -7.889  1.00  0.00     0.159 HD
ENDBRANCH  41  42
ENDBRANCH  40  41
ENDBRANCH  39  40
ENDBRANCH  38  39
ENDBRANCH  36  38
ENDBRANCH   5  34
BRANCH   8  50
ATOM     50  O   UNL     1      -6.551  -6.604  -9.450  1.00  0.00    -0.245 OA
BRANCH  50  51
ATOM     51  S   UNL     1      -5.889  -7.775  -8.536  1.00  0.00     0.397 S 
ATOM     52  O   UNL     1      -4.551  -8.022  -9.026  1.00  0.00    -0.169 OA
ATOM     53  O   UNL     1      -6.843  -8.850  -8.357  1.00  0.00    -0.169 OA
BRANCH  51  54
ATOM     54  O   UNL     1      -5.707  -7.034  -7.121  1.00  0.00    -0.264 OA
ATOM     55  H   UNL     1      -6.595  -6.766  -6.808  1.00  0.00     0.236 HD
ENDBRANCH  51  54
ENDBRANCH  50  51
ENDBRANCH   8  50
TORSDOF 19
ENDMDL
MODEL 12
REMARK VINA RESULT:    -7.114      4.062      7.825
REMARK INTER + INTRA:         -17.604
REMARK INTER:                 -14.318
REMARK INTRA:                  -3.287
REMARK UNBOUND:                -3.213
REMARK SMILES CC[C@@H](C)[C@@H](NC(=O)[C@@H](O)Cc1ccc(O)c(Cl)c1)C(=O)N1[C@H](C(=O)NCCCCN=C(N)N)C[C@H]2CC[C@H](OS(=O)(=O)O)C[C@@H]21
REMARK SMILES IDX 22 1 36 2 46 3 35 4 23 5 45 6 37 7 39 8 38 9 20 10 21 11
REMARK SMILES IDX 5 12 6 13 7 14 8 15 9 17 11 18 12 19 17 20 19 21 15 22 14 23
REMARK SMILES IDX 13 24 18 25 16 26 10 28 3 30 4 31 2 32 1 33 24 34 25 35
REMARK SMILES IDX 26 36 27 38 28 39 29 40 30 41 31 42 32 43 33 44 34 45 40 50
REMARK SMILES IDX 41 51 42 52 43 53 44 54
REMARK H PARENT 6 16 16 27 10 29 26 37 33 46 33 47 34 48 34 49 44 55
ROOT
ATOM      1  N   UNL     1      -3.439  -6.683  -5.328  1.00  0.00    -0.326 N 
ATOM      2  C   UNL     1      -3.966  -7.429  -7.498  1.00  0.00     0.014 C 
ATOM      3  C   UNL     1      -4.593  -6.899  -6.206  1.00  0.00     0.091 C 
ATOM      4  C   UNL     1      -2.790  -8.248  -6.989  1.00  0.00     0.041 C 
ATOM      5  C   UNL     1      -2.224  -7.283  -5.931  1.00  0.00     0.175 C 
ATOM      6  C   UNL     1      -5.475  -5.700  -6.553  1.00  0.00     0.059 C 
ATOM      7  C   UNL     1      -5.009  -8.092  -8.376  1.00  0.00     0.008 C 
ATOM      8  C   UNL     1      -6.125  -5.791  -7.950  1.00  0.00     0.143 C 
ATOM      9  C   UNL     1      -6.303  -7.251  -8.413  1.00  0.00     0.034 C 
ENDROOT
BRANCH   1  10
ATOM     10  C   UNL     1      -3.391  -6.229  -4.021  1.00  0.00     0.246 C 
ATOM     11  O   UNL     1      -2.411  -5.575  -3.648  1.00  0.00    -0.272 OA
BRANCH  10  12
ATOM     12  C   UNL     1      -4.586  -6.514  -3.066  1.00  0.00     0.174 C 
BRANCH  12  13
ATOM     13  N   UNL     1      -4.680  -5.459  -2.057  1.00  0.00    -0.342 N 
ATOM     14  C   UNL     1      -5.731  -4.578  -1.930  1.00  0.00     0.249 C 
ATOM     15  O   UNL     1      -6.728  -4.599  -2.641  1.00  0.00    -0.272 OA
ATOM     16  H   UNL     1      -3.863  -5.220  -1.500  1.00  0.00     0.164 HD
BRANCH  14  17
ATOM     17  C   UNL     1      -5.527  -3.570  -0.779  1.00  0.00     0.207 C 
BRANCH  17  18
ATOM     18  C   UNL     1      -6.647  -3.707   0.257  1.00  0.00     0.077 C 
BRANCH  18  19
ATOM     19  C   UNL     1      -6.607  -5.049   0.954  1.00  0.00    -0.043 A 
ATOM     20  C   UNL     1      -5.366  -6.775   2.123  1.00  0.00     0.083 A 
ATOM     21  C   UNL     1      -5.412  -5.515   1.524  1.00  0.00     0.028 A 
ATOM     22  C   UNL     1      -6.508  -7.575   2.153  1.00  0.00     0.134 A 
ATOM     23  C   UNL     1      -7.698  -7.126   1.592  1.00  0.00     0.048 A 
ATOM     24  C   UNL     1      -7.747  -5.867   0.991  1.00  0.00     0.008 A 
ATOM     25  Cl  UNL     1      -3.889  -7.330   2.818  1.00  0.00    -0.080 Cl
BRANCH  22  26
ATOM     26  O   UNL     1      -6.509  -8.822   2.719  1.00  0.00    -0.506 OA
ATOM     27  H   UNL     1      -5.734  -8.861   3.310  1.00  0.00     0.293 HD
ENDBRANCH  22  26
ENDBRANCH  18  19
ENDBRANCH  17  18
BRANCH  17  28
ATOM     28  O   UNL     1      -5.497  -2.221  -1.272  1.00  0.00    -0.383 OA
ATOM     29  H   UNL     1      -4.691  -2.155  -1.834  1.00  0.00     0.211 HD
ENDBRANCH  17  28
ENDBRANCH  14  17
ENDBRANCH  12  13
BRANCH  12  30
ATOM     30  C   UNL     1      -4.527  -7.932  -2.437  1.00  0.00     0.018 C 
ATOM     31  C   UNL     1      -5.626  -8.106  -1.377  1.00  0.00     0.010 C 
BRANCH  30  32
ATOM     32  C   UNL     1      -3.145  -8.287  -1.834  1.00  0.00     0.002 C 
ATOM     33  C   UNL     1      -3.187  -9.072  -0.530  1.00  0.00     0.004 C 
ENDBRANCH  30  32
ENDBRANCH  12  30
ENDBRANCH  10  12
ENDBRANCH   1  10
BRANCH   5  34
ATOM     34  C   UNL     1      -1.331  -6.188  -6.575  1.00  0.00     0.242 C 
ATOM     35  O   UNL     1      -0.248  -6.447  -7.099  1.00  0.00    -0.273 OA
ATOM     36  N   UNL     1      -1.814  -4.903  -6.470  1.00  0.00    -0.354 N 
ATOM     37  H   UNL     1      -2.658  -4.738  -5.920  1.00  0.00     0.163 HD
BRANCH  36  38
ATOM     38  C   UNL     1      -1.226  -3.795  -7.195  1.00  0.00     0.116 C 
BRANCH  38  39
ATOM     39  C   UNL     1      -2.044  -3.505  -8.451  1.00  0.00     0.023 C 
BRANCH  39  40
ATOM     40  C   UNL     1      -2.089  -2.018  -8.787  1.00  0.00     0.026 C 
BRANCH  40  41
ATOM     41  C   UNL     1      -1.307  -1.728 -10.067  1.00  0.00     0.146 C 
BRANCH  41  42
ATOM     42  N   UNL     1      -1.697  -2.671 -11.107  1.00  0.00    -0.254 NA
ATOM     43  C   UNL     1      -2.640  -2.365 -11.918  1.00  0.00     0.185 C 
ATOM     44  N   UNL     1      -3.391  -1.251 -11.991  1.00  0.00    -0.370 N 
ATOM     45  N   UNL     1      -2.987  -3.250 -12.866  1.00  0.00    -0.370 N 
ATOM     46  H   UNL     1      -4.250  -1.246 -12.513  1.00  0.00     0.159 HD
ATOM     47  H   UNL     1      -3.252  -0.472 -11.355  1.00  0.00     0.159 HD
ATOM     48  H   UNL     1      -2.464  -4.115 -12.887  1.00  0.00     0.159 HD
ATOM     49  H   UNL     1      -3.536  -2.999 -13.669  1.00  0.00     0.159 HD
ENDBRANCH  41  42
ENDBRANCH  40  41
ENDBRANCH  39  40
ENDBRANCH  38  39
ENDBRANCH  36  38
ENDBRANCH   5  34
BRANCH   8  50
ATOM     50  O   UNL     1      -5.321  -5.106  -8.911  1.00  0.00    -0.245 OA
BRANCH  50  51
ATOM     51  S   UNL     1      -6.002  -4.555 -10.281  1.00  0.00     0.397 S 
ATOM     52  O   UNL     1      -5.382  -3.292 -10.612  1.00  0.00    -0.169 OA
ATOM     53  O   UNL     1      -7.441  -4.696 -10.200  1.00  0.00    -0.169 OA
BRANCH  51  54
ATOM     54  O   UNL     1      -5.462  -5.607 -11.371  1.00  0.00    -0.264 OA
ATOM     55  H   UNL     1      -6.221  -6.151 -11.662  1.00  0.00     0.236 HD
ENDBRANCH  51  54
ENDBRANCH  50  51
ENDBRANCH   8  50
TORSDOF 19
ENDMDL
MODEL 13
REMARK VINA RESULT:    -7.057      4.317      7.798
REMARK INTER + INTRA:         -17.490
REMARK INTER:                 -13.511
REMARK INTRA:                  -3.979
REMARK UNBOUND:                -3.213
REMARK SMILES CC[C@@H](C)[C@@H](NC(=O)[C@@H](O)Cc1ccc(O)c(Cl)c1)C(=O)N1[C@H](C(=O)NCCCCN=C(N)N)C[C@H]2CC[C@H](OS(=O)(=O)O)C[C@@H]21
REMARK SMILES IDX 22 1 36 2 46 3 35 4 23 5 45 6 37 7 39 8 38 9 20 10 21 11
REMARK SMILES IDX 5 12 6 13 7 14 8 15 9 17 11 18 12 19 17 20 19 21 15 22 14 23
REMARK SMILES IDX 13 24 18 25 16 26 10 28 3 30 4 31 2 32 1 33 24 34 25 35
REMARK SMILES IDX 26 36 27 38 28 39 29 40 30 41 31 42 32 43 33 44 34 45 40 50
REMARK SMILES IDX 41 51 42 52 43 53 44 54
REMARK H PARENT 6 16 16 27 10 29 26 37 33 46 33 47 34 48 34 49 44 55
ROOT
ATOM      1  N   UNL     1      -4.523  -5.143  -6.244  1.00  0.00    -0.326 N 
ATOM      2  C   UNL     1      -3.830  -6.087  -4.201  1.00  0.00     0.014 C 
ATOM      3  C   UNL     1      -4.663  -4.949  -4.797  1.00  0.00     0.091 C 
ATOM      4  C   UNL     1      -2.689  -6.224  -5.197  1.00  0.00     0.041 C 
ATOM      5  C   UNL     1      -3.473  -6.153  -6.521  1.00  0.00     0.175 C 
ATOM      6  C   UNL     1      -6.064  -5.007  -4.191  1.00  0.00     0.059 C 
ATOM      7  C   UNL     1      -3.516  -5.823  -2.742  1.00  0.00     0.008 C 
ATOM      8  C   UNL     1      -6.093  -5.539  -2.742  1.00  0.00     0.143 C 
ATOM      9  C   UNL     1      -4.762  -5.286  -2.006  1.00  0.00     0.034 C 
ENDROOT
BRANCH   1  10
ATOM     10  C   UNL     1      -5.042  -4.403  -7.293  1.00  0.00     0.246 C 
ATOM     11  O   UNL     1      -6.194  -3.964  -7.207  1.00  0.00    -0.272 OA
BRANCH  10  12
ATOM     12  C   UNL     1      -4.152  -4.105  -8.534  1.00  0.00     0.174 C 
BRANCH  12  13
ATOM     13  N   UNL     1      -3.307  -2.940  -8.274  1.00  0.00    -0.342 N 
ATOM     14  C   UNL     1      -1.945  -2.980  -8.074  1.00  0.00     0.249 C 
ATOM     15  O   UNL     1      -1.279  -4.007  -8.120  1.00  0.00    -0.272 OA
ATOM     16  H   UNL     1      -3.737  -2.045  -8.052  1.00  0.00     0.164 HD
BRANCH  14  17
ATOM     17  C   UNL     1      -1.341  -1.585  -7.804  1.00  0.00     0.207 C 
BRANCH  17  18
ATOM     18  C   UNL     1      -0.487  -1.133  -8.993  1.00  0.00     0.077 C 
BRANCH  18  19
ATOM     19  C   UNL     1      -1.335  -0.579 -10.116  1.00  0.00    -0.043 A 
ATOM     20  C   UNL     1      -3.161   0.826 -10.875  1.00  0.00     0.083 A 
ATOM     21  C   UNL     1      -2.348   0.354  -9.844  1.00  0.00     0.028 A 
ATOM     22  C   UNL     1      -2.969   0.371 -12.180  1.00  0.00     0.134 A 
ATOM     23  C   UNL     1      -1.969  -0.552 -12.463  1.00  0.00     0.048 A 
ATOM     24  C   UNL     1      -1.155  -1.028 -11.433  1.00  0.00     0.008 A 
ATOM     25  Cl  UNL     1      -4.401   1.971 -10.521  1.00  0.00    -0.080 Cl
BRANCH  22  26
ATOM     26  O   UNL     1      -3.747   0.797 -13.222  1.00  0.00    -0.506 OA
ATOM     27  H   UNL     1      -3.343   1.619 -13.556  1.00  0.00     0.293 HD
ENDBRANCH  22  26
ENDBRANCH  18  19
ENDBRANCH  17  18
BRANCH  17  28
ATOM     28  O   UNL     1      -0.537  -1.591  -6.614  1.00  0.00    -0.383 OA
ATOM     29  H   UNL     1       0.393  -1.705  -6.915  1.00  0.00     0.211 HD
ENDBRANCH  17  28
ENDBRANCH  14  17
ENDBRANCH  12  13
BRANCH  12  30
ATOM     30  C   UNL     1      -4.976  -3.958  -9.842  1.00  0.00     0.018 C 
ATOM     31  C   UNL     1      -4.997  -5.280 -10.625  1.00  0.00     0.010 C 
BRANCH  30  32
ATOM     32  C   UNL     1      -4.493  -2.805 -10.755  1.00  0.00     0.002 C 
ATOM     33  C   UNL     1      -5.597  -1.964 -11.381  1.00  0.00     0.004 C 
ENDBRANCH  30  32
ENDBRANCH  12  30
ENDBRANCH  10  12
ENDBRANCH   1  10
BRANCH   5  34
ATOM     34  C   UNL     1      -4.108  -7.522  -6.884  1.00  0.00     0.242 C 
ATOM     35  O   UNL     1      -5.267  -7.624  -7.285  1.00  0.00    -0.273 OA
ATOM     36  N   UNL     1      -3.300  -8.617  -6.673  1.00  0.00    -0.354 N 
ATOM     37  H   UNL     1      -2.392  -8.479  -6.226  1.00  0.00     0.163 HD
BRANCH  36  38
ATOM     38  C   UNL     1      -3.646  -9.938  -7.155  1.00  0.00     0.116 C 
BRANCH  38  39
ATOM     39  C   UNL     1      -2.684 -10.971  -6.573  1.00  0.00     0.023 C 
BRANCH  39  40
ATOM     40  C   UNL     1      -1.591 -10.334  -5.721  1.00  0.00     0.026 C 
BRANCH  40  41
ATOM     41  C   UNL     1      -0.315 -10.132  -6.538  1.00  0.00     0.146 C 
BRANCH  41  42
ATOM     42  N   UNL     1      -0.016  -8.710  -6.640  1.00  0.00    -0.254 NA
ATOM     43  C   UNL     1      -0.196  -8.103  -7.752  1.00  0.00     0.185 C 
ATOM     44  N   UNL     1      -0.646  -8.572  -8.931  1.00  0.00    -0.370 N 
ATOM     45  N   UNL     1       0.090  -6.793  -7.827  1.00  0.00    -0.370 N 
ATOM     46  H   UNL     1      -0.506  -8.048  -9.778  1.00  0.00     0.159 HD
ATOM     47  H   UNL     1      -0.921  -9.542  -9.048  1.00  0.00     0.159 HD
ATOM     48  H   UNL     1       0.426  -6.358  -6.978  1.00  0.00     0.159 HD
ATOM     49  H   UNL     1      -0.241  -6.205  -8.572  1.00  0.00     0.159 HD
ENDBRANCH  41  42
ENDBRANCH  40  41
ENDBRANCH  39  40
ENDBRANCH  38  39
ENDBRANCH  36  38
ENDBRANCH   5  34
BRANCH   8  50
ATOM     50  O   UNL     1      -6.353  -6.943  -2.740  1.00  0.00    -0.245 OA
BRANCH  50  51
ATOM     51  S   UNL     1      -7.361  -7.572  -1.630  1.00  0.00     0.397 S 
ATOM     52  O   UNL     1      -8.366  -6.577  -1.326  1.00  0.00    -0.169 OA
ATOM     53  O   UNL     1      -6.593  -8.220  -0.587  1.00  0.00    -0.169 OA
BRANCH  51  54
ATOM     54  O   UNL     1      -8.117  -8.714  -2.472  1.00  0.00    -0.264 OA
ATOM     55  H   UNL     1      -7.844  -8.625  -3.408  1.00  0.00     0.236 HD
ENDBRANCH  51  54
ENDBRANCH  50  51
ENDBRANCH   8  50
TORSDOF 19
ENDMDL
MODEL 14
REMARK VINA RESULT:    -7.042      2.803      5.614
REMARK INTER + INTRA:         -17.459
REMARK INTER:                 -13.512
REMARK INTRA:                  -3.947
REMARK UNBOUND:                -3.213
REMARK SMILES CC[C@@H](C)[C@@H](NC(=O)[C@@H](O)Cc1ccc(O)c(Cl)c1)C(=O)N1[C@H](C(=O)NCCCCN=C(N)N)C[C@H]2CC[C@H](OS(=O)(=O)O)C[C@@H]21
REMARK SMILES IDX 22 1 36 2 46 3 35 4 23 5 45 6 37 7 39 8 38 9 20 10 21 11
REMARK SMILES IDX 5 12 6 13 7 14 8 15 9 17 11 18 12 19 17 20 19 21 15 22 14 23
REMARK SMILES IDX 13 24 18 25 16 26 10 28 3 30 4 31 2 32 1 33 24 34 25 35
REMARK SMILES IDX 26 36 27 38 28 39 29 40 30 41 31 42 32 43 33 44 34 45 40 50
REMARK SMILES IDX 41 51 42 52 43 53 44 54
REMARK H PARENT 6 16 16 27 10 29 26 37 33 46 33 47 34 48 34 49 44 55
ROOT
ATOM      1  N   UNL     1      -7.658  -4.022  -3.885  1.00  0.00    -0.326 N 
ATOM      2  C   UNL     1      -7.184  -3.282  -1.702  1.00  0.00     0.014 C 
ATOM      3  C   UNL     1      -7.917  -2.892  -2.989  1.00  0.00     0.091 C 
ATOM      4  C   UNL     1      -5.966  -4.028  -2.222  1.00  0.00     0.041 C 
ATOM      5  C   UNL     1      -6.627  -4.912  -3.296  1.00  0.00     0.175 C 
ATOM      6  C   UNL     1      -9.367  -2.563  -2.638  1.00  0.00     0.059 C 
ATOM      7  C   UNL     1      -6.989  -2.076  -0.803  1.00  0.00     0.008 C 
ATOM      8  C   UNL     1      -9.543  -1.954  -1.231  1.00  0.00     0.143 C 
ATOM      9  C   UNL     1      -8.273  -1.221  -0.753  1.00  0.00     0.034 C 
ENDROOT
BRANCH   1  10
ATOM     10  C   UNL     1      -8.053  -4.224  -5.197  1.00  0.00     0.246 C 
ATOM     11  O   UNL     1      -9.188  -4.656  -5.423  1.00  0.00    -0.272 OA
BRANCH  10  12
ATOM     12  C   UNL     1      -7.079  -3.862  -6.356  1.00  0.00     0.174 C 
BRANCH  12  13
ATOM     13  N   UNL     1      -6.611  -5.082  -7.013  1.00  0.00    -0.342 N 
ATOM     14  C   UNL     1      -7.088  -5.567  -8.210  1.00  0.00     0.249 C 
ATOM     15  O   UNL     1      -7.948  -5.008  -8.878  1.00  0.00    -0.272 OA
ATOM     16  H   UNL     1      -6.015  -5.730  -6.505  1.00  0.00     0.164 HD
BRANCH  14  17
ATOM     17  C   UNL     1      -6.404  -6.885  -8.632  1.00  0.00     0.207 C 
BRANCH  17  18
ATOM     18  C   UNL     1      -4.987  -6.613  -9.146  1.00  0.00     0.077 C 
BRANCH  18  19
ATOM     19  C   UNL     1      -3.939  -7.283  -8.286  1.00  0.00    -0.043 A 
ATOM     20  C   UNL     1      -1.669  -7.391  -7.439  1.00  0.00     0.083 A 
ATOM     21  C   UNL     1      -2.647  -6.743  -8.194  1.00  0.00     0.028 A 
ATOM     22  C   UNL     1      -1.973  -8.579  -6.774  1.00  0.00     0.134 A 
ATOM     23  C   UNL     1      -3.248  -9.125  -6.857  1.00  0.00     0.048 A 
ATOM     24  C   UNL     1      -4.229  -8.480  -7.613  1.00  0.00     0.008 A 
ATOM     25  Cl  UNL     1      -0.087  -6.711  -7.338  1.00  0.00    -0.080 Cl
BRANCH  22  26
ATOM     26  O   UNL     1      -1.044  -9.256  -6.031  1.00  0.00    -0.506 OA
ATOM     27  H   UNL     1      -1.523  -9.962  -5.559  1.00  0.00     0.293 HD
ENDBRANCH  22  26
ENDBRANCH  18  19
ENDBRANCH  17  18
BRANCH  17  28
ATOM     28  O   UNL     1      -7.161  -7.556  -9.653  1.00  0.00    -0.383 OA
ATOM     29  H   UNL     1      -7.228  -8.496  -9.369  1.00  0.00     0.211 HD
ENDBRANCH  17  28
ENDBRANCH  14  17
ENDBRANCH  12  13
BRANCH  12  30
ATOM     30  C   UNL     1      -5.910  -2.951  -5.894  1.00  0.00     0.018 C 
ATOM     31  C   UNL     1      -6.265  -1.468  -6.084  1.00  0.00     0.010 C 
BRANCH  30  32
ATOM     32  C   UNL     1      -4.563  -3.269  -6.589  1.00  0.00     0.002 C 
ATOM     33  C   UNL     1      -4.110  -2.251  -7.627  1.00  0.00     0.004 C 
ENDBRANCH  30  32
ENDBRANCH  12  30
ENDBRANCH  10  12
ENDBRANCH   1  10
BRANCH   5  34
ATOM     34  C   UNL     1      -7.280  -6.175  -2.675  1.00  0.00     0.242 C 
ATOM     35  O   UNL     1      -8.390  -6.580  -3.021  1.00  0.00    -0.273 OA
ATOM     36  N   UNL     1      -6.553  -6.778  -1.673  1.00  0.00    -0.354 N 
ATOM     37  H   UNL     1      -5.697  -6.327  -1.348  1.00  0.00     0.163 HD
BRANCH  36  38
ATOM     38  C   UNL     1      -6.905  -8.076  -1.136  1.00  0.00     0.116 C 
BRANCH  38  39
ATOM     39  C   UNL     1      -5.638  -8.878  -0.846  1.00  0.00     0.023 C 
BRANCH  39  40
ATOM     40  C   UNL     1      -4.390  -8.002  -0.812  1.00  0.00     0.026 C 
BRANCH  40  41
ATOM     41  C   UNL     1      -3.416  -8.404  -1.920  1.00  0.00     0.146 C 
BRANCH  41  42
ATOM     42  N   UNL     1      -3.838  -7.816  -3.184  1.00  0.00    -0.254 NA
ATOM     43  C   UNL     1      -3.326  -6.707  -3.568  1.00  0.00     0.185 C 
ATOM     44  N   UNL     1      -2.401  -5.930  -2.976  1.00  0.00    -0.370 N 
ATOM     45  N   UNL     1      -3.731  -6.179  -4.735  1.00  0.00    -0.370 N 
ATOM     46  H   UNL     1      -2.272  -4.975  -3.265  1.00  0.00     0.159 HD
ATOM     47  H   UNL     1      -1.976  -6.187  -2.091  1.00  0.00     0.159 HD
ATOM     48  H   UNL     1      -4.422  -6.707  -5.250  1.00  0.00     0.159 HD
ATOM     49  H   UNL     1      -3.221  -5.457  -5.212  1.00  0.00     0.159 HD
ENDBRANCH  41  42
ENDBRANCH  40  41
ENDBRANCH  39  40
ENDBRANCH  38  39
ENDBRANCH  36  38
ENDBRANCH   5  34
BRANCH   8  50
ATOM     50  O   UNL     1      -9.856  -2.980  -0.288  1.00  0.00    -0.245 OA
BRANCH  50  51
ATOM     51  S   UNL     1     -11.324  -3.006   0.413  1.00  0.00     0.397 S 
ATOM     52  O   UNL     1     -12.272  -2.433  -0.516  1.00  0.00    -0.169 OA
ATOM     53  O   UNL     1     -11.219  -2.535   1.778  1.00  0.00    -0.169 OA
BRANCH  51  54
ATOM     54  O   UNL     1     -11.648  -4.580   0.455  1.00  0.00    -0.264 OA
ATOM     55  H   UNL     1     -11.078  -4.984   1.141  1.00  0.00     0.236 HD
ENDBRANCH  51  54
ENDBRANCH  50  51
ENDBRANCH   8  50
TORSDOF 19
ENDMDL
MODEL 15
REMARK VINA RESULT:    -6.993      4.063      8.038
REMARK INTER + INTRA:         -17.361
REMARK INTER:                 -14.397
REMARK INTRA:                  -2.964
REMARK UNBOUND:                -3.213
REMARK SMILES CC[C@@H](C)[C@@H](NC(=O)[C@@H](O)Cc1ccc(O)c(Cl)c1)C(=O)N1[C@H](C(=O)NCCCCN=C(N)N)C[C@H]2CC[C@H](OS(=O)(=O)O)C[C@@H]21
REMARK SMILES IDX 22 1 36 2 46 3 35 4 23 5 45 6 37 7 39 8 38 9 20 10 21 11
REMARK SMILES IDX 5 12 6 13 7 14 8 15 9 17 11 18 12 19 17 20 19 21 15 22 14 23
REMARK SMILES IDX 13 24 18 25 16 26 10 28 3 30 4 31 2 32 1 33 24 34 25 35
REMARK SMILES IDX 26 36 27 38 28 39 29 40 30 41 31 42 32 43 33 44 34 45 40 50
REMARK SMILES IDX 41 51 42 52 43 53 44 54
REMARK H PARENT 6 16 16 27 10 29 26 37 33 46 33 47 34 48 34 49 44 55
ROOT
ATOM      1  N   UNL     1      -3.375  -6.791  -5.582  1.00  0.00    -0.326 N 
ATOM      2  C   UNL     1      -4.075  -7.450  -7.730  1.00  0.00     0.014 C 
ATOM      3  C   UNL     1      -4.590  -6.907  -6.394  1.00  0.00     0.091 C 
ATOM      4  C   UNL     1      -2.933  -8.360  -7.305  1.00  0.00     0.041 C 
ATOM      5  C   UNL     1      -2.241  -7.460  -6.265  1.00  0.00     0.175 C 
ATOM      6  C   UNL     1      -5.403  -5.643  -6.667  1.00  0.00     0.059 C 
ATOM      7  C   UNL     1      -5.211  -8.020  -8.557  1.00  0.00     0.008 C 
ATOM      8  C   UNL     1      -6.137  -5.657  -8.025  1.00  0.00     0.143 C 
ATOM      9  C   UNL     1      -6.443  -7.091  -8.503  1.00  0.00     0.034 C 
ENDROOT
BRANCH   1  10
ATOM     10  C   UNL     1      -3.221  -6.371  -4.271  1.00  0.00     0.246 C 
ATOM     11  O   UNL     1      -2.206  -5.738  -3.959  1.00  0.00    -0.272 OA
BRANCH  10  12
ATOM     12  C   UNL     1      -4.343  -6.666  -3.234  1.00  0.00     0.174 C 
BRANCH  12  13
ATOM     13  N   UNL     1      -5.028  -5.425  -2.874  1.00  0.00    -0.342 N 
ATOM     14  C   UNL     1      -6.369  -5.179  -3.067  1.00  0.00     0.249 C 
ATOM     15  O   UNL     1      -7.151  -5.994  -3.541  1.00  0.00    -0.272 OA
ATOM     16  H   UNL     1      -4.484  -4.605  -2.618  1.00  0.00     0.164 HD
BRANCH  14  17
ATOM     17  C   UNL     1      -6.788  -3.769  -2.599  1.00  0.00     0.207 C 
BRANCH  17  18
ATOM     18  C   UNL     1      -7.331  -2.954  -3.778  1.00  0.00     0.077 C 
BRANCH  18  19
ATOM     19  C   UNL     1      -8.588  -2.199  -3.407  1.00  0.00    -0.043 A 
ATOM     20  C   UNL     1     -10.297  -0.565  -3.950  1.00  0.00     0.083 A 
ATOM     21  C   UNL     1      -9.165  -1.296  -4.314  1.00  0.00     0.028 A 
ATOM     22  C   UNL     1     -10.856  -0.729  -2.683  1.00  0.00     0.134 A 
ATOM     23  C   UNL     1     -10.295  -1.619  -1.775  1.00  0.00     0.048 A 
ATOM     24  C   UNL     1      -9.161  -2.352  -2.135  1.00  0.00     0.008 A 
ATOM     25  Cl  UNL     1     -10.991   0.540  -5.078  1.00  0.00    -0.080 Cl
BRANCH  22  26
ATOM     26  O   UNL     1     -11.959  -0.026  -2.277  1.00  0.00    -0.506 OA
ATOM     27  H   UNL     1     -12.712  -0.361  -2.799  1.00  0.00     0.293 HD
ENDBRANCH  22  26
ENDBRANCH  18  19
ENDBRANCH  17  18
BRANCH  17  28
ATOM     28  O   UNL     1      -5.682  -3.070  -2.006  1.00  0.00    -0.383 OA
ATOM     29  H   UNL     1      -5.532  -3.493  -1.130  1.00  0.00     0.211 HD
ENDBRANCH  17  28
ENDBRANCH  14  17
ENDBRANCH  12  13
BRANCH  12  30
ATOM     30  C   UNL     1      -3.823  -7.437  -1.991  1.00  0.00     0.018 C 
ATOM     31  C   UNL     1      -3.137  -8.747  -2.408  1.00  0.00     0.010 C 
BRANCH  30  32
ATOM     32  C   UNL     1      -4.917  -7.723  -0.934  1.00  0.00     0.002 C 
ATOM     33  C   UNL     1      -4.850  -9.098  -0.282  1.00  0.00     0.004 C 
ENDBRANCH  30  32
ENDBRANCH  12  30
ENDBRANCH  10  12
ENDBRANCH   1  10
BRANCH   5  34
ATOM     34  C   UNL     1      -1.312  -6.416  -6.940  1.00  0.00     0.242 C 
ATOM     35  O   UNL     1      -0.133  -6.656  -7.202  1.00  0.00    -0.273 OA
ATOM     36  N   UNL     1      -1.886  -5.187  -7.175  1.00  0.00    -0.354 N 
ATOM     37  H   UNL     1      -2.830  -5.010  -6.827  1.00  0.00     0.163 HD
BRANCH  36  38
ATOM     38  C   UNL     1      -1.241  -4.174  -7.985  1.00  0.00     0.116 C 
BRANCH  38  39
ATOM     39  C   UNL     1      -2.111  -2.920  -8.037  1.00  0.00     0.023 C 
BRANCH  39  40
ATOM     40  C   UNL     1      -1.443  -1.779  -8.797  1.00  0.00     0.026 C 
BRANCH  40  41
ATOM     41  C   UNL     1      -2.364  -1.248  -9.896  1.00  0.00     0.146 C 
BRANCH  41  42
ATOM     42  N   UNL     1      -2.716  -2.328 -10.808  1.00  0.00    -0.254 NA
ATOM     43  C   UNL     1      -2.362  -2.260 -12.036  1.00  0.00     0.185 C 
ATOM     44  N   UNL     1      -1.672  -1.305 -12.686  1.00  0.00    -0.370 N 
ATOM     45  N   UNL     1      -2.700  -3.264 -12.862  1.00  0.00    -0.370 N 
ATOM     46  H   UNL     1      -1.677  -1.263 -13.691  1.00  0.00     0.159 HD
ATOM     47  H   UNL     1      -1.326  -0.479 -12.208  1.00  0.00     0.159 HD
ATOM     48  H   UNL     1      -3.215  -4.030 -12.449  1.00  0.00     0.159 HD
ATOM     49  H   UNL     1      -2.267  -3.401 -13.758  1.00  0.00     0.159 HD
ENDBRANCH  41  42
ENDBRANCH  40  41
ENDBRANCH  39  40
ENDBRANCH  38  39
ENDBRANCH  36  38
ENDBRANCH   5  34
BRANCH   8  50
ATOM     50  O   UNL     1      -5.342  -5.008  -9.018  1.00  0.00    -0.245 OA
BRANCH  50  51
ATOM     51  S   UNL     1      -6.023  -3.894  -9.989  1.00  0.00     0.397 S 
ATOM     52  O   UNL     1      -5.706  -2.587  -9.459  1.00  0.00    -0.169 OA
ATOM     53  O   UNL     1      -7.385  -4.281 -10.292  1.00  0.00    -0.169 OA
BRANCH  51  54
ATOM     54  O   UNL     1      -5.153  -4.044 -11.333  1.00  0.00    -0.264 OA
ATOM     55  H   UNL     1      -4.360  -4.575 -11.118  1.00  0.00     0.236 HD
ENDBRANCH  51  54
ENDBRANCH  50  51
ENDBRANCH   8  50
TORSDOF 19
ENDMDL
MODEL 16
REMARK VINA RESULT:    -6.928      8.096     10.967
REMARK INTER + INTRA:         -17.229
REMARK INTER:                 -13.584
REMARK INTRA:                  -3.645
REMARK UNBOUND:                -3.213
REMARK SMILES CC[C@@H](C)[C@@H](NC(=O)[C@@H](O)Cc1ccc(O)c(Cl)c1)C(=O)N1[C@H](C(=O)NCCCCN=C(N)N)C[C@H]2CC[C@H](OS(=O)(=O)O)C[C@@H]21
REMARK SMILES IDX 22 1 36 2 46 3 35 4 23 5 45 6 37 7 39 8 38 9 20 10 21 11
REMARK SMILES IDX 5 12 6 13 7 14 8 15 9 17 11 18 12 19 17 20 19 21 15 22 14 23
REMARK SMILES IDX 13 24 18 25 16 26 10 28 3 30 4 31 2 32 1 33 24 34 25 35
REMARK SMILES IDX 26 36 27 38 28 39 29 40 30 41 31 42 32 43 33 44 34 45 40 50
REMARK SMILES IDX 41 51 42 52 43 53 44 54
REMARK H PARENT 6 16 16 27 10 29 26 37 33 46 33 47 34 48 34 49 44 55
ROOT
ATOM      1  N   UNL     1      -1.320  -0.175  -9.046  1.00  0.00    -0.326 N 
ATOM      2  C   UNL     1      -3.422  -0.419  -8.015  1.00  0.00     0.014 C 
ATOM      3  C   UNL     1      -2.680   0.368  -9.099  1.00  0.00     0.091 C 
ATOM      4  C   UNL     1      -2.349  -0.624  -6.956  1.00  0.00     0.041 C 
ATOM      5  C   UNL     1      -1.162  -1.035  -7.847  1.00  0.00     0.175 C 
ATOM      6  C   UNL     1      -3.460   0.241 -10.406  1.00  0.00     0.059 C 
ATOM      7  C   UNL     1      -4.718   0.270  -7.636  1.00  0.00     0.008 C 
ATOM      8  C   UNL     1      -4.987   0.114 -10.210  1.00  0.00     0.143 C 
ATOM      9  C   UNL     1      -5.458   0.768  -8.895  1.00  0.00     0.034 C 
ENDROOT
BRANCH   1  10
ATOM     10  C   UNL     1      -0.199   0.165  -9.784  1.00  0.00     0.246 C 
ATOM     11  O   UNL     1      -0.059  -0.308 -10.917  1.00  0.00    -0.272 OA
BRANCH  10  12
ATOM     12  C   UNL     1       0.835   1.165  -9.192  1.00  0.00     0.174 C 
BRANCH  12  13
ATOM     13  N   UNL     1       0.820   2.411  -9.958  1.00  0.00    -0.342 N 
ATOM     14  C   UNL     1       0.652   3.667  -9.421  1.00  0.00     0.249 C 
ATOM     15  O   UNL     1       0.522   3.885  -8.223  1.00  0.00    -0.272 OA
ATOM     16  H   UNL     1       0.760   2.377 -10.973  1.00  0.00     0.164 HD
BRANCH  14  17
ATOM     17  C   UNL     1       0.666   4.779 -10.492  1.00  0.00     0.207 C 
BRANCH  17  18
ATOM     18  C   UNL     1       1.916   5.651 -10.342  1.00  0.00     0.077 C 
BRANCH  18  19
ATOM     19  C   UNL     1       3.048   5.165 -11.220  1.00  0.00    -0.043 A 
ATOM     20  C   UNL     1       4.036   4.894 -13.419  1.00  0.00     0.083 A 
ATOM     21  C   UNL     1       3.015   5.387 -12.606  1.00  0.00     0.028 A 
ATOM     22  C   UNL     1       5.093   4.178 -12.855  1.00  0.00     0.134 A 
ATOM     23  C   UNL     1       5.139   3.952 -11.485  1.00  0.00     0.048 A 
ATOM     24  C   UNL     1       4.117   4.442 -10.668  1.00  0.00     0.008 A 
ATOM     25  Cl  UNL     1       3.978   5.176 -15.119  1.00  0.00    -0.080 Cl
BRANCH  22  26
ATOM     26  O   UNL     1       6.112   3.667 -13.613  1.00  0.00    -0.506 OA
ATOM     27  H   UNL     1       6.807   4.350 -13.646  1.00  0.00     0.293 HD
ENDBRANCH  22  26
ENDBRANCH  18  19
ENDBRANCH  17  18
BRANCH  17  28
ATOM     28  O   UNL     1      -0.506   5.605 -10.394  1.00  0.00    -0.383 OA
ATOM     29  H   UNL     1      -0.520   6.154 -11.211  1.00  0.00     0.211 HD
ENDBRANCH  17  28
ENDBRANCH  14  17
ENDBRANCH  12  13
BRANCH  12  30
ATOM     30  C   UNL     1       2.259   0.558  -9.076  1.00  0.00     0.018 C 
ATOM     31  C   UNL     1       2.905   0.931  -7.732  1.00  0.00     0.010 C 
BRANCH  30  32
ATOM     32  C   UNL     1       3.198   0.947 -10.244  1.00  0.00     0.002 C 
ATOM     33  C   UNL     1       4.609   0.380 -10.162  1.00  0.00     0.004 C 
ENDBRANCH  30  32
ENDBRANCH  12  30
ENDBRANCH  10  12
ENDBRANCH   1  10
BRANCH   5  34
ATOM     34  C   UNL     1      -1.231  -2.537  -8.234  1.00  0.00     0.242 C 
ATOM     35  O   UNL     1      -1.305  -2.912  -9.404  1.00  0.00    -0.273 OA
ATOM     36  N   UNL     1      -1.259  -3.414  -7.173  1.00  0.00    -0.354 N 
ATOM     37  H   UNL     1      -1.317  -3.038  -6.226  1.00  0.00     0.163 HD
BRANCH  36  38
ATOM     38  C   UNL     1      -1.106  -4.844  -7.348  1.00  0.00     0.116 C 
BRANCH  38  39
ATOM     39  C   UNL     1      -1.972  -5.586  -6.333  1.00  0.00     0.023 C 
BRANCH  39  40
ATOM     40  C   UNL     1      -2.785  -6.707  -6.970  1.00  0.00     0.026 C 
BRANCH  40  41
ATOM     41  C   UNL     1      -4.279  -6.505  -6.719  1.00  0.00     0.146 C 
BRANCH  41  42
ATOM     42  N   UNL     1      -4.633  -5.111  -6.952  1.00  0.00    -0.254 NA
ATOM     43  C   UNL     1      -5.095  -4.758  -8.093  1.00  0.00     0.185 C 
ATOM     44  N   UNL     1      -5.333  -5.491  -9.195  1.00  0.00    -0.370 N 
ATOM     45  N   UNL     1      -5.412  -3.467  -8.289  1.00  0.00    -0.370 N 
ATOM     46  H   UNL     1      -5.462  -5.047 -10.089  1.00  0.00     0.159 HD
ATOM     47  H   UNL     1      -5.162  -6.492  -9.217  1.00  0.00     0.159 HD
ATOM     48  H   UNL     1      -5.271  -2.846  -7.504  1.00  0.00     0.159 HD
ATOM     49  H   UNL     1      -5.989  -3.158  -9.051  1.00  0.00     0.159 HD
ENDBRANCH  41  42
ENDBRANCH  40  41
ENDBRANCH  39  40
ENDBRANCH  38  39
ENDBRANCH  36  38
ENDBRANCH   5  34
BRANCH   8  50
ATOM     50  O   UNL     1      -5.365  -1.263 -10.192  1.00  0.00    -0.245 OA
BRANCH  50  51
ATOM     51  S   UNL     1      -5.931  -1.958 -11.549  1.00  0.00     0.397 S 
ATOM     52  O   UNL     1      -5.286  -1.324 -12.677  1.00  0.00    -0.169 OA
ATOM     53  O   UNL     1      -7.372  -2.081 -11.468  1.00  0.00    -0.169 OA
BRANCH  51  54
ATOM     54  O   UNL     1      -5.301  -3.434 -11.458  1.00  0.00    -0.264 OA
ATOM     55  H   UNL     1      -5.297  -3.813 -12.361  1.00  0.00     0.236 HD
ENDBRANCH  51  54
ENDBRANCH  50  51
ENDBRANCH   8  50
TORSDOF 19
ENDMDL
MODEL 17
REMARK VINA RESULT:    -6.921      4.654      8.689
REMARK INTER + INTRA:         -17.215
REMARK INTER:                 -12.879
REMARK INTRA:                  -4.335
REMARK UNBOUND:                -3.213
REMARK SMILES CC[C@@H](C)[C@@H](NC(=O)[C@@H](O)Cc1ccc(O)c(Cl)c1)C(=O)N1[C@H](C(=O)NCCCCN=C(N)N)C[C@H]2CC[C@H](OS(=O)(=O)O)C[C@@H]21
REMARK SMILES IDX 22 1 36 2 46 3 35 4 23 5 45 6 37 7 39 8 38 9 20 10 21 11
REMARK SMILES IDX 5 12 6 13 7 14 8 15 9 17 11 18 12 19 17 20 19 21 15 22 14 23
REMARK SMILES IDX 13 24 18 25 16 26 10 28 3 30 4 31 2 32 1 33 24 34 25 35
REMARK SMILES IDX 26 36 27 38 28 39 29 40 30 41 31 42 32 43 33 44 34 45 40 50
REMARK SMILES IDX 41 51 42 52 43 53 44 54
REMARK H PARENT 6 16 16 27 10 29 26 37 33 46 33 47 34 48 34 49 44 55
ROOT
ATOM      1  N   UNL     1      -5.371  -3.664  -8.479  1.00  0.00    -0.326 N 
ATOM      2  C   UNL     1      -6.237  -5.757  -7.839  1.00  0.00     0.014 C 
ATOM      3  C   UNL     1      -5.177  -5.096  -8.725  1.00  0.00     0.091 C 
ATOM      4  C   UNL     1      -7.390  -4.766  -7.900  1.00  0.00     0.041 C 
ATOM      5  C   UNL     1      -6.623  -3.444  -7.714  1.00  0.00     0.175 C 
ATOM      6  C   UNL     1      -3.819  -5.710  -8.392  1.00  0.00     0.059 C 
ATOM      7  C   UNL     1      -6.471  -7.196  -8.256  1.00  0.00     0.008 C 
ATOM      8  C   UNL     1      -3.896  -7.190  -7.957  1.00  0.00     0.143 C 
ATOM      9  C   UNL     1      -5.130  -7.903  -8.545  1.00  0.00     0.034 C 
ENDROOT
BRANCH   1  10
ATOM     10  C   UNL     1      -4.710  -2.573  -9.020  1.00  0.00     0.246 C 
ATOM     11  O   UNL     1      -5.111  -2.095 -10.086  1.00  0.00    -0.272 OA
BRANCH  10  12
ATOM     12  C   UNL     1      -3.508  -1.948  -8.254  1.00  0.00     0.174 C 
BRANCH  12  13
ATOM     13  N   UNL     1      -3.469  -0.504  -8.480  1.00  0.00    -0.342 N 
ATOM     14  C   UNL     1      -3.220   0.442  -7.511  1.00  0.00     0.249 C 
ATOM     15  O   UNL     1      -2.973   0.171  -6.342  1.00  0.00    -0.272 OA
ATOM     16  H   UNL     1      -3.808  -0.123  -9.360  1.00  0.00     0.164 HD
BRANCH  14  17
ATOM     17  C   UNL     1      -3.265   1.884  -8.060  1.00  0.00     0.207 C 
BRANCH  17  18
ATOM     18  C   UNL     1      -1.864   2.505  -8.047  1.00  0.00     0.077 C 
BRANCH  18  19
ATOM     19  C   UNL     1      -0.998   1.962  -9.161  1.00  0.00    -0.043 A 
ATOM     20  C   UNL     1       1.137   1.118  -9.943  1.00  0.00     0.083 A 
ATOM     21  C   UNL     1       0.325   1.572  -8.903  1.00  0.00     0.028 A 
ATOM     22  C   UNL     1       0.635   1.051 -11.243  1.00  0.00     0.134 A 
ATOM     23  C   UNL     1      -0.674   1.433 -11.512  1.00  0.00     0.048 A 
ATOM     24  C   UNL     1      -1.489   1.890 -10.474  1.00  0.00     0.008 A 
ATOM     25  Cl  UNL     1       2.761   0.644  -9.607  1.00  0.00    -0.080 Cl
BRANCH  22  26
ATOM     26  O   UNL     1       1.396   0.622 -12.297  1.00  0.00    -0.506 OA
ATOM     27  H   UNL     1       1.885   1.400 -12.624  1.00  0.00     0.293 HD
ENDBRANCH  22  26
ENDBRANCH  18  19
ENDBRANCH  17  18
BRANCH  17  28
ATOM     28  O   UNL     1      -4.157   2.704  -7.288  1.00  0.00    -0.383 OA
ATOM     29  H   UNL     1      -3.780   3.612  -7.311  1.00  0.00     0.211 HD
ENDBRANCH  17  28
ENDBRANCH  14  17
ENDBRANCH  12  13
BRANCH  12  30
ATOM     30  C   UNL     1      -2.158  -2.637  -8.591  1.00  0.00     0.018 C 
ATOM     31  C   UNL     1      -1.351  -2.911  -7.312  1.00  0.00     0.010 C 
BRANCH  30  32
ATOM     32  C   UNL     1      -1.295  -1.850  -9.607  1.00  0.00     0.002 C 
ATOM     33  C   UNL     1      -1.543  -2.188 -11.071  1.00  0.00     0.004 C 
ENDBRANCH  30  32
ENDBRANCH  12  30
ENDBRANCH  10  12
ENDBRANCH   1  10
BRANCH   5  34
ATOM     34  C   UNL     1      -6.312  -3.169  -6.219  1.00  0.00     0.242 C 
ATOM     35  O   UNL     1      -5.174  -3.248  -5.758  1.00  0.00    -0.273 OA
ATOM     36  N   UNL     1      -7.409  -2.883  -5.436  1.00  0.00    -0.354 N 
ATOM     37  H   UNL     1      -8.339  -2.950  -5.850  1.00  0.00     0.163 HD
BRANCH  36  38
ATOM     38  C   UNL     1      -7.283  -2.393  -4.079  1.00  0.00     0.116 C 
BRANCH  38  39
ATOM     39  C   UNL     1      -8.311  -3.080  -3.183  1.00  0.00     0.023 C 
BRANCH  39  40
ATOM     40  C   UNL     1      -7.746  -3.431  -1.810  1.00  0.00     0.026 C 
BRANCH  40  41
ATOM     41  C   UNL     1      -6.219  -3.356  -1.818  1.00  0.00     0.146 C 
BRANCH  41  42
ATOM     42  N   UNL     1      -5.662  -4.634  -1.394  1.00  0.00    -0.254 NA
ATOM     43  C   UNL     1      -5.024  -5.357  -2.236  1.00  0.00     0.185 C 
ATOM     44  N   UNL     1      -4.754  -5.137  -3.536  1.00  0.00    -0.370 N 
ATOM     45  N   UNL     1      -4.522  -6.534  -1.827  1.00  0.00    -0.370 N 
ATOM     46  H   UNL     1      -4.461  -5.890  -4.134  1.00  0.00     0.159 HD
ATOM     47  H   UNL     1      -5.049  -4.286  -4.005  1.00  0.00     0.159 HD
ATOM     48  H   UNL     1      -4.674  -6.773  -0.857  1.00  0.00     0.159 HD
ATOM     49  H   UNL     1      -3.823  -7.036  -2.344  1.00  0.00     0.159 HD
ENDBRANCH  41  42
ENDBRANCH  40  41
ENDBRANCH  39  40
ENDBRANCH  38  39
ENDBRANCH  36  38
ENDBRANCH   5  34
BRANCH   8  50
ATOM     50  O   UNL     1      -3.956  -7.279  -6.533  1.00  0.00    -0.245 OA
BRANCH  50  51
ATOM     51  S   UNL     1      -2.854  -8.172  -5.737  1.00  0.00     0.397 S 
ATOM     52  O   UNL     1      -1.552  -7.594  -5.978  1.00  0.00    -0.169 OA
ATOM     53  O   UNL     1      -3.115  -9.579  -5.963  1.00  0.00    -0.169 OA
BRANCH  51  54
ATOM     54  O   UNL     1      -3.202  -7.844  -4.202  1.00  0.00    -0.264 OA
ATOM     55  H   UNL     1      -3.539  -6.926  -4.162  1.00  0.00     0.236 HD
ENDBRANCH  51  54
ENDBRANCH  50  51
ENDBRANCH   8  50
TORSDOF 19
ENDMDL
MODEL 18
REMARK VINA RESULT:    -6.914      4.810      8.840
REMARK INTER + INTRA:         -17.200
REMARK INTER:                 -14.128
REMARK INTRA:                  -3.072
REMARK UNBOUND:                -3.213
REMARK SMILES CC[C@@H](C)[C@@H](NC(=O)[C@@H](O)Cc1ccc(O)c(Cl)c1)C(=O)N1[C@H](C(=O)NCCCCN=C(N)N)C[C@H]2CC[C@H](OS(=O)(=O)O)C[C@@H]21
REMARK SMILES IDX 22 1 36 2 46 3 35 4 23 5 45 6 37 7 39 8 38 9 20 10 21 11
REMARK SMILES IDX 5 12 6 13 7 14 8 15 9 17 11 18 12 19 17 20 19 21 15 22 14 23
REMARK SMILES IDX 13 24 18 25 16 26 10 28 3 30 4 31 2 32 1 33 24 34 25 35
REMARK SMILES IDX 26 36 27 38 28 39 29 40 30 41 31 42 32 43 33 44 34 45 40 50
REMARK SMILES IDX 41 51 42 52 43 53 44 54
REMARK H PARENT 6 16 16 27 10 29 26 37 33 46 33 47 34 48 34 49 44 55
ROOT
ATOM      1  N   UNL     1      -5.296  -4.526  -9.266  1.00  0.00    -0.326 N 
ATOM      2  C   UNL     1      -5.480  -6.776  -8.599  1.00  0.00     0.014 C 
ATOM      3  C   UNL     1      -4.477  -5.630  -8.756  1.00  0.00     0.091 C 
ATOM      4  C   UNL     1      -6.435  -6.548  -9.760  1.00  0.00     0.041 C 
ATOM      5  C   UNL     1      -6.640  -5.025  -9.649  1.00  0.00     0.175 C 
ATOM      6  C   UNL     1      -3.750  -5.438  -7.426  1.00  0.00     0.059 C 
ATOM      7  C   UNL     1      -4.766  -8.108  -8.475  1.00  0.00     0.008 C 
ATOM      8  C   UNL     1      -3.573  -6.744  -6.621  1.00  0.00     0.143 C 
ATOM      9  C   UNL     1      -3.550  -7.988  -7.533  1.00  0.00     0.034 C 
ENDROOT
BRANCH   1  10
ATOM     10  C   UNL     1      -4.930  -3.238  -9.616  1.00  0.00     0.246 C 
ATOM     11  O   UNL     1      -5.702  -2.305  -9.369  1.00  0.00    -0.272 OA
BRANCH  10  12
ATOM     12  C   UNL     1      -3.541  -2.986 -10.271  1.00  0.00     0.174 C 
BRANCH  12  13
ATOM     13  N   UNL     1      -2.762  -2.060  -9.450  1.00  0.00    -0.342 N 
ATOM     14  C   UNL     1      -1.635  -2.394  -8.734  1.00  0.00     0.249 C 
ATOM     15  O   UNL     1      -1.137  -3.514  -8.729  1.00  0.00    -0.272 OA
ATOM     16  H   UNL     1      -3.139  -1.140  -9.232  1.00  0.00     0.164 HD
BRANCH  14  17
ATOM     17  C   UNL     1      -1.049  -1.199  -7.952  1.00  0.00     0.207 C 
BRANCH  17  18
ATOM     18  C   UNL     1      -0.012  -0.459  -8.802  1.00  0.00     0.077 C 
BRANCH  18  19
ATOM     19  C   UNL     1      -0.008   1.026  -8.518  1.00  0.00    -0.043 A 
ATOM     20  C   UNL     1      -1.210   3.107  -8.190  1.00  0.00     0.083 A 
ATOM     21  C   UNL     1      -1.217   1.728  -8.403  1.00  0.00     0.028 A 
ATOM     22  C   UNL     1       0.002   3.792  -8.091  1.00  0.00     0.134 A 
ATOM     23  C   UNL     1       1.208   3.108  -8.203  1.00  0.00     0.048 A 
ATOM     24  C   UNL     1       1.203   1.728  -8.418  1.00  0.00     0.008 A 
ATOM     25  Cl  UNL     1      -2.706   3.953  -8.051  1.00  0.00    -0.080 Cl
BRANCH  22  26
ATOM     26  O   UNL     1       0.060   5.145  -7.893  1.00  0.00    -0.506 OA
ATOM     27  H   UNL     1      -0.772   5.515  -8.242  1.00  0.00     0.293 HD
ENDBRANCH  22  26
ENDBRANCH  18  19
ENDBRANCH  17  18
BRANCH  17  28
ATOM     28  O   UNL     1      -0.439  -1.633  -6.726  1.00  0.00    -0.383 OA
ATOM     29  H   UNL     1      -0.242  -2.590  -6.843  1.00  0.00     0.211 HD
ENDBRANCH  17  28
ENDBRANCH  14  17
ENDBRANCH  12  13
BRANCH  12  30
ATOM     30  C   UNL     1      -3.650  -2.520 -11.748  1.00  0.00     0.018 C 
ATOM     31  C   UNL     1      -2.500  -3.095 -12.589  1.00  0.00     0.010 C 
BRANCH  30  32
ATOM     32  C   UNL     1      -3.710  -0.981 -11.911  1.00  0.00     0.002 C 
ATOM     33  C   UNL     1      -4.889  -0.458 -12.721  1.00  0.00     0.004 C 
ENDBRANCH  30  32
ENDBRANCH  12  30
ENDBRANCH  10  12
ENDBRANCH   1  10
BRANCH   5  34
ATOM     34  C   UNL     1      -7.689  -4.667  -8.563  1.00  0.00     0.242 C 
ATOM     35  O   UNL     1      -8.897  -4.645  -8.798  1.00  0.00    -0.273 OA
ATOM     36  N   UNL     1      -7.168  -4.324  -7.335  1.00  0.00    -0.354 N 
ATOM     37  H   UNL     1      -6.156  -4.244  -7.236  1.00  0.00     0.163 HD
BRANCH  36  38
ATOM     38  C   UNL     1      -7.998  -4.173  -6.158  1.00  0.00     0.116 C 
BRANCH  38  39
ATOM     39  C   UNL     1      -7.578  -2.926  -5.384  1.00  0.00     0.023 C 
BRANCH  39  40
ATOM     40  C   UNL     1      -8.709  -2.359  -4.533  1.00  0.00     0.026 C 
BRANCH  40  41
ATOM     41  C   UNL     1      -8.313  -2.327  -3.057  1.00  0.00     0.146 C 
BRANCH  41  42
ATOM     42  N   UNL     1      -8.279  -3.683  -2.526  1.00  0.00    -0.254 NA
ATOM     43  C   UNL     1      -7.192  -4.143  -2.030  1.00  0.00     0.185 C 
ATOM     44  N   UNL     1      -5.987  -3.559  -1.897  1.00  0.00    -0.370 N 
ATOM     45  N   UNL     1      -7.181  -5.397  -1.550  1.00  0.00    -0.370 N 
ATOM     46  H   UNL     1      -5.167  -4.112  -1.717  1.00  0.00     0.159 HD
ATOM     47  H   UNL     1      -5.822  -2.603  -2.197  1.00  0.00     0.159 HD
ATOM     48  H   UNL     1      -8.054  -5.905  -1.603  1.00  0.00     0.159 HD
ATOM     49  H   UNL     1      -6.459  -5.741  -0.943  1.00  0.00     0.159 HD
ENDBRANCH  41  42
ENDBRANCH  40  41
ENDBRANCH  39  40
ENDBRANCH  38  39
ENDBRANCH  36  38
ENDBRANCH   5  34
BRANCH   8  50
ATOM     50  O   UNL     1      -4.638  -6.890  -5.682  1.00  0.00    -0.245 OA
BRANCH  50  51
ATOM     51  S   UNL     1      -4.538  -6.157  -4.234  1.00  0.00     0.397 S 
ATOM     52  O   UNL     1      -5.295  -6.940  -3.283  1.00  0.00    -0.169 OA
ATOM     53  O   UNL     1      -4.758  -4.734  -4.392  1.00  0.00    -0.169 OA
BRANCH  51  54
ATOM     54  O   UNL     1      -2.992  -6.379  -3.852  1.00  0.00    -0.264 OA
ATOM     55  H   UNL     1      -2.464  -5.718  -4.344  1.00  0.00     0.236 HD
ENDBRANCH  51  54
ENDBRANCH  50  51
ENDBRANCH   8  50
TORSDOF 19
ENDMDL
MODEL 19
REMARK VINA RESULT:    -6.878      4.050      8.077
REMARK INTER + INTRA:         -17.128
REMARK INTER:                 -14.410
REMARK INTRA:                  -2.718
REMARK UNBOUND:                -3.213
REMARK SMILES CC[C@@H](C)[C@@H](NC(=O)[C@@H](O)Cc1ccc(O)c(Cl)c1)C(=O)N1[C@H](C(=O)NCCCCN=C(N)N)C[C@H]2CC[C@H](OS(=O)(=O)O)C[C@@H]21
REMARK SMILES IDX 22 1 36 2 46 3 35 4 23 5 45 6 37 7 39 8 38 9 20 10 21 11
REMARK SMILES IDX 5 12 6 13 7 14 8 15 9 17 11 18 12 19 17 20 19 21 15 22 14 23
REMARK SMILES IDX 13 24 18 25 16 26 10 28 3 30 4 31 2 32 1 33 24 34 25 35
REMARK SMILES IDX 26 36 27 38 28 39 29 40 30 41 31 42 32 43 33 44 34 45 40 50
REMARK SMILES IDX 41 51 42 52 43 53 44 54
REMARK H PARENT 6 16 16 27 10 29 26 37 33 46 33 47 34 48 34 49 44 55
ROOT
ATOM      1  N   UNL     1      -3.815  -6.594  -5.364  1.00  0.00    -0.326 N 
ATOM      2  C   UNL     1      -4.215  -7.375  -7.548  1.00  0.00     0.014 C 
ATOM      3  C   UNL     1      -4.910  -6.781  -6.320  1.00  0.00     0.091 C 
ATOM      4  C   UNL     1      -3.121  -8.233  -6.932  1.00  0.00     0.041 C 
ATOM      5  C   UNL     1      -2.588  -7.266  -5.858  1.00  0.00     0.175 C 
ATOM      6  C   UNL     1      -5.705  -5.553  -6.761  1.00  0.00     0.059 C 
ATOM      7  C   UNL     1      -5.221  -8.013  -8.486  1.00  0.00     0.008 C 
ATOM      8  C   UNL     1      -6.254  -5.652  -8.201  1.00  0.00     0.143 C 
ATOM      9  C   UNL     1      -6.467  -7.115  -8.640  1.00  0.00     0.034 C 
ENDROOT
BRANCH   1  10
ATOM     10  C   UNL     1      -3.842  -6.107  -4.068  1.00  0.00     0.246 C 
ATOM     11  O   UNL     1      -2.906  -5.406  -3.670  1.00  0.00    -0.272 OA
BRANCH  10  12
ATOM     12  C   UNL     1      -5.066  -6.415  -3.158  1.00  0.00     0.174 C 
BRANCH  12  13
ATOM     13  N   UNL     1      -5.887  -5.215  -3.002  1.00  0.00    -0.342 N 
ATOM     14  C   UNL     1      -7.243  -5.149  -3.232  1.00  0.00     0.249 C 
ATOM     15  O   UNL     1      -7.924  -6.109  -3.570  1.00  0.00    -0.272 OA
ATOM     16  H   UNL     1      -5.438  -4.311  -2.879  1.00  0.00     0.164 HD
BRANCH  14  17
ATOM     17  C   UNL     1      -7.819  -3.737  -2.996  1.00  0.00     0.207 C 
BRANCH  17  18
ATOM     18  C   UNL     1      -6.692  -2.740  -2.707  1.00  0.00     0.077 C 
BRANCH  18  19
ATOM     19  C   UNL     1      -7.153  -1.309  -2.872  1.00  0.00    -0.043 A 
ATOM     20  C   UNL     1      -8.077   0.457  -4.254  1.00  0.00     0.083 A 
ATOM     21  C   UNL     1      -7.699  -0.876  -4.090  1.00  0.00     0.028 A 
ATOM     22  C   UNL     1      -7.911   1.364  -3.207  1.00  0.00     0.134 A 
ATOM     23  C   UNL     1      -7.370   0.949  -1.995  1.00  0.00     0.048 A 
ATOM     24  C   UNL     1      -6.989  -0.385  -1.828  1.00  0.00     0.008 A 
ATOM     25  Cl  UNL     1      -8.747   0.970  -5.758  1.00  0.00    -0.080 Cl
BRANCH  22  26
ATOM     26  O   UNL     1      -8.256   2.683  -3.324  1.00  0.00    -0.506 OA
ATOM     27  H   UNL     1      -8.623   2.798  -4.220  1.00  0.00     0.293 HD
ENDBRANCH  22  26
ENDBRANCH  18  19
ENDBRANCH  17  18
BRANCH  17  28
ATOM     28  O   UNL     1      -8.750  -3.734  -1.902  1.00  0.00    -0.383 OA
ATOM     29  H   UNL     1      -9.277  -4.561  -1.991  1.00  0.00     0.211 HD
ENDBRANCH  17  28
ENDBRANCH  14  17
ENDBRANCH  12  13
BRANCH  12  30
ATOM     30  C   UNL     1      -4.658  -7.036  -1.794  1.00  0.00     0.018 C 
ATOM     31  C   UNL     1      -3.585  -8.118  -1.986  1.00  0.00     0.010 C 
BRANCH  30  32
ATOM     32  C   UNL     1      -5.852  -7.606  -0.989  1.00  0.00     0.002 C 
ATOM     33  C   UNL     1      -5.697  -9.051  -0.532  1.00  0.00     0.004 C 
ENDBRANCH  30  32
ENDBRANCH  12  30
ENDBRANCH  10  12
ENDBRANCH   1  10
BRANCH   5  34
ATOM     34  C   UNL     1      -1.599  -6.232  -6.460  1.00  0.00     0.242 C 
ATOM     35  O   UNL     1      -0.468  -6.543  -6.832  1.00  0.00    -0.273 OA
ATOM     36  N   UNL     1      -2.059  -4.934  -6.496  1.00  0.00    -0.354 N 
ATOM     37  H   UNL     1      -2.958  -4.719  -6.063  1.00  0.00     0.163 HD
BRANCH  36  38
ATOM     38  C   UNL     1      -1.362  -3.887  -7.215  1.00  0.00     0.116 C 
BRANCH  38  39
ATOM     39  C   UNL     1      -1.854  -3.835  -8.660  1.00  0.00     0.023 C 
BRANCH  39  40
ATOM     40  C   UNL     1      -1.561  -2.495  -9.326  1.00  0.00     0.026 C 
BRANCH  40  41
ATOM     41  C   UNL     1      -2.610  -1.454  -8.935  1.00  0.00     0.146 C 
BRANCH  41  42
ATOM     42  N   UNL     1      -1.975  -0.153  -8.771  1.00  0.00    -0.254 NA
ATOM     43  C   UNL     1      -1.763   0.305  -7.595  1.00  0.00     0.185 C 
ATOM     44  N   UNL     1      -2.039  -0.236  -6.393  1.00  0.00    -0.370 N 
ATOM     45  N   UNL     1      -1.181   1.508  -7.465  1.00  0.00    -0.370 N 
ATOM     46  H   UNL     1      -2.043   0.333  -5.564  1.00  0.00     0.159 HD
ATOM     47  H   UNL     1      -2.469  -1.151  -6.307  1.00  0.00     0.159 HD
ATOM     48  H   UNL     1      -0.933   1.981  -8.324  1.00  0.00     0.159 HD
ATOM     49  H   UNL     1      -0.772   1.825  -6.604  1.00  0.00     0.159 HD
ENDBRANCH  41  42
ENDBRANCH  40  41
ENDBRANCH  39  40
ENDBRANCH  38  39
ENDBRANCH  36  38
ENDBRANCH   5  34
BRANCH   8  50
ATOM     50  O   UNL     1      -5.349  -5.032  -9.115  1.00  0.00    -0.245 OA
BRANCH  50  51
ATOM     51  S   UNL     1      -5.903  -4.468 -10.536  1.00  0.00     0.397 S 
ATOM     52  O   UNL     1      -5.032  -3.396 -10.962  1.00  0.00    -0.169 OA
ATOM     53  O   UNL     1      -7.339  -4.297 -10.464  1.00  0.00    -0.169 OA
BRANCH  51  54
ATOM     54  O   UNL     1      -5.600  -5.699 -11.526  1.00  0.00    -0.264 OA
ATOM     55  H   UNL     1      -6.038  -5.509 -12.381  1.00  0.00     0.236 HD
ENDBRANCH  51  54
ENDBRANCH  50  51
ENDBRANCH   8  50
TORSDOF 19
ENDMDL
MODEL 20
REMARK VINA RESULT:    -6.868      7.086     11.124
REMARK INTER + INTRA:         -17.108
REMARK INTER:                 -11.465
REMARK INTRA:                  -5.643
REMARK UNBOUND:                -3.213
REMARK SMILES CC[C@@H](C)[C@@H](NC(=O)[C@@H](O)Cc1ccc(O)c(Cl)c1)C(=O)N1[C@H](C(=O)NCCCCN=C(N)N)C[C@H]2CC[C@H](OS(=O)(=O)O)C[C@@H]21
REMARK SMILES IDX 22 1 36 2 46 3 35 4 23 5 45 6 37 7 39 8 38 9 20 10 21 11
REMARK SMILES IDX 5 12 6 13 7 14 8 15 9 17 11 18 12 19 17 20 19 21 15 22 14 23
REMARK SMILES IDX 13 24 18 25 16 26 10 28 3 30 4 31 2 32 1 33 24 34 25 35
REMARK SMILES IDX 26 36 27 38 28 39 29 40 30 41 31 42 32 43 33 44 34 45 40 50
REMARK SMILES IDX 41 51 42 52 43 53 44 54
REMARK H PARENT 6 16 16 27 10 29 26 37 33 46 33 47 34 48 34 49 44 55
ROOT
ATOM      1  N   UNL     1     -11.544   1.208  -1.054  1.00  0.00    -0.326 N 
ATOM      2  C   UNL     1     -10.935  -0.434  -2.627  1.00  0.00     0.014 C 
ATOM      3  C   UNL     1     -10.730   1.039  -2.261  1.00  0.00     0.091 C 
ATOM      4  C   UNL     1     -12.379  -0.683  -2.218  1.00  0.00     0.041 C 
ATOM      5  C   UNL     1     -12.396   0.011  -0.844  1.00  0.00     0.175 C 
ATOM      6  C   UNL     1      -9.229   1.308  -2.167  1.00  0.00     0.059 C 
ATOM      7  C   UNL     1     -10.512  -0.701  -4.058  1.00  0.00     0.008 C 
ATOM      8  C   UNL     1      -8.382   0.448  -3.129  1.00  0.00     0.143 C 
ATOM      9  C   UNL     1      -9.181   0.014  -4.374  1.00  0.00     0.034 C 
ENDROOT
BRANCH   1  10
ATOM     10  C   UNL     1     -11.763   2.336  -0.282  1.00  0.00     0.246 C 
ATOM     11  O   UNL     1     -12.922   2.727  -0.104  1.00  0.00    -0.272 OA
BRANCH  10  12
ATOM     12  C   UNL     1     -10.554   3.061   0.378  1.00  0.00     0.174 C 
BRANCH  12  13
ATOM     13  N   UNL     1     -10.244   2.441   1.666  1.00  0.00    -0.342 N 
ATOM     14  C   UNL     1      -9.093   1.741   1.949  1.00  0.00     0.249 C 
ATOM     15  O   UNL     1      -8.178   1.581   1.151  1.00  0.00    -0.272 OA
ATOM     16  H   UNL     1     -10.971   2.356   2.372  1.00  0.00     0.164 HD
BRANCH  14  17
ATOM     17  C   UNL     1      -9.068   1.194   3.392  1.00  0.00     0.207 C 
BRANCH  17  18
ATOM     18  C   UNL     1     -10.492   0.907   3.881  1.00  0.00     0.077 C 
BRANCH  18  19
ATOM     19  C   UNL     1     -10.623  -0.491   4.442  1.00  0.00    -0.043 A 
ATOM     20  C   UNL     1      -9.660  -2.668   4.909  1.00  0.00     0.083 A 
ATOM     21  C   UNL     1      -9.522  -1.362   4.436  1.00  0.00     0.028 A 
ATOM     22  C   UNL     1     -10.893  -3.111   5.388  1.00  0.00     0.134 A 
ATOM     23  C   UNL     1     -11.991  -2.258   5.400  1.00  0.00     0.048 A 
ATOM     24  C   UNL     1     -11.857  -0.952   4.925  1.00  0.00     0.008 A 
ATOM     25  Cl  UNL     1      -8.296  -3.724   4.893  1.00  0.00    -0.080 Cl
BRANCH  22  26
ATOM     26  O   UNL     1     -11.079  -4.385   5.852  1.00  0.00    -0.506 OA
ATOM     27  H   UNL     1     -11.670  -4.318   6.625  1.00  0.00     0.293 HD
ENDBRANCH  22  26
ENDBRANCH  18  19
ENDBRANCH  17  18
BRANCH  17  28
ATOM     28  O   UNL     1      -8.435   2.123   4.287  1.00  0.00    -0.383 OA
ATOM     29  H   UNL     1      -7.470   2.063   4.103  1.00  0.00     0.211 HD
ENDBRANCH  17  28
ENDBRANCH  14  17
ENDBRANCH  12  13
BRANCH  12  30
ATOM     30  C   UNL     1     -10.765   4.595   0.494  1.00  0.00     0.018 C 
ATOM     31  C   UNL     1      -9.693   5.355  -0.304  1.00  0.00     0.010 C 
BRANCH  30  32
ATOM     32  C   UNL     1     -10.805   5.108   1.954  1.00  0.00     0.002 C 
ATOM     33  C   UNL     1     -12.189   5.467   2.480  1.00  0.00     0.004 C 
ENDBRANCH  30  32
ENDBRANCH  12  30
ENDBRANCH  10  12
ENDBRANCH   1  10
BRANCH   5  34
ATOM     34  C   UNL     1     -11.802  -0.899   0.264  1.00  0.00     0.242 C 
ATOM     35  O   UNL     1     -10.766  -0.615   0.864  1.00  0.00    -0.273 OA
ATOM     36  N   UNL     1     -12.489  -2.072   0.489  1.00  0.00    -0.354 N 
ATOM     37  H   UNL     1     -13.271  -2.308  -0.123  1.00  0.00     0.163 HD
BRANCH  36  38
ATOM     38  C   UNL     1     -12.205  -2.929   1.621  1.00  0.00     0.116 C 
BRANCH  38  39
ATOM     39  C   UNL     1     -11.663  -4.270   1.133  1.00  0.00     0.023 C 
BRANCH  39  40
ATOM     40  C   UNL     1     -10.583  -4.831   2.051  1.00  0.00     0.026 C 
BRANCH  40  41
ATOM     41  C   UNL     1      -9.222  -4.825   1.354  1.00  0.00     0.146 C 
BRANCH  41  42
ATOM     42  N   UNL     1      -8.664  -3.479   1.375  1.00  0.00    -0.254 NA
ATOM     43  C   UNL     1      -8.600  -2.803   0.290  1.00  0.00     0.185 C 
ATOM     44  N   UNL     1      -8.983  -3.131  -0.958  1.00  0.00    -0.370 N 
ATOM     45  N   UNL     1      -8.078  -1.566   0.330  1.00  0.00    -0.370 N 
ATOM     46  H   UNL     1      -8.653  -2.606  -1.750  1.00  0.00     0.159 HD
ATOM     47  H   UNL     1      -9.412  -4.027  -1.166  1.00  0.00     0.159 HD
ATOM     48  H   UNL     1      -7.772  -1.238   1.236  1.00  0.00     0.159 HD
ATOM     49  H   UNL     1      -8.209  -0.897  -0.408  1.00  0.00     0.159 HD
ENDBRANCH  41  42
ENDBRANCH  40  41
ENDBRANCH  39  40
ENDBRANCH  38  39
ENDBRANCH  36  38
ENDBRANCH   5  34
BRANCH   8  50
ATOM     50  O   UNL     1      -7.916  -0.724  -2.458  1.00  0.00    -0.245 OA
BRANCH  50  51
ATOM     51  S   UNL     1      -6.334  -1.099  -2.501  1.00  0.00     0.397 S 
ATOM     52  O   UNL     1      -5.794  -0.613  -3.751  1.00  0.00    -0.169 OA
ATOM     53  O   UNL     1      -6.148  -2.470  -2.076  1.00  0.00    -0.169 OA
BRANCH  51  54
ATOM     54  O   UNL     1      -5.730  -0.139  -1.361  1.00  0.00    -0.264 OA
ATOM     55  H   UNL     1      -5.230  -0.699  -0.734  1.00  0.00     0.236 HD
ENDBRANCH  51  54
ENDBRANCH  50  51
ENDBRANCH   8  50
TORSDOF 19
ENDMDL
MODEL 21
REMARK VINA RESULT:    -6.864      4.408      7.861
REMARK INTER + INTRA:         -17.099
REMARK INTER:                 -13.732
REMARK INTRA:                  -3.366
REMARK UNBOUND:                -3.213
REMARK SMILES CC[C@@H](C)[C@@H](NC(=O)[C@@H](O)Cc1ccc(O)c(Cl)c1)C(=O)N1[C@H](C(=O)NCCCCN=C(N)N)C[C@H]2CC[C@H](OS(=O)(=O)O)C[C@@H]21
REMARK SMILES IDX 22 1 36 2 46 3 35 4 23 5 45 6 37 7 39 8 38 9 20 10 21 11
REMARK SMILES IDX 5 12 6 13 7 14 8 15 9 17 11 18 12 19 17 20 19 21 15 22 14 23
REMARK SMILES IDX 13 24 18 25 16 26 10 28 3 30 4 31 2 32 1 33 24 34 25 35
REMARK SMILES IDX 26 36 27 38 28 39 29 40 30 41 31 42 32 43 33 44 34 45 40 50
REMARK SMILES IDX 41 51 42 52 43 53 44 54
REMARK H PARENT 6 16 16 27 10 29 26 37 33 46 33 47 34 48 34 49 44 55
ROOT
ATOM      1  N   UNL     1      -2.192  -3.354  -7.798  1.00  0.00    -0.326 N 
ATOM      2  C   UNL     1      -2.230  -1.106  -8.495  1.00  0.00     0.014 C 
ATOM      3  C   UNL     1      -1.535  -2.448  -8.744  1.00  0.00     0.091 C 
ATOM      4  C   UNL     1      -2.502  -1.142  -6.999  1.00  0.00     0.041 C 
ATOM      5  C   UNL     1      -3.035  -2.579  -6.854  1.00  0.00     0.175 C 
ATOM      6  C   UNL     1      -1.623  -2.768 -10.235  1.00  0.00     0.059 C 
ATOM      7  C   UNL     1      -1.423   0.038  -9.077  1.00  0.00     0.008 C 
ATOM      8  C   UNL     1      -1.613  -1.518 -11.141  1.00  0.00     0.143 C 
ATOM      9  C   UNL     1      -0.891  -0.328 -10.478  1.00  0.00     0.034 C 
ENDROOT
BRANCH   1  10
ATOM     10  C   UNL     1      -1.967  -4.698  -7.554  1.00  0.00     0.246 C 
ATOM     11  O   UNL     1      -0.844  -5.168  -7.767  1.00  0.00    -0.272 OA
BRANCH  10  12
ATOM     12  C   UNL     1      -3.115  -5.577  -6.979  1.00  0.00     0.174 C 
BRANCH  12  13
ATOM     13  N   UNL     1      -2.795  -5.985  -5.612  1.00  0.00    -0.342 N 
ATOM     14  C   UNL     1      -3.536  -5.664  -4.497  1.00  0.00     0.249 C 
ATOM     15  O   UNL     1      -4.575  -5.016  -4.532  1.00  0.00    -0.272 OA
ATOM     16  H   UNL     1      -1.885  -6.391  -5.407  1.00  0.00     0.164 HD
BRANCH  14  17
ATOM     17  C   UNL     1      -2.928  -6.228  -3.195  1.00  0.00     0.207 C 
BRANCH  17  18
ATOM     18  C   UNL     1      -3.141  -7.743  -3.116  1.00  0.00     0.077 C 
BRANCH  18  19
ATOM     19  C   UNL     1      -3.787  -8.152  -1.812  1.00  0.00    -0.043 A 
ATOM     20  C   UNL     1      -3.636  -9.193   0.374  1.00  0.00     0.083 A 
ATOM     21  C   UNL     1      -3.026  -8.772  -0.808  1.00  0.00     0.028 A 
ATOM     22  C   UNL     1      -5.005  -9.001   0.561  1.00  0.00     0.134 A 
ATOM     23  C   UNL     1      -5.771  -8.389  -0.425  1.00  0.00     0.048 A 
ATOM     24  C   UNL     1      -5.164  -7.967  -1.610  1.00  0.00     0.008 A 
ATOM     25  Cl  UNL     1      -2.684  -9.952   1.595  1.00  0.00    -0.080 Cl
BRANCH  22  26
ATOM     26  O   UNL     1      -5.649  -9.406   1.699  1.00  0.00    -0.506 OA
ATOM     27  H   UNL     1      -6.409  -8.808   1.819  1.00  0.00     0.293 HD
ENDBRANCH  22  26
ENDBRANCH  18  19
ENDBRANCH  17  18
BRANCH  17  28
ATOM     28  O   UNL     1      -3.511  -5.604  -2.039  1.00  0.00    -0.383 OA
ATOM     29  H   UNL     1      -2.773  -5.142  -1.578  1.00  0.00     0.211 HD
ENDBRANCH  17  28
ENDBRANCH  14  17
ENDBRANCH  12  13
BRANCH  12  30
ATOM     30  C   UNL     1      -3.462  -6.784  -7.891  1.00  0.00     0.018 C 
ATOM     31  C   UNL     1      -4.272  -6.329  -9.115  1.00  0.00     0.010 C 
BRANCH  30  32
ATOM     32  C   UNL     1      -4.206  -7.925  -7.156  1.00  0.00     0.002 C 
ATOM     33  C   UNL     1      -3.442  -9.239  -7.053  1.00  0.00     0.004 C 
ENDBRANCH  30  32
ENDBRANCH  12  30
ENDBRANCH  10  12
ENDBRANCH   1  10
BRANCH   5  34
ATOM     34  C   UNL     1      -4.533  -2.677  -7.247  1.00  0.00     0.242 C 
ATOM     35  O   UNL     1      -4.923  -2.501  -8.401  1.00  0.00    -0.273 OA
ATOM     36  N   UNL     1      -5.398  -2.920  -6.204  1.00  0.00    -0.354 N 
ATOM     37  H   UNL     1      -5.028  -2.937  -5.252  1.00  0.00     0.163 HD
BRANCH  36  38
ATOM     38  C   UNL     1      -6.791  -3.253  -6.416  1.00  0.00     0.116 C 
BRANCH  38  39
ATOM     39  C   UNL     1      -6.900  -4.609  -7.110  1.00  0.00     0.023 C 
BRANCH  39  40
ATOM     40  C   UNL     1      -7.872  -4.585  -8.284  1.00  0.00     0.026 C 
BRANCH  40  41
ATOM     41  C   UNL     1      -7.133  -4.798  -9.605  1.00  0.00     0.146 C 
BRANCH  41  42
ATOM     42  N   UNL     1      -7.373  -3.667 -10.492  1.00  0.00    -0.254 NA
ATOM     43  C   UNL     1      -6.410  -3.195 -11.191  1.00  0.00     0.185 C 
ATOM     44  N   UNL     1      -5.123  -3.580 -11.263  1.00  0.00    -0.370 N 
ATOM     45  N   UNL     1      -6.652  -2.150 -11.999  1.00  0.00    -0.370 N 
ATOM     46  H   UNL     1      -4.428  -2.973 -11.662  1.00  0.00     0.159 HD
ATOM     47  H   UNL     1      -4.771  -4.367 -10.726  1.00  0.00     0.159 HD
ATOM     48  H   UNL     1      -7.601  -1.802 -12.011  1.00  0.00     0.159 HD
ATOM     49  H   UNL     1      -6.029  -1.880 -12.740  1.00  0.00     0.159 HD
ENDBRANCH  41  42
ENDBRANCH  40  41
ENDBRANCH  39  40
ENDBRANCH  38  39
ENDBRANCH  36  38
ENDBRANCH   5  34
BRANCH   8  50
ATOM     50  O   UNL     1      -2.951  -1.124 -11.446  1.00  0.00    -0.245 OA
BRANCH  50  51
ATOM     51  S   UNL     1      -3.356  -0.780 -12.983  1.00  0.00     0.397 S 
ATOM     52  O   UNL     1      -2.167  -0.319 -13.665  1.00  0.00    -0.169 OA
ATOM     53  O   UNL     1      -4.587  -0.017 -13.003  1.00  0.00    -0.169 OA
BRANCH  51  54
ATOM     54  O   UNL     1      -3.667  -2.239 -13.583  1.00  0.00    -0.264 OA
ATOM     55  H   UNL     1      -3.785  -2.852 -12.829  1.00  0.00     0.236 HD
ENDBRANCH  51  54
ENDBRANCH  50  51
ENDBRANCH   8  50
TORSDOF 19
ENDMDL
MODEL 22
REMARK VINA RESULT:    -6.842      6.028      9.499
REMARK INTER + INTRA:         -17.055
REMARK INTER:                 -12.343
REMARK INTRA:                  -4.712
REMARK UNBOUND:                -3.213
REMARK SMILES CC[C@@H](C)[C@@H](NC(=O)[C@@H](O)Cc1ccc(O)c(Cl)c1)C(=O)N1[C@H](C(=O)NCCCCN=C(N)N)C[C@H]2CC[C@H](OS(=O)(=O)O)C[C@@H]21
REMARK SMILES IDX 22 1 36 2 46 3 35 4 23 5 45 6 37 7 39 8 38 9 20 10 21 11
REMARK SMILES IDX 5 12 6 13 7 14 8 15 9 17 11 18 12 19 17 20 19 21 15 22 14 23
REMARK SMILES IDX 13 24 18 25 16 26 10 28 3 30 4 31 2 32 1 33 24 34 25 35
REMARK SMILES IDX 26 36 27 38 28 39 29 40 30 41 31 42 32 43 33 44 34 45 40 50
REMARK SMILES IDX 41 51 42 52 43 53 44 54
REMARK H PARENT 6 16 16 27 10 29 26 37 33 46 33 47 34 48 34 49 44 55
ROOT
ATOM      1  N   UNL     1      -7.710  -5.551   5.339  1.00  0.00    -0.326 N 
ATOM      2  C   UNL     1      -8.005  -3.861   6.951  1.00  0.00     0.014 C 
ATOM      3  C   UNL     1      -7.180  -4.238   5.717  1.00  0.00     0.091 C 
ATOM      4  C   UNL     1      -8.227  -5.204   7.628  1.00  0.00     0.041 C 
ATOM      5  C   UNL     1      -8.601  -6.066   6.408  1.00  0.00     0.175 C 
ATOM      6  C   UNL     1      -7.279  -3.098   4.704  1.00  0.00     0.059 C 
ATOM      7  C   UNL     1      -7.340  -2.739   7.725  1.00  0.00     0.008 C 
ATOM      8  C   UNL     1      -7.427  -1.704   5.350  1.00  0.00     0.143 C 
ATOM      9  C   UNL     1      -6.814  -1.652   6.764  1.00  0.00     0.034 C 
ENDROOT
BRANCH   1  10
ATOM     10  C   UNL     1      -7.338  -6.395   4.307  1.00  0.00     0.246 C 
ATOM     11  O   UNL     1      -7.331  -7.615   4.500  1.00  0.00    -0.272 OA
BRANCH  10  12
ATOM     12  C   UNL     1      -6.980  -5.794   2.916  1.00  0.00     0.174 C 
BRANCH  12  13
ATOM     13  N   UNL     1      -7.594  -6.591   1.855  1.00  0.00    -0.342 N 
ATOM     14  C   UNL     1      -8.268  -6.077   0.770  1.00  0.00     0.249 C 
ATOM     15  O   UNL     1      -8.404  -4.878   0.557  1.00  0.00    -0.272 OA
ATOM     16  H   UNL     1      -7.698  -7.595   1.976  1.00  0.00     0.164 HD
BRANCH  14  17
ATOM     17  C   UNL     1      -8.817  -7.175  -0.165  1.00  0.00     0.207 C 
BRANCH  17  18
ATOM     18  C   UNL     1      -8.105  -7.130  -1.521  1.00  0.00     0.077 C 
BRANCH  18  19
ATOM     19  C   UNL     1      -6.676  -7.615  -1.421  1.00  0.00    -0.043 A 
ATOM     20  C   UNL     1      -4.327  -7.365  -1.975  1.00  0.00     0.083 A 
ATOM     21  C   UNL     1      -5.638  -6.889  -2.026  1.00  0.00     0.028 A 
ATOM     22  C   UNL     1      -4.046  -8.566  -1.323  1.00  0.00     0.134 A 
ATOM     23  C   UNL     1      -5.064  -9.295  -0.720  1.00  0.00     0.048 A 
ATOM     24  C   UNL     1      -6.377  -8.822  -0.771  1.00  0.00     0.008 A 
ATOM     25  Cl  UNL     1      -3.066  -6.459  -2.724  1.00  0.00    -0.080 Cl
BRANCH  22  26
ATOM     26  O   UNL     1      -2.778  -9.078  -1.255  1.00  0.00    -0.506 OA
ATOM     27  H   UNL     1      -2.678  -9.461  -0.364  1.00  0.00     0.293 HD
ENDBRANCH  22  26
ENDBRANCH  18  19
ENDBRANCH  17  18
BRANCH  17  28
ATOM     28  O   UNL     1     -10.232  -7.025  -0.365  1.00  0.00    -0.383 OA
ATOM     29  H   UNL     1     -10.392  -6.058  -0.456  1.00  0.00     0.211 HD
ENDBRANCH  17  28
ENDBRANCH  14  17
ENDBRANCH  12  13
BRANCH  12  30
ATOM     30  C   UNL     1      -5.451  -5.618   2.715  1.00  0.00     0.018 C 
ATOM     31  C   UNL     1      -5.141  -4.284   2.018  1.00  0.00     0.010 C 
BRANCH  30  32
ATOM     32  C   UNL     1      -4.786  -6.786   1.947  1.00  0.00     0.002 C 
ATOM     33  C   UNL     1      -3.930  -7.719   2.794  1.00  0.00     0.004 C 
ENDBRANCH  30  32
ENDBRANCH  12  30
ENDBRANCH  10  12
ENDBRANCH   1  10
BRANCH   5  34
ATOM     34  C   UNL     1     -10.092  -5.885   6.016  1.00  0.00     0.242 C 
ATOM     35  O   UNL     1     -10.519  -6.179   4.900  1.00  0.00    -0.273 OA
ATOM     36  N   UNL     1     -10.889  -5.322   6.988  1.00  0.00    -0.354 N 
ATOM     37  H   UNL     1     -10.453  -4.989   7.849  1.00  0.00     0.163 HD
BRANCH  36  38
ATOM     38  C   UNL     1     -12.332  -5.280   6.875  1.00  0.00     0.116 C 
BRANCH  38  39
ATOM     39  C   UNL     1     -12.804  -3.830   6.796  1.00  0.00     0.023 C 
BRANCH  39  40
ATOM     40  C   UNL     1     -13.395  -3.483   5.434  1.00  0.00     0.026 C 
BRANCH  40  41
ATOM     41  C   UNL     1     -12.292  -3.102   4.446  1.00  0.00     0.146 C 
BRANCH  41  42
ATOM     42  N   UNL     1     -12.461  -3.851   3.207  1.00  0.00    -0.254 NA
ATOM     43  C   UNL     1     -11.432  -4.168   2.514  1.00  0.00     0.185 C 
ATOM     44  N   UNL     1     -10.129  -3.919   2.736  1.00  0.00    -0.370 N 
ATOM     45  N   UNL     1     -11.609  -4.854   1.373  1.00  0.00    -0.370 N 
ATOM     46  H   UNL     1      -9.456  -4.010   1.995  1.00  0.00     0.159 HD
ATOM     47  H   UNL     1      -9.815  -3.420   3.563  1.00  0.00     0.159 HD
ATOM     48  H   UNL     1     -12.563  -5.091   1.136  1.00  0.00     0.159 HD
ATOM     49  H   UNL     1     -10.862  -5.337   0.908  1.00  0.00     0.159 HD
ENDBRANCH  41  42
ENDBRANCH  40  41
ENDBRANCH  39  40
ENDBRANCH  38  39
ENDBRANCH  36  38
ENDBRANCH   5  34
BRANCH   8  50
ATOM     50  O   UNL     1      -8.808  -1.350   5.441  1.00  0.00    -0.245 OA
BRANCH  50  51
ATOM     51  S   UNL     1      -9.469  -0.396   4.302  1.00  0.00     0.397 S 
ATOM     52  O   UNL     1     -10.699   0.147   4.834  1.00  0.00    -0.169 OA
ATOM     53  O   UNL     1      -9.426  -1.068   3.020  1.00  0.00    -0.169 OA
BRANCH  51  54
ATOM     54  O   UNL     1      -8.434   0.834   4.252  1.00  0.00    -0.264 OA
ATOM     55  H   UNL     1      -7.580   0.519   4.613  1.00  0.00     0.236 HD
ENDBRANCH  51  54
ENDBRANCH  50  51
ENDBRANCH   8  50
TORSDOF 19
ENDMDL
MODEL 23
REMARK VINA RESULT:    -6.828      5.075      9.119
REMARK INTER + INTRA:         -17.026
REMARK INTER:                 -13.804
REMARK INTRA:                  -3.223
REMARK UNBOUND:                -3.213
REMARK SMILES CC[C@@H](C)[C@@H](NC(=O)[C@@H](O)Cc1ccc(O)c(Cl)c1)C(=O)N1[C@H](C(=O)NCCCCN=C(N)N)C[C@H]2CC[C@H](OS(=O)(=O)O)C[C@@H]21
REMARK SMILES IDX 22 1 36 2 46 3 35 4 23 5 45 6 37 7 39 8 38 9 20 10 21 11
REMARK SMILES IDX 5 12 6 13 7 14 8 15 9 17 11 18 12 19 17 20 19 21 15 22 14 23
REMARK SMILES IDX 13 24 18 25 16 26 10 28 3 30 4 31 2 32 1 33 24 34 25 35
REMARK SMILES IDX 26 36 27 38 28 39 29 40 30 41 31 42 32 43 33 44 34 45 40 50
REMARK SMILES IDX 41 51 42 52 43 53 44 54
REMARK H PARENT 6 16 16 27 10 29 26 37 33 46 33 47 34 48 34 49 44 55
ROOT
ATOM      1  N   UNL     1      -3.579  -4.504  -7.965  1.00  0.00    -0.326 N 
ATOM      2  C   UNL     1      -4.524  -6.660  -7.979  1.00  0.00     0.014 C 
ATOM      3  C   UNL     1      -3.242  -5.889  -8.305  1.00  0.00     0.091 C 
ATOM      4  C   UNL     1      -5.615  -5.662  -8.338  1.00  0.00     0.041 C 
ATOM      5  C   UNL     1      -5.035  -4.384  -7.705  1.00  0.00     0.175 C 
ATOM      6  C   UNL     1      -2.079  -6.553  -7.570  1.00  0.00     0.059 C 
ATOM      7  C   UNL     1      -4.519  -8.025  -8.637  1.00  0.00     0.008 C 
ATOM      8  C   UNL     1      -2.245  -8.078  -7.394  1.00  0.00     0.143 C 
ATOM      9  C   UNL     1      -3.136  -8.695  -8.491  1.00  0.00     0.034 C 
ENDROOT
BRANCH   1  10
ATOM     10  C   UNL     1      -2.815  -3.354  -8.068  1.00  0.00     0.246 C 
ATOM     11  O   UNL     1      -1.729  -3.298  -7.482  1.00  0.00    -0.272 OA
BRANCH  10  12
ATOM     12  C   UNL     1      -3.319  -2.176  -8.952  1.00  0.00     0.174 C 
BRANCH  12  13
ATOM     13  N   UNL     1      -2.206  -1.615  -9.717  1.00  0.00    -0.342 N 
ATOM     14  C   UNL     1      -2.194  -1.442 -11.083  1.00  0.00     0.249 C 
ATOM     15  O   UNL     1      -3.138  -1.716 -11.813  1.00  0.00    -0.272 OA
ATOM     16  H   UNL     1      -1.301  -1.488  -9.271  1.00  0.00     0.164 HD
BRANCH  14  17
ATOM     17  C   UNL     1      -0.867  -0.843 -11.596  1.00  0.00     0.207 C 
BRANCH  17  18
ATOM     18  C   UNL     1      -0.613   0.524 -10.953  1.00  0.00     0.077 C 
BRANCH  18  19
ATOM     19  C   UNL     1       0.848   0.723 -10.615  1.00  0.00    -0.043 A 
ATOM     20  C   UNL     1       2.662   0.652  -9.006  1.00  0.00     0.083 A 
ATOM     21  C   UNL     1       1.325   0.421  -9.330  1.00  0.00     0.028 A 
ATOM     22  C   UNL     1       3.529   1.186  -9.960  1.00  0.00     0.134 A 
ATOM     23  C   UNL     1       3.070   1.490 -11.237  1.00  0.00     0.048 A 
ATOM     24  C   UNL     1       1.731   1.261 -11.563  1.00  0.00     0.008 A 
ATOM     25  Cl  UNL     1       3.229   0.274  -7.422  1.00  0.00    -0.080 Cl
BRANCH  22  26
ATOM     26  O   UNL     1       4.846   1.439  -9.686  1.00  0.00    -0.506 OA
ATOM     27  H   UNL     1       5.335   0.618  -9.878  1.00  0.00     0.293 HD
ENDBRANCH  22  26
ENDBRANCH  18  19
ENDBRANCH  17  18
BRANCH  17  28
ATOM     28  O   UNL     1      -0.882  -0.702 -13.026  1.00  0.00    -0.383 OA
ATOM     29  H   UNL     1       0.050  -0.532 -13.292  1.00  0.00     0.211 HD
ENDBRANCH  17  28
ENDBRANCH  14  17
ENDBRANCH  12  13
BRANCH  12  30
ATOM     30  C   UNL     1      -4.079  -1.096  -8.136  1.00  0.00     0.018 C 
ATOM     31  C   UNL     1      -5.359  -0.660  -8.866  1.00  0.00     0.010 C 
BRANCH  30  32
ATOM     32  C   UNL     1      -3.217   0.142  -7.787  1.00  0.00     0.002 C 
ATOM     33  C   UNL     1      -2.358   0.006  -6.537  1.00  0.00     0.004 C 
ENDBRANCH  30  32
ENDBRANCH  12  30
ENDBRANCH  10  12
ENDBRANCH   1  10
BRANCH   5  34
ATOM     34  C   UNL     1      -5.318  -4.322  -6.180  1.00  0.00     0.242 C 
ATOM     35  O   UNL     1      -4.416  -4.316  -5.343  1.00  0.00    -0.273 OA
ATOM     36  N   UNL     1      -6.650  -4.328  -5.831  1.00  0.00    -0.354 N 
ATOM     37  H   UNL     1      -7.349  -4.455  -6.564  1.00  0.00     0.163 HD
BRANCH  36  38
ATOM     38  C   UNL     1      -7.097  -4.059  -4.480  1.00  0.00     0.116 C 
BRANCH  38  39
ATOM     39  C   UNL     1      -7.561  -5.356  -3.820  1.00  0.00     0.023 C 
BRANCH  39  40
ATOM     40  C   UNL     1      -7.502  -5.288  -2.298  1.00  0.00     0.026 C 
BRANCH  40  41
ATOM     41  C   UNL     1      -6.586  -6.378  -1.741  1.00  0.00     0.146 C 
BRANCH  41  42
ATOM     42  N   UNL     1      -5.708  -6.868  -2.795  1.00  0.00    -0.254 NA
ATOM     43  C   UNL     1      -4.564  -6.322  -2.971  1.00  0.00     0.185 C 
ATOM     44  N   UNL     1      -3.981  -5.303  -2.312  1.00  0.00    -0.370 N 
ATOM     45  N   UNL     1      -3.770  -6.785  -3.950  1.00  0.00    -0.370 N 
ATOM     46  H   UNL     1      -3.193  -4.820  -2.709  1.00  0.00     0.159 HD
ATOM     47  H   UNL     1      -4.438  -4.843  -1.531  1.00  0.00     0.159 HD
ATOM     48  H   UNL     1      -4.131  -7.560  -4.491  1.00  0.00     0.159 HD
ATOM     49  H   UNL     1      -2.788  -6.579  -3.999  1.00  0.00     0.159 HD
ENDBRANCH  41  42
ENDBRANCH  40  41
ENDBRANCH  39  40
ENDBRANCH  38  39
ENDBRANCH  36  38
ENDBRANCH   5  34
BRANCH   8  50
ATOM     50  O   UNL     1      -2.828  -8.364  -6.122  1.00  0.00    -0.245 OA
BRANCH  50  51
ATOM     51  S   UNL     1      -2.418  -9.730  -5.340  1.00  0.00     0.397 S 
ATOM     52  O   UNL     1      -2.701  -9.541  -3.935  1.00  0.00    -0.169 OA
ATOM     53  O   UNL     1      -1.122 -10.183  -5.799  1.00  0.00    -0.169 OA
BRANCH  51  54
ATOM     54  O   UNL     1      -3.524 -10.768  -5.873  1.00  0.00    -0.264 OA
ATOM     55  H   UNL     1      -3.450 -11.584  -5.337  1.00  0.00     0.236 HD
ENDBRANCH  51  54
ENDBRANCH  50  51
ENDBRANCH   8  50
TORSDOF 19
ENDMDL
MODEL 24
REMARK VINA RESULT:    -6.796      3.908      8.512
REMARK INTER + INTRA:         -16.963
REMARK INTER:                 -13.621
REMARK INTRA:                  -3.341
REMARK UNBOUND:                -3.213
REMARK SMILES CC[C@@H](C)[C@@H](NC(=O)[C@@H](O)Cc1ccc(O)c(Cl)c1)C(=O)N1[C@H](C(=O)NCCCCN=C(N)N)C[C@H]2CC[C@H](OS(=O)(=O)O)C[C@@H]21
REMARK SMILES IDX 22 1 36 2 46 3 35 4 23 5 45 6 37 7 39 8 38 9 20 10 21 11
REMARK SMILES IDX 5 12 6 13 7 14 8 15 9 17 11 18 12 19 17 20 19 21 15 22 14 23
REMARK SMILES IDX 13 24 18 25 16 26 10 28 3 30 4 31 2 32 1 33 24 34 25 35
REMARK SMILES IDX 26 36 27 38 28 39 29 40 30 41 31 42 32 43 33 44 34 45 40 50
REMARK SMILES IDX 41 51 42 52 43 53 44 54
REMARK H PARENT 6 16 16 27 10 29 26 37 33 46 33 47 34 48 34 49 44 55
ROOT
ATOM      1  N   UNL     1      -5.778  -4.757  -4.657  1.00  0.00    -0.326 N 
ATOM      2  C   UNL     1      -3.898  -4.676  -6.072  1.00  0.00     0.014 C 
ATOM      3  C   UNL     1      -4.377  -5.186  -4.710  1.00  0.00     0.091 C 
ATOM      4  C   UNL     1      -4.666  -3.372  -6.230  1.00  0.00     0.041 C 
ATOM      5  C   UNL     1      -6.066  -3.824  -5.775  1.00  0.00     0.175 C 
ATOM      6  C   UNL     1      -4.074  -6.681  -4.620  1.00  0.00     0.059 C 
ATOM      7  C   UNL     1      -2.384  -4.659  -6.142  1.00  0.00     0.008 C 
ATOM      8  C   UNL     1      -2.808  -7.105  -5.395  1.00  0.00     0.143 C 
ATOM      9  C   UNL     1      -1.797  -5.949  -5.531  1.00  0.00     0.034 C 
ENDROOT
BRANCH   1  10
ATOM     10  C   UNL     1      -6.719  -4.919  -3.655  1.00  0.00     0.246 C 
ATOM     11  O   UNL     1      -7.738  -5.578  -3.888  1.00  0.00    -0.272 OA
BRANCH  10  12
ATOM     12  C   UNL     1      -6.454  -4.309  -2.248  1.00  0.00     0.174 C 
BRANCH  12  13
ATOM     13  N   UNL     1      -6.230  -2.868  -2.363  1.00  0.00    -0.342 N 
ATOM     14  C   UNL     1      -6.846  -1.908  -1.592  1.00  0.00     0.249 C 
ATOM     15  O   UNL     1      -7.639  -2.161  -0.694  1.00  0.00    -0.272 OA
ATOM     16  H   UNL     1      -5.721  -2.501  -3.163  1.00  0.00     0.164 HD
BRANCH  14  17
ATOM     17  C   UNL     1      -6.412  -0.475  -1.967  1.00  0.00     0.207 C 
BRANCH  17  18
ATOM     18  C   UNL     1      -7.432   0.162  -2.917  1.00  0.00     0.077 C 
BRANCH  18  19
ATOM     19  C   UNL     1      -8.061   1.399  -2.317  1.00  0.00    -0.043 A 
ATOM     20  C   UNL     1      -8.407   3.800  -2.332  1.00  0.00     0.083 A 
ATOM     21  C   UNL     1      -7.866   2.654  -2.915  1.00  0.00     0.028 A 
ATOM     22  C   UNL     1      -9.142   3.702  -1.150  1.00  0.00     0.134 A 
ATOM     23  C   UNL     1      -9.344   2.466  -0.547  1.00  0.00     0.048 A 
ATOM     24  C   UNL     1      -8.802   1.317  -1.128  1.00  0.00     0.008 A 
ATOM     25  Cl  UNL     1      -8.156   5.333  -3.082  1.00  0.00    -0.080 Cl
BRANCH  22  26
ATOM     26  O   UNL     1      -9.683   4.799  -0.536  1.00  0.00    -0.506 OA
ATOM     27  H   UNL     1      -9.842   4.550   0.393  1.00  0.00     0.293 HD
ENDBRANCH  22  26
ENDBRANCH  18  19
ENDBRANCH  17  18
BRANCH  17  28
ATOM     28  O   UNL     1      -5.117  -0.472  -2.588  1.00  0.00    -0.383 OA
ATOM     29  H   UNL     1      -4.987  -1.378  -2.950  1.00  0.00     0.211 HD
ENDBRANCH  17  28
ENDBRANCH  14  17
ENDBRANCH  12  13
BRANCH  12  30
ATOM     30  C   UNL     1      -5.308  -5.028  -1.488  1.00  0.00     0.018 C 
ATOM     31  C   UNL     1      -5.706  -6.470  -1.135  1.00  0.00     0.010 C 
BRANCH  30  32
ATOM     32  C   UNL     1      -4.839  -4.279  -0.216  1.00  0.00     0.002 C 
ATOM     33  C   UNL     1      -5.325  -4.868   1.102  1.00  0.00     0.004 C 
ENDBRANCH  30  32
ENDBRANCH  12  30
ENDBRANCH  10  12
ENDBRANCH   1  10
BRANCH   5  34
ATOM     34  C   UNL     1      -6.832  -4.549  -6.913  1.00  0.00     0.242 C 
ATOM     35  O   UNL     1      -7.267  -5.693  -6.788  1.00  0.00    -0.273 OA
ATOM     36  N   UNL     1      -6.941  -3.841  -8.089  1.00  0.00    -0.354 N 
ATOM     37  H   UNL     1      -6.456  -2.946  -8.171  1.00  0.00     0.163 HD
BRANCH  36  38
ATOM     38  C   UNL     1      -7.800  -4.269  -9.173  1.00  0.00     0.116 C 
BRANCH  38  39
ATOM     39  C   UNL     1      -7.102  -4.037 -10.511  1.00  0.00     0.023 C 
BRANCH  39  40
ATOM     40  C   UNL     1      -5.585  -3.962 -10.371  1.00  0.00     0.026 C 
BRANCH  40  41
ATOM     41  C   UNL     1      -4.946  -5.320 -10.662  1.00  0.00     0.146 C 
BRANCH  41  42
ATOM     42  N   UNL     1      -4.923  -6.124  -9.447  1.00  0.00    -0.254 NA
ATOM     43  C   UNL     1      -5.667  -7.162  -9.360  1.00  0.00     0.185 C 
ATOM     44  N   UNL     1      -6.529  -7.686 -10.250  1.00  0.00    -0.370 N 
ATOM     45  N   UNL     1      -5.634  -7.887  -8.229  1.00  0.00    -0.370 N 
ATOM     46  H   UNL     1      -7.222  -8.355  -9.960  1.00  0.00     0.159 HD
ATOM     47  H   UNL     1      -6.668  -7.270 -11.165  1.00  0.00     0.159 HD
ATOM     48  H   UNL     1      -5.002  -7.565  -7.509  1.00  0.00     0.159 HD
ATOM     49  H   UNL     1      -5.994  -8.822  -8.172  1.00  0.00     0.159 HD
ENDBRANCH  41  42
ENDBRANCH  40  41
ENDBRANCH  39  40
ENDBRANCH  38  39
ENDBRANCH  36  38
ENDBRANCH   5  34
BRANCH   8  50
ATOM     50  O   UNL     1      -3.162  -7.554  -6.704  1.00  0.00    -0.245 OA
BRANCH  50  51
ATOM     51  S   UNL     1      -2.166  -8.562  -7.504  1.00  0.00     0.397 S 
ATOM     52  O   UNL     1      -2.920  -9.181  -8.570  1.00  0.00    -0.169 OA
ATOM     53  O   UNL     1      -1.406  -9.348  -6.555  1.00  0.00    -0.169 OA
BRANCH  51  54
ATOM     54  O   UNL     1      -1.155  -7.536  -8.220  1.00  0.00    -0.264 OA
ATOM     55  H   UNL     1      -1.573  -6.651  -8.211  1.00  0.00     0.236 HD
ENDBRANCH  51  54
ENDBRANCH  50  51
ENDBRANCH   8  50
TORSDOF 19
ENDMDL
MODEL 25
REMARK VINA RESULT:    -6.791      6.475     11.854
REMARK INTER + INTRA:         -16.952
REMARK INTER:                 -12.068
REMARK INTRA:                  -4.884
REMARK UNBOUND:                -3.213
REMARK SMILES CC[C@@H](C)[C@@H](NC(=O)[C@@H](O)Cc1ccc(O)c(Cl)c1)C(=O)N1[C@H](C(=O)NCCCCN=C(N)N)C[C@H]2CC[C@H](OS(=O)(=O)O)C[C@@H]21
REMARK SMILES IDX 22 1 36 2 46 3 35 4 23 5 45 6 37 7 39 8 38 9 20 10 21 11
REMARK SMILES IDX 5 12 6 13 7 14 8 15 9 17 11 18 12 19 17 20 19 21 15 22 14 23
REMARK SMILES IDX 13 24 18 25 16 26 10 28 3 30 4 31 2 32 1 33 24 34 25 35
REMARK SMILES IDX 26 36 27 38 28 39 29 40 30 41 31 42 32 43 33 44 34 45 40 50
REMARK SMILES IDX 41 51 42 52 43 53 44 54
REMARK H PARENT 6 16 16 27 10 29 26 37 33 46 33 47 34 48 34 49 44 55
ROOT
ATOM      1  N   UNL     1      -8.984  -1.287  -0.432  1.00  0.00    -0.326 N 
ATOM      2  C   UNL     1      -8.996  -2.660  -2.345  1.00  0.00     0.014 C 
ATOM      3  C   UNL     1      -8.109  -2.187  -1.189  1.00  0.00     0.091 C 
ATOM      4  C   UNL     1      -9.847  -1.433  -2.637  1.00  0.00     0.041 C 
ATOM      5  C   UNL     1     -10.221  -1.013  -1.204  1.00  0.00     0.175 C 
ATOM      6  C   UNL     1      -7.546  -3.416  -0.479  1.00  0.00     0.059 C 
ATOM      7  C   UNL     1      -8.162  -3.268  -3.455  1.00  0.00     0.008 C 
ATOM      8  C   UNL     1      -7.314  -4.623  -1.414  1.00  0.00     0.143 C 
ATOM      9  C   UNL     1      -7.067  -4.186  -2.872  1.00  0.00     0.034 C 
ENDROOT
BRANCH   1  10
ATOM     10  C   UNL     1      -8.722  -0.546   0.708  1.00  0.00     0.246 C 
ATOM     11  O   UNL     1      -8.765  -1.104   1.810  1.00  0.00    -0.272 OA
BRANCH  10  12
ATOM     12  C   UNL     1      -8.340   0.956   0.577  1.00  0.00     0.174 C 
BRANCH  12  13
ATOM     13  N   UNL     1      -9.451   1.795   1.025  1.00  0.00    -0.342 N 
ATOM     14  C   UNL     1      -9.616   2.269   2.307  1.00  0.00     0.249 C 
ATOM     15  O   UNL     1      -8.824   2.061   3.218  1.00  0.00    -0.272 OA
ATOM     16  H   UNL     1     -10.262   1.920   0.425  1.00  0.00     0.164 HD
BRANCH  14  17
ATOM     17  C   UNL     1     -10.898   3.112   2.470  1.00  0.00     0.207 C 
BRANCH  17  18
ATOM     18  C   UNL     1     -10.597   4.596   2.236  1.00  0.00     0.077 C 
BRANCH  18  19
ATOM     19  C   UNL     1     -10.705   4.967   0.774  1.00  0.00    -0.043 A 
ATOM     20  C   UNL     1     -11.779   4.713  -1.386  1.00  0.00     0.083 A 
ATOM     21  C   UNL     1     -11.712   4.407  -0.026  1.00  0.00     0.028 A 
ATOM     22  C   UNL     1     -10.842   5.577  -1.954  1.00  0.00     0.134 A 
ATOM     23  C   UNL     1      -9.839   6.140  -1.173  1.00  0.00     0.048 A 
ATOM     24  C   UNL     1      -9.769   5.833   0.188  1.00  0.00     0.008 A 
ATOM     25  Cl  UNL     1     -13.024   4.014  -2.353  1.00  0.00    -0.080 Cl
BRANCH  22  26
ATOM     26  O   UNL     1     -10.861   5.899  -3.284  1.00  0.00    -0.506 OA
ATOM     27  H   UNL     1     -10.561   5.107  -3.768  1.00  0.00     0.293 HD
ENDBRANCH  22  26
ENDBRANCH  18  19
ENDBRANCH  17  18
BRANCH  17  28
ATOM     28  O   UNL     1     -11.466   2.942   3.779  1.00  0.00    -0.383 OA
ATOM     29  H   UNL     1     -11.648   1.980   3.874  1.00  0.00     0.211 HD
ENDBRANCH  17  28
ENDBRANCH  14  17
ENDBRANCH  12  13
BRANCH  12  30
ATOM     30  C   UNL     1      -7.855   1.329  -0.850  1.00  0.00     0.018 C 
ATOM     31  C   UNL     1      -6.321   1.385  -0.909  1.00  0.00     0.010 C 
BRANCH  30  32
ATOM     32  C   UNL     1      -8.456   2.652  -1.385  1.00  0.00     0.002 C 
ATOM     33  C   UNL     1      -8.972   2.601  -2.817  1.00  0.00     0.004 C 
ENDBRANCH  30  32
ENDBRANCH  12  30
ENDBRANCH  10  12
ENDBRANCH   1  10
BRANCH   5  34
ATOM     34  C   UNL     1     -11.408  -1.849  -0.654  1.00  0.00     0.242 C 
ATOM     35  O   UNL     1     -11.241  -2.841   0.055  1.00  0.00    -0.273 OA
ATOM     36  N   UNL     1     -12.656  -1.433  -1.062  1.00  0.00    -0.354 N 
ATOM     37  H   UNL     1     -12.723  -0.678  -1.746  1.00  0.00     0.163 HD
BRANCH  36  38
ATOM     38  C   UNL     1     -13.874  -1.957  -0.479  1.00  0.00     0.116 C 
BRANCH  38  39
ATOM     39  C   UNL     1     -14.426  -0.968   0.544  1.00  0.00     0.023 C 
BRANCH  39  40
ATOM     40  C   UNL     1     -13.969  -1.283   1.965  1.00  0.00     0.026 C 
BRANCH  40  41
ATOM     41  C   UNL     1     -13.206  -0.101   2.563  1.00  0.00     0.146 C 
BRANCH  41  42
ATOM     42  N   UNL     1     -11.848  -0.510   2.898  1.00  0.00    -0.254 NA
ATOM     43  C   UNL     1     -11.412  -0.343   4.089  1.00  0.00     0.185 C 
ATOM     44  N   UNL     1     -12.023   0.177   5.170  1.00  0.00    -0.370 N 
ATOM     45  N   UNL     1     -10.156  -0.722   4.376  1.00  0.00    -0.370 N 
ATOM     46  H   UNL     1     -11.488   0.471   5.969  1.00  0.00     0.159 HD
ATOM     47  H   UNL     1     -12.984   0.503   5.133  1.00  0.00     0.159 HD
ATOM     48  H   UNL     1      -9.628  -1.133   3.618  1.00  0.00     0.159 HD
ATOM     49  H   UNL     1      -9.826  -0.845   5.317  1.00  0.00     0.159 HD
ENDBRANCH  41  42
ENDBRANCH  40  41
ENDBRANCH  39  40
ENDBRANCH  38  39
ENDBRANCH  36  38
ENDBRANCH   5  34
BRANCH   8  50
ATOM     50  O   UNL     1      -8.449  -5.490  -1.386  1.00  0.00    -0.245 OA
BRANCH  50  51
ATOM     51  S   UNL     1      -8.229  -7.101  -1.412  1.00  0.00     0.397 S 
ATOM     52  O   UNL     1      -6.858  -7.371  -1.040  1.00  0.00    -0.169 OA
ATOM     53  O   UNL     1      -8.811  -7.651  -2.619  1.00  0.00    -0.169 OA
BRANCH  51  54
ATOM     54  O   UNL     1      -9.124  -7.582  -0.166  1.00  0.00    -0.264 OA
ATOM     55  H   UNL     1      -8.952  -8.535  -0.026  1.00  0.00     0.236 HD
ENDBRANCH  51  54
ENDBRANCH  50  51
ENDBRANCH   8  50
TORSDOF 19
ENDMDL
MODEL 26
REMARK VINA RESULT:    -6.791      3.589      7.467
REMARK INTER + INTRA:         -16.951
REMARK INTER:                 -13.895
REMARK INTRA:                  -3.056
REMARK UNBOUND:                -3.213
REMARK SMILES CC[C@@H](C)[C@@H](NC(=O)[C@@H](O)Cc1ccc(O)c(Cl)c1)C(=O)N1[C@H](C(=O)NCCCCN=C(N)N)C[C@H]2CC[C@H](OS(=O)(=O)O)C[C@@H]21
REMARK SMILES IDX 22 1 36 2 46 3 35 4 23 5 45 6 37 7 39 8 38 9 20 10 21 11
REMARK SMILES IDX 5 12 6 13 7 14 8 15 9 17 11 18 12 19 17 20 19 21 15 22 14 23
REMARK SMILES IDX 13 24 18 25 16 26 10 28 3 30 4 31 2 32 1 33 24 34 25 35
REMARK SMILES IDX 26 36 27 38 28 39 29 40 30 41 31 42 32 43 33 44 34 45 40 50
REMARK SMILES IDX 41 51 42 52 43 53 44 54
REMARK H PARENT 6 16 16 27 10 29 26 37 33 46 33 47 34 48 34 49 44 55
ROOT
ATOM      1  N   UNL     1      -6.199  -4.620  -5.126  1.00  0.00    -0.326 N 
ATOM      2  C   UNL     1      -4.044  -4.987  -6.000  1.00  0.00     0.014 C 
ATOM      3  C   UNL     1      -4.857  -5.031  -4.703  1.00  0.00     0.091 C 
ATOM      4  C   UNL     1      -4.663  -3.813  -6.744  1.00  0.00     0.041 C 
ATOM      5  C   UNL     1      -6.158  -4.104  -6.517  1.00  0.00     0.175 C 
ATOM      6  C   UNL     1      -4.687  -6.412  -4.073  1.00  0.00     0.059 C 
ATOM      7  C   UNL     1      -2.557  -4.981  -5.708  1.00  0.00     0.008 C 
ATOM      8  C   UNL     1      -3.310  -7.054  -4.346  1.00  0.00     0.143 C 
ATOM      9  C   UNL     1      -2.216  -5.996  -4.597  1.00  0.00     0.034 C 
ENDROOT
BRANCH   1  10
ATOM     10  C   UNL     1      -7.353  -4.456  -4.379  1.00  0.00     0.246 C 
ATOM     11  O   UNL     1      -8.212  -5.344  -4.396  1.00  0.00    -0.272 OA
BRANCH  10  12
ATOM     12  C   UNL     1      -7.526  -3.181  -3.504  1.00  0.00     0.174 C 
BRANCH  12  13
ATOM     13  N   UNL     1      -7.600  -3.552  -2.091  1.00  0.00    -0.342 N 
ATOM     14  C   UNL     1      -6.607  -3.333  -1.163  1.00  0.00     0.249 C 
ATOM     15  O   UNL     1      -5.548  -2.772  -1.417  1.00  0.00    -0.272 OA
ATOM     16  H   UNL     1      -8.347  -4.162  -1.769  1.00  0.00     0.164 HD
BRANCH  14  17
ATOM     17  C   UNL     1      -6.978  -3.855   0.241  1.00  0.00     0.207 C 
BRANCH  17  18
ATOM     18  C   UNL     1      -5.748  -4.449   0.935  1.00  0.00     0.077 C 
BRANCH  18  19
ATOM     19  C   UNL     1      -5.672  -5.948   0.757  1.00  0.00    -0.043 A 
ATOM     20  C   UNL     1      -5.789  -8.185   1.689  1.00  0.00     0.083 A 
ATOM     21  C   UNL     1      -5.908  -6.804   1.845  1.00  0.00     0.028 A 
ATOM     22  C   UNL     1      -5.432  -8.720   0.450  1.00  0.00     0.134 A 
ATOM     23  C   UNL     1      -5.195  -7.884  -0.635  1.00  0.00     0.048 A 
ATOM     24  C   UNL     1      -5.312  -6.501  -0.482  1.00  0.00     0.008 A 
ATOM     25  Cl  UNL     1      -6.083  -9.219   3.037  1.00  0.00    -0.080 Cl
BRANCH  22  26
ATOM     26  O   UNL     1      -5.292 -10.067   0.252  1.00  0.00    -0.506 OA
ATOM     27  H   UNL     1      -4.366 -10.216  -0.015  1.00  0.00     0.293 HD
ENDBRANCH  22  26
ENDBRANCH  18  19
ENDBRANCH  17  18
BRANCH  17  28
ATOM     28  O   UNL     1      -8.010  -4.851   0.167  1.00  0.00    -0.383 OA
ATOM     29  H   UNL     1      -8.861  -4.358   0.125  1.00  0.00     0.211 HD
ENDBRANCH  17  28
ENDBRANCH  14  17
ENDBRANCH  12  13
BRANCH  12  30
ATOM     30  C   UNL     1      -8.727  -2.305  -3.950  1.00  0.00     0.018 C 
ATOM     31  C   UNL     1      -8.289  -1.269  -4.997  1.00  0.00     0.010 C 
BRANCH  30  32
ATOM     32  C   UNL     1      -9.453  -1.601  -2.777  1.00  0.00     0.002 C 
ATOM     33  C   UNL     1     -10.722  -0.848  -3.155  1.00  0.00     0.004 C 
ENDBRANCH  30  32
ENDBRANCH  12  30
ENDBRANCH  10  12
ENDBRANCH   1  10
BRANCH   5  34
ATOM     34  C   UNL     1      -6.692  -5.168  -7.513  1.00  0.00     0.242 C 
ATOM     35  O   UNL     1      -6.859  -6.344  -7.193  1.00  0.00    -0.273 OA
ATOM     36  N   UNL     1      -6.912  -4.711  -8.794  1.00  0.00    -0.354 N 
ATOM     37  H   UNL     1      -6.641  -3.756  -9.028  1.00  0.00     0.163 HD
BRANCH  36  38
ATOM     38  C   UNL     1      -7.607  -5.503  -9.788  1.00  0.00     0.116 C 
BRANCH  38  39
ATOM     39  C   UNL     1      -6.631  -5.936 -10.880  1.00  0.00     0.023 C 
BRANCH  39  40
ATOM     40  C   UNL     1      -5.180  -5.641 -10.515  1.00  0.00     0.026 C 
BRANCH  40  41
ATOM     41  C   UNL     1      -4.632  -4.492 -11.362  1.00  0.00     0.146 C 
BRANCH  41  42
ATOM     42  N   UNL     1      -4.764  -3.237 -10.634  1.00  0.00    -0.254 NA
ATOM     43  C   UNL     1      -5.633  -2.376 -11.011  1.00  0.00     0.185 C 
ATOM     44  N   UNL     1      -6.511  -2.420 -12.030  1.00  0.00    -0.370 N 
ATOM     45  N   UNL     1      -5.737  -1.223 -10.330  1.00  0.00    -0.370 N 
ATOM     46  H   UNL     1      -6.959  -1.582 -12.358  1.00  0.00     0.159 HD
ATOM     47  H   UNL     1      -6.577  -3.228 -12.641  1.00  0.00     0.159 HD
ATOM     48  H   UNL     1      -5.116  -1.112  -9.539  1.00  0.00     0.159 HD
ATOM     49  H   UNL     1      -6.532  -0.614 -10.408  1.00  0.00     0.159 HD
ENDBRANCH  41  42
ENDBRANCH  40  41
ENDBRANCH  39  40
ENDBRANCH  38  39
ENDBRANCH  36  38
ENDBRANCH   5  34
BRANCH   8  50
ATOM     50  O   UNL     1      -3.385  -7.908  -5.488  1.00  0.00    -0.245 OA
BRANCH  50  51
ATOM     51  S   UNL     1      -2.528  -9.290  -5.515  1.00  0.00     0.397 S 
ATOM     52  O   UNL     1      -2.625  -9.901  -4.209  1.00  0.00    -0.169 OA
ATOM     53  O   UNL     1      -1.249  -9.057  -6.152  1.00  0.00    -0.169 OA
BRANCH  51  54
ATOM     54  O   UNL     1      -3.409 -10.211  -6.496  1.00  0.00    -0.264 OA
ATOM     55  H   UNL     1      -3.004 -10.171  -7.386  1.00  0.00     0.236 HD
ENDBRANCH  51  54
ENDBRANCH  50  51
ENDBRANCH   8  50
TORSDOF 19
ENDMDL
MODEL 27
REMARK VINA RESULT:    -6.757      3.995      7.285
REMARK INTER + INTRA:         -16.882
REMARK INTER:                 -12.818
REMARK INTRA:                  -4.064
REMARK UNBOUND:                -3.213
REMARK SMILES CC[C@@H](C)[C@@H](NC(=O)[C@@H](O)Cc1ccc(O)c(Cl)c1)C(=O)N1[C@H](C(=O)NCCCCN=C(N)N)C[C@H]2CC[C@H](OS(=O)(=O)O)C[C@@H]21
REMARK SMILES IDX 22 1 36 2 46 3 35 4 23 5 45 6 37 7 39 8 38 9 20 10 21 11
REMARK SMILES IDX 5 12 6 13 7 14 8 15 9 17 11 18 12 19 17 20 19 21 15 22 14 23
REMARK SMILES IDX 13 24 18 25 16 26 10 28 3 30 4 31 2 32 1 33 24 34 25 35
REMARK SMILES IDX 26 36 27 38 28 39 29 40 30 41 31 42 32 43 33 44 34 45 40 50
REMARK SMILES IDX 41 51 42 52 43 53 44 54
REMARK H PARENT 6 16 16 27 10 29 26 37 33 46 33 47 34 48 34 49 44 55
ROOT
ATOM      1  N   UNL     1      -6.855  -4.800  -0.780  1.00  0.00    -0.326 N 
ATOM      2  C   UNL     1      -6.718  -6.187   1.117  1.00  0.00     0.014 C 
ATOM      3  C   UNL     1      -5.891  -5.256   0.226  1.00  0.00     0.091 C 
ATOM      4  C   UNL     1      -7.679  -6.830   0.129  1.00  0.00     0.041 C 
ATOM      5  C   UNL     1      -8.106  -5.592  -0.681  1.00  0.00     0.175 C 
ATOM      6  C   UNL     1      -5.220  -4.208   1.112  1.00  0.00     0.059 C 
ATOM      7  C   UNL     1      -5.819  -7.069   1.961  1.00  0.00     0.008 C 
ATOM      8  C   UNL     1      -4.865  -4.725   2.524  1.00  0.00     0.143 C 
ATOM      9  C   UNL     1      -4.647  -6.251   2.544  1.00  0.00     0.034 C 
ENDROOT
BRANCH   1  10
ATOM     10  C   UNL     1      -6.677  -3.953  -1.861  1.00  0.00     0.246 C 
ATOM     11  O   UNL     1      -6.633  -2.733  -1.669  1.00  0.00    -0.272 OA
BRANCH  10  12
ATOM     12  C   UNL     1      -6.493  -4.555  -3.284  1.00  0.00     0.174 C 
BRANCH  12  13
ATOM     13  N   UNL     1      -5.159  -5.142  -3.409  1.00  0.00    -0.342 N 
ATOM     14  C   UNL     1      -4.842  -6.451  -3.125  1.00  0.00     0.249 C 
ATOM     15  O   UNL     1      -5.659  -7.286  -2.758  1.00  0.00    -0.272 OA
ATOM     16  H   UNL     1      -4.354  -4.537  -3.551  1.00  0.00     0.164 HD
BRANCH  14  17
ATOM     17  C   UNL     1      -3.345  -6.761  -3.339  1.00  0.00     0.207 C 
BRANCH  17  18
ATOM     18  C   UNL     1      -2.783  -5.921  -4.490  1.00  0.00     0.077 C 
BRANCH  18  19
ATOM     19  C   UNL     1      -2.828  -6.668  -5.805  1.00  0.00    -0.043 A 
ATOM     20  C   UNL     1      -4.098  -7.664  -7.615  1.00  0.00     0.083 A 
ATOM     21  C   UNL     1      -4.057  -6.932  -6.428  1.00  0.00     0.028 A 
ATOM     22  C   UNL     1      -2.915  -8.138  -8.185  1.00  0.00     0.134 A 
ATOM     23  C   UNL     1      -1.691  -7.884  -7.577  1.00  0.00     0.048 A 
ATOM     24  C   UNL     1      -1.647  -7.153  -6.388  1.00  0.00     0.008 A 
ATOM     25  Cl  UNL     1      -5.618  -7.977  -8.367  1.00  0.00    -0.080 Cl
BRANCH  22  26
ATOM     26  O   UNL     1      -2.906  -8.869  -9.342  1.00  0.00    -0.506 OA
ATOM     27  H   UNL     1      -3.690  -9.449  -9.312  1.00  0.00     0.293 HD
ENDBRANCH  22  26
ENDBRANCH  18  19
ENDBRANCH  17  18
BRANCH  17  28
ATOM     28  O   UNL     1      -3.141  -8.155  -3.622  1.00  0.00    -0.383 OA
ATOM     29  H   UNL     1      -3.446  -8.642  -2.823  1.00  0.00     0.211 HD
ENDBRANCH  17  28
ENDBRANCH  14  17
ENDBRANCH  12  13
BRANCH  12  30
ATOM     30  C   UNL     1      -6.798  -3.533  -4.412  1.00  0.00     0.018 C 
ATOM     31  C   UNL     1      -8.306  -3.470  -4.700  1.00  0.00     0.010 C 
BRANCH  30  32
ATOM     32  C   UNL     1      -6.017  -3.801  -5.722  1.00  0.00     0.002 C 
ATOM     33  C   UNL     1      -6.839  -4.393  -6.860  1.00  0.00     0.004 C 
ENDBRANCH  30  32
ENDBRANCH  12  30
ENDBRANCH  10  12
ENDBRANCH   1  10
BRANCH   5  34
ATOM     34  C   UNL     1      -9.212  -4.784   0.049  1.00  0.00     0.242 C 
ATOM     35  O   UNL     1     -10.365  -5.202   0.163  1.00  0.00    -0.273 OA
ATOM     36  N   UNL     1      -8.826  -3.546   0.510  1.00  0.00    -0.354 N 
ATOM     37  H   UNL     1      -7.891  -3.205   0.280  1.00  0.00     0.163 HD
BRANCH  36  38
ATOM     38  C   UNL     1      -9.658  -2.756   1.394  1.00  0.00     0.116 C 
BRANCH  38  39
ATOM     39  C   UNL     1      -8.804  -2.152   2.507  1.00  0.00     0.023 C 
BRANCH  39  40
ATOM     40  C   UNL     1      -9.524  -2.140   3.851  1.00  0.00     0.026 C 
BRANCH  40  41
ATOM     41  C   UNL     1     -10.172  -3.495   4.132  1.00  0.00     0.146 C 
BRANCH  41  42
ATOM     42  N   UNL     1      -9.175  -4.420   4.654  1.00  0.00    -0.254 NA
ATOM     43  C   UNL     1      -9.065  -5.588   4.143  1.00  0.00     0.185 C 
ATOM     44  N   UNL     1      -9.752  -6.161   3.137  1.00  0.00    -0.370 N 
ATOM     45  N   UNL     1      -8.142  -6.427   4.642  1.00  0.00    -0.370 N 
ATOM     46  H   UNL     1      -9.730  -7.157   3.004  1.00  0.00     0.159 HD
ATOM     47  H   UNL     1     -10.481  -5.661   2.637  1.00  0.00     0.159 HD
ATOM     48  H   UNL     1      -7.574  -6.070   5.398  1.00  0.00     0.159 HD
ATOM     49  H   UNL     1      -7.836  -7.251   4.155  1.00  0.00     0.159 HD
ENDBRANCH  41  42
ENDBRANCH  40  41
ENDBRANCH  39  40
ENDBRANCH  38  39
ENDBRANCH  36  38
ENDBRANCH   5  34
BRANCH   8  50
ATOM     50  O   UNL     1      -5.911  -4.403   3.440  1.00  0.00    -0.245 OA
BRANCH  50  51
ATOM     51  S   UNL     1      -5.538  -3.880   4.934  1.00  0.00     0.397 S 
ATOM     52  O   UNL     1      -5.555  -5.020   5.824  1.00  0.00    -0.169 OA
ATOM     53  O   UNL     1      -6.285  -2.675   5.229  1.00  0.00    -0.169 OA
BRANCH  51  54
ATOM     54  O   UNL     1      -3.990  -3.476   4.771  1.00  0.00    -0.264 OA
ATOM     55  H   UNL     1      -3.897  -2.537   5.032  1.00  0.00     0.236 HD
ENDBRANCH  51  54
ENDBRANCH  50  51
ENDBRANCH   8  50
TORSDOF 19
ENDMDL
MODEL 28
REMARK VINA RESULT:    -6.742      4.086      7.483
REMARK INTER + INTRA:         -16.853
REMARK INTER:                 -13.790
REMARK INTRA:                  -3.063
REMARK UNBOUND:                -3.213
REMARK SMILES CC[C@@H](C)[C@@H](NC(=O)[C@@H](O)Cc1ccc(O)c(Cl)c1)C(=O)N1[C@H](C(=O)NCCCCN=C(N)N)C[C@H]2CC[C@H](OS(=O)(=O)O)C[C@@H]21
REMARK SMILES IDX 22 1 36 2 46 3 35 4 23 5 45 6 37 7 39 8 38 9 20 10 21 11
REMARK SMILES IDX 5 12 6 13 7 14 8 15 9 17 11 18 12 19 17 20 19 21 15 22 14 23
REMARK SMILES IDX 13 24 18 25 16 26 10 28 3 30 4 31 2 32 1 33 24 34 25 35
REMARK SMILES IDX 26 36 27 38 28 39 29 40 30 41 31 42 32 43 33 44 34 45 40 50
REMARK SMILES IDX 41 51 42 52 43 53 44 54
REMARK H PARENT 6 16 16 27 10 29 26 37 33 46 33 47 34 48 34 49 44 55
ROOT
ATOM      1  N   UNL     1      -6.838  -4.460  -1.153  1.00  0.00    -0.326 N 
ATOM      2  C   UNL     1      -7.016  -5.892   0.707  1.00  0.00     0.014 C 
ATOM      3  C   UNL     1      -6.001  -5.149  -0.167  1.00  0.00     0.091 C 
ATOM      4  C   UNL     1      -8.100  -6.274  -0.290  1.00  0.00     0.041 C 
ATOM      5  C   UNL     1      -8.236  -4.951  -1.065  1.00  0.00     0.175 C 
ATOM      6  C   UNL     1      -5.108  -4.306   0.741  1.00  0.00     0.059 C 
ATOM      7  C   UNL     1      -6.339  -6.977   1.521  1.00  0.00     0.008 C 
ATOM      8  C   UNL     1      -4.877  -4.927   2.136  1.00  0.00     0.143 C 
ATOM      9  C   UNL     1      -5.011  -6.463   2.116  1.00  0.00     0.034 C 
ENDROOT
BRANCH   1  10
ATOM     10  C   UNL     1      -6.474  -3.648  -2.214  1.00  0.00     0.246 C 
ATOM     11  O   UNL     1      -6.181  -2.468  -1.994  1.00  0.00    -0.272 OA
BRANCH  10  12
ATOM     12  C   UNL     1      -6.401  -4.246  -3.648  1.00  0.00     0.174 C 
BRANCH  12  13
ATOM     13  N   UNL     1      -5.028  -4.647  -3.952  1.00  0.00    -0.342 N 
ATOM     14  C   UNL     1      -4.526  -5.921  -3.805  1.00  0.00     0.249 C 
ATOM     15  O   UNL     1      -5.191  -6.877  -3.426  1.00  0.00    -0.272 OA
ATOM     16  H   UNL     1      -4.322  -3.936  -4.125  1.00  0.00     0.164 HD
BRANCH  14  17
ATOM     17  C   UNL     1      -3.035  -6.022  -4.192  1.00  0.00     0.207 C 
BRANCH  17  18
ATOM     18  C   UNL     1      -2.801  -7.222  -5.115  1.00  0.00     0.077 C 
BRANCH  18  19
ATOM     19  C   UNL     1      -3.385  -6.994  -6.491  1.00  0.00    -0.043 A 
ATOM     20  C   UNL     1      -3.835  -5.525  -8.368  1.00  0.00     0.083 A 
ATOM     21  C   UNL     1      -3.252  -5.746  -7.119  1.00  0.00     0.028 A 
ATOM     22  C   UNL     1      -4.552  -6.544  -8.994  1.00  0.00     0.134 A 
ATOM     23  C   UNL     1      -4.692  -7.785  -8.383  1.00  0.00     0.048 A 
ATOM     24  C   UNL     1      -4.111  -8.009  -7.133  1.00  0.00     0.008 A 
ATOM     25  Cl  UNL     1      -3.661  -3.984  -9.123  1.00  0.00    -0.080 Cl
BRANCH  22  26
ATOM     26  O   UNL     1      -5.150  -6.371 -10.213  1.00  0.00    -0.506 OA
ATOM     27  H   UNL     1      -5.554  -5.483 -10.203  1.00  0.00     0.293 HD
ENDBRANCH  22  26
ENDBRANCH  18  19
ENDBRANCH  17  18
BRANCH  17  28
ATOM     28  O   UNL     1      -2.206  -6.149  -3.025  1.00  0.00    -0.383 OA
ATOM     29  H   UNL     1      -2.821  -6.216  -2.260  1.00  0.00     0.211 HD
ENDBRANCH  17  28
ENDBRANCH  14  17
ENDBRANCH  12  13
BRANCH  12  30
ATOM     30  C   UNL     1      -6.992  -3.296  -4.725  1.00  0.00     0.018 C 
ATOM     31  C   UNL     1      -8.527  -3.273  -4.649  1.00  0.00     0.010 C 
BRANCH  30  32
ATOM     32  C   UNL     1      -6.536  -3.630  -6.166  1.00  0.00     0.002 C 
ATOM     33  C   UNL     1      -7.193  -4.855  -6.790  1.00  0.00     0.004 C 
ENDBRANCH  30  32
ENDBRANCH  12  30
ENDBRANCH  10  12
ENDBRANCH   1  10
BRANCH   5  34
ATOM     34  C   UNL     1      -9.129  -3.933  -0.306  1.00  0.00     0.242 C 
ATOM     35  O   UNL     1     -10.332  -4.120  -0.126  1.00  0.00    -0.273 OA
ATOM     36  N   UNL     1      -8.490  -2.783   0.102  1.00  0.00    -0.354 N 
ATOM     37  H   UNL     1      -7.521  -2.632  -0.182  1.00  0.00     0.163 HD
BRANCH  36  38
ATOM     38  C   UNL     1      -9.109  -1.832   1.002  1.00  0.00     0.116 C 
BRANCH  38  39
ATOM     39  C   UNL     1      -9.500  -0.571   0.235  1.00  0.00     0.023 C 
BRANCH  39  40
ATOM     40  C   UNL     1      -8.627   0.625   0.598  1.00  0.00     0.026 C 
BRANCH  40  41
ATOM     41  C   UNL     1      -9.460   1.721   1.264  1.00  0.00     0.146 C 
BRANCH  41  42
ATOM     42  N   UNL     1     -10.218   1.158   2.374  1.00  0.00    -0.254 NA
ATOM     43  C   UNL     1      -9.743   1.220   3.561  1.00  0.00     0.185 C 
ATOM     44  N   UNL     1      -8.589   1.749   4.005  1.00  0.00    -0.370 N 
ATOM     45  N   UNL     1     -10.456   0.690   4.569  1.00  0.00    -0.370 N 
ATOM     46  H   UNL     1      -8.233   1.512   4.915  1.00  0.00     0.159 HD
ATOM     47  H   UNL     1      -7.934   2.204   3.376  1.00  0.00     0.159 HD
ATOM     48  H   UNL     1     -11.345   0.278   4.321  1.00  0.00     0.159 HD
ATOM     49  H   UNL     1     -10.274   0.904   5.534  1.00  0.00     0.159 HD
ENDBRANCH  41  42
ENDBRANCH  40  41
ENDBRANCH  39  40
ENDBRANCH  38  39
ENDBRANCH  36  38
ENDBRANCH   5  34
BRANCH   8  50
ATOM     50  O   UNL     1      -5.822  -4.401   3.068  1.00  0.00    -0.245 OA
BRANCH  50  51
ATOM     51  S   UNL     1      -5.352  -4.079   4.592  1.00  0.00     0.397 S 
ATOM     52  O   UNL     1      -5.148  -5.338   5.272  1.00  0.00    -0.169 OA
ATOM     53  O   UNL     1      -6.193  -3.041   5.151  1.00  0.00    -0.169 OA
BRANCH  51  54
ATOM     54  O   UNL     1      -3.884  -3.461   4.367  1.00  0.00    -0.264 OA
ATOM     55  H   UNL     1      -3.558  -3.775   3.499  1.00  0.00     0.236 HD
ENDBRANCH  51  54
ENDBRANCH  50  51
ENDBRANCH   8  50
TORSDOF 19
ENDMDL
MODEL 29
REMARK VINA RESULT:    -6.733      3.908      7.719
REMARK INTER + INTRA:         -16.834
REMARK INTER:                 -13.731
REMARK INTRA:                  -3.102
REMARK UNBOUND:                -3.213
REMARK SMILES CC[C@@H](C)[C@@H](NC(=O)[C@@H](O)Cc1ccc(O)c(Cl)c1)C(=O)N1[C@H](C(=O)NCCCCN=C(N)N)C[C@H]2CC[C@H](OS(=O)(=O)O)C[C@@H]21
REMARK SMILES IDX 22 1 36 2 46 3 35 4 23 5 45 6 37 7 39 8 38 9 20 10 21 11
REMARK SMILES IDX 5 12 6 13 7 14 8 15 9 17 11 18 12 19 17 20 19 21 15 22 14 23
REMARK SMILES IDX 13 24 18 25 16 26 10 28 3 30 4 31 2 32 1 33 24 34 25 35
REMARK SMILES IDX 26 36 27 38 28 39 29 40 30 41 31 42 32 43 33 44 34 45 40 50
REMARK SMILES IDX 41 51 42 52 43 53 44 54
REMARK H PARENT 6 16 16 27 10 29 26 37 33 46 33 47 34 48 34 49 44 55
ROOT
ATOM      1  N   UNL     1      -5.455  -4.121  -6.280  1.00  0.00    -0.326 N 
ATOM      2  C   UNL     1      -3.185  -4.637  -6.628  1.00  0.00     0.014 C 
ATOM      3  C   UNL     1      -4.409  -5.024  -5.793  1.00  0.00     0.091 C 
ATOM      4  C   UNL     1      -3.361  -3.137  -6.805  1.00  0.00     0.041 C 
ATOM      5  C   UNL     1      -4.860  -3.078  -7.152  1.00  0.00     0.175 C 
ATOM      6  C   UNL     1      -4.631  -6.530  -5.930  1.00  0.00     0.059 C 
ATOM      7  C   UNL     1      -1.911  -5.167  -6.000  1.00  0.00     0.008 C 
ATOM      8  C   UNL     1      -3.328  -7.335  -6.124  1.00  0.00     0.143 C 
ATOM      9  C   UNL     1      -2.107  -6.618  -5.511  1.00  0.00     0.034 C 
ENDROOT
BRANCH   1  10
ATOM     10  C   UNL     1      -6.775  -3.994  -5.881  1.00  0.00     0.246 C 
ATOM     11  O   UNL     1      -7.655  -4.580  -6.521  1.00  0.00    -0.272 OA
BRANCH  10  12
ATOM     12  C   UNL     1      -7.117  -3.156  -4.616  1.00  0.00     0.174 C 
BRANCH  12  13
ATOM     13  N   UNL     1      -7.408  -4.045  -3.492  1.00  0.00    -0.342 N 
ATOM     14  C   UNL     1      -6.495  -4.441  -2.540  1.00  0.00     0.249 C 
ATOM     15  O   UNL     1      -5.330  -4.065  -2.515  1.00  0.00    -0.272 OA
ATOM     16  H   UNL     1      -8.285  -4.559  -3.470  1.00  0.00     0.164 HD
BRANCH  14  17
ATOM     17  C   UNL     1      -7.103  -5.398  -1.493  1.00  0.00     0.207 C 
BRANCH  17  18
ATOM     18  C   UNL     1      -7.013  -6.849  -1.976  1.00  0.00     0.077 C 
BRANCH  18  19
ATOM     19  C   UNL     1      -5.773  -7.539  -1.453  1.00  0.00    -0.043 A 
ATOM     20  C   UNL     1      -4.572  -8.616   0.358  1.00  0.00     0.083 A 
ATOM     21  C   UNL     1      -5.734  -8.025  -0.137  1.00  0.00     0.028 A 
ATOM     22  C   UNL     1      -3.443  -8.725  -0.455  1.00  0.00     0.134 A 
ATOM     23  C   UNL     1      -3.467  -8.248  -1.760  1.00  0.00     0.048 A 
ATOM     24  C   UNL     1      -4.629  -7.653  -2.258  1.00  0.00     0.008 A 
ATOM     25  Cl  UNL     1      -4.544  -9.207   1.978  1.00  0.00    -0.080 Cl
BRANCH  22  26
ATOM     26  O   UNL     1      -2.277  -9.287  -0.011  1.00  0.00    -0.506 OA
ATOM     27  H   UNL     1      -2.519  -9.907   0.703  1.00  0.00     0.293 HD
ENDBRANCH  22  26
ENDBRANCH  18  19
ENDBRANCH  17  18
BRANCH  17  28
ATOM     28  O   UNL     1      -8.476  -5.068  -1.227  1.00  0.00    -0.383 OA
ATOM     29  H   UNL     1      -8.994  -5.882  -1.425  1.00  0.00     0.211 HD
ENDBRANCH  17  28
ENDBRANCH  14  17
ENDBRANCH  12  13
BRANCH  12  30
ATOM     30  C   UNL     1      -8.252  -2.127  -4.866  1.00  0.00     0.018 C 
ATOM     31  C   UNL     1      -7.684  -0.810  -5.418  1.00  0.00     0.010 C 
BRANCH  30  32
ATOM     32  C   UNL     1      -9.125  -1.848  -3.618  1.00  0.00     0.002 C 
ATOM     33  C   UNL     1     -10.209  -0.794  -3.803  1.00  0.00     0.004 C 
ENDBRANCH  30  32
ENDBRANCH  12  30
ENDBRANCH  10  12
ENDBRANCH   1  10
BRANCH   5  34
ATOM     34  C   UNL     1      -5.114  -3.403  -8.649  1.00  0.00     0.242 C 
ATOM     35  O   UNL     1      -6.052  -4.109  -9.019  1.00  0.00    -0.273 OA
ATOM     36  N   UNL     1      -4.185  -2.888  -9.525  1.00  0.00    -0.354 N 
ATOM     37  H   UNL     1      -3.365  -2.412  -9.148  1.00  0.00     0.163 HD
BRANCH  36  38
ATOM     38  C   UNL     1      -4.381  -2.909 -10.960  1.00  0.00     0.116 C 
BRANCH  38  39
ATOM     39  C   UNL     1      -3.382  -1.972 -11.633  1.00  0.00     0.023 C 
BRANCH  39  40
ATOM     40  C   UNL     1      -2.785  -0.960 -10.661  1.00  0.00     0.026 C 
BRANCH  40  41
ATOM     41  C   UNL     1      -1.308  -1.258 -10.406  1.00  0.00     0.146 C 
BRANCH  41  42
ATOM     42  N   UNL     1      -1.128  -1.721  -9.036  1.00  0.00    -0.254 NA
ATOM     43  C   UNL     1      -0.349  -1.080  -8.249  1.00  0.00     0.185 C 
ATOM     44  N   UNL     1       0.388   0.024  -8.470  1.00  0.00    -0.370 N 
ATOM     45  N   UNL     1      -0.193  -1.525  -6.991  1.00  0.00    -0.370 N 
ATOM     46  H   UNL     1       1.136   0.275  -7.846  1.00  0.00     0.159 HD
ATOM     47  H   UNL     1       0.379   0.501  -9.367  1.00  0.00     0.159 HD
ATOM     48  H   UNL     1      -0.721  -2.349  -6.739  1.00  0.00     0.159 HD
ATOM     49  H   UNL     1       0.200  -0.960  -6.259  1.00  0.00     0.159 HD
ENDBRANCH  41  42
ENDBRANCH  40  41
ENDBRANCH  39  40
ENDBRANCH  38  39
ENDBRANCH  36  38
ENDBRANCH   5  34
BRANCH   8  50
ATOM     50  O   UNL     1      -3.081  -7.541  -7.515  1.00  0.00    -0.245 OA
BRANCH  50  51
ATOM     51  S   UNL     1      -2.085  -8.737  -7.985  1.00  0.00     0.397 S 
ATOM     52  O   UNL     1      -2.398  -9.912  -7.203  1.00  0.00    -0.169 OA
ATOM     53  O   UNL     1      -0.732  -8.231  -8.088  1.00  0.00    -0.169 OA
BRANCH  51  54
ATOM     54  O   UNL     1      -2.612  -9.048  -9.472  1.00  0.00    -0.264 OA
ATOM     55  H   UNL     1      -1.829  -9.150 -10.051  1.00  0.00     0.236 HD
ENDBRANCH  51  54
ENDBRANCH  50  51
ENDBRANCH   8  50
TORSDOF 19
ENDMDL
MODEL 30
REMARK VINA RESULT:    -6.730      5.983      9.194
REMARK INTER + INTRA:         -16.829
REMARK INTER:                 -13.436
REMARK INTRA:                  -3.394
REMARK UNBOUND:                -3.213
REMARK SMILES CC[C@@H](C)[C@@H](NC(=O)[C@@H](O)Cc1ccc(O)c(Cl)c1)C(=O)N1[C@H](C(=O)NCCCCN=C(N)N)C[C@H]2CC[C@H](OS(=O)(=O)O)C[C@@H]21
REMARK SMILES IDX 22 1 36 2 46 3 35 4 23 5 45 6 37 7 39 8 38 9 20 10 21 11
REMARK SMILES IDX 5 12 6 13 7 14 8 15 9 17 11 18 12 19 17 20 19 21 15 22 14 23
REMARK SMILES IDX 13 24 18 25 16 26 10 28 3 30 4 31 2 32 1 33 24 34 25 35
REMARK SMILES IDX 26 36 27 38 28 39 29 40 30 41 31 42 32 43 33 44 34 45 40 50
REMARK SMILES IDX 41 51 42 52 43 53 44 54
REMARK H PARENT 6 16 16 27 10 29 26 37 33 46 33 47 34 48 34 49 44 55
ROOT
ATOM      1  N   UNL     1      -9.477  -7.229   5.472  1.00  0.00    -0.326 N 
ATOM      2  C   UNL     1      -9.913  -5.948   7.399  1.00  0.00     0.014 C 
ATOM      3  C   UNL     1      -8.794  -6.671   6.643  1.00  0.00     0.091 C 
ATOM      4  C   UNL     1     -11.121  -6.834   7.136  1.00  0.00     0.041 C 
ATOM      5  C   UNL     1     -10.946  -7.093   5.628  1.00  0.00     0.175 C 
ATOM      6  C   UNL     1      -7.651  -5.684   6.413  1.00  0.00     0.059 C 
ATOM      7  C   UNL     1      -9.501  -5.657   8.828  1.00  0.00     0.008 C 
ATOM      8  C   UNL     1      -7.506  -4.629   7.531  1.00  0.00     0.143 C 
ATOM      9  C   UNL     1      -8.049  -5.138   8.882  1.00  0.00     0.034 C 
ENDROOT
BRANCH   1  10
ATOM     10  C   UNL     1      -8.977  -8.000   4.437  1.00  0.00     0.246 C 
ATOM     11  O   UNL     1      -9.418  -9.142   4.271  1.00  0.00    -0.272 OA
BRANCH  10  12
ATOM     12  C   UNL     1      -7.904  -7.401   3.482  1.00  0.00     0.174 C 
BRANCH  12  13
ATOM     13  N   UNL     1      -8.266  -7.674   2.091  1.00  0.00    -0.342 N 
ATOM     14  C   UNL     1      -8.437  -6.716   1.117  1.00  0.00     0.249 C 
ATOM     15  O   UNL     1      -8.276  -5.517   1.304  1.00  0.00    -0.272 OA
ATOM     16  H   UNL     1      -8.584  -8.603   1.827  1.00  0.00     0.164 HD
BRANCH  14  17
ATOM     17  C   UNL     1      -8.835  -7.319  -0.247  1.00  0.00     0.207 C 
BRANCH  17  18
ATOM     18  C   UNL     1      -7.985  -6.714  -1.369  1.00  0.00     0.077 C 
BRANCH  18  19
ATOM     19  C   UNL     1      -6.594  -7.304  -1.400  1.00  0.00    -0.043 A 
ATOM     20  C   UNL     1      -4.276  -7.188  -2.105  1.00  0.00     0.083 A 
ATOM     21  C   UNL     1      -5.547  -6.617  -2.035  1.00  0.00     0.028 A 
ATOM     22  C   UNL     1      -4.042  -8.444  -1.546  1.00  0.00     0.134 A 
ATOM     23  C   UNL     1      -5.069  -9.136  -0.914  1.00  0.00     0.048 A 
ATOM     24  C   UNL     1      -6.344  -8.568  -0.844  1.00  0.00     0.008 A 
ATOM     25  Cl  UNL     1      -3.002  -6.328  -2.889  1.00  0.00    -0.080 Cl
BRANCH  22  26
ATOM     26  O   UNL     1      -2.815  -9.048  -1.599  1.00  0.00    -0.506 OA
ATOM     27  H   UNL     1      -2.160  -8.341  -1.747  1.00  0.00     0.293 HD
ENDBRANCH  22  26
ENDBRANCH  18  19
ENDBRANCH  17  18
BRANCH  17  28
ATOM     28  O   UNL     1     -10.226  -7.092  -0.527  1.00  0.00    -0.383 OA
ATOM     29  H   UNL     1     -10.533  -7.878  -1.034  1.00  0.00     0.211 HD
ENDBRANCH  17  28
ENDBRANCH  14  17
ENDBRANCH  12  13
BRANCH  12  30
ATOM     30  C   UNL     1      -6.465  -7.874   3.823  1.00  0.00     0.018 C 
ATOM     31  C   UNL     1      -5.440  -6.771   3.515  1.00  0.00     0.010 C 
BRANCH  30  32
ATOM     32  C   UNL     1      -6.060  -9.190   3.117  1.00  0.00     0.002 C 
ATOM     33  C   UNL     1      -4.605  -9.269   2.672  1.00  0.00     0.004 C 
ENDBRANCH  30  32
ENDBRANCH  12  30
ENDBRANCH  10  12
ENDBRANCH   1  10
BRANCH   5  34
ATOM     34  C   UNL     1     -11.483  -5.910   4.779  1.00  0.00     0.242 C 
ATOM     35  O   UNL     1     -12.616  -5.453   4.929  1.00  0.00    -0.273 OA
ATOM     36  N   UNL     1     -10.621  -5.446   3.810  1.00  0.00    -0.354 N 
ATOM     37  H   UNL     1      -9.743  -5.943   3.654  1.00  0.00     0.163 HD
BRANCH  36  38
ATOM     38  C   UNL     1     -10.868  -4.221   3.078  1.00  0.00     0.116 C 
BRANCH  38  39
ATOM     39  C   UNL     1     -11.534  -4.541   1.742  1.00  0.00     0.023 C 
BRANCH  39  40
ATOM     40  C   UNL     1     -11.757  -3.297   0.889  1.00  0.00     0.026 C 
BRANCH  40  41
ATOM     41  C   UNL     1     -10.718  -3.214  -0.230  1.00  0.00     0.146 C 
BRANCH  41  42
ATOM     42  N   UNL     1     -10.102  -1.894  -0.233  1.00  0.00    -0.254 NA
ATOM     43  C   UNL     1      -8.962  -1.726   0.324  1.00  0.00     0.185 C 
ATOM     44  N   UNL     1      -8.169  -2.610   0.957  1.00  0.00    -0.370 N 
ATOM     45  N   UNL     1      -8.413  -0.500   0.314  1.00  0.00    -0.370 N 
ATOM     46  H   UNL     1      -7.425  -2.295   1.555  1.00  0.00     0.159 HD
ATOM     47  H   UNL     1      -8.426  -3.588   1.044  1.00  0.00     0.159 HD
ATOM     48  H   UNL     1      -8.943   0.225  -0.151  1.00  0.00     0.159 HD
ATOM     49  H   UNL     1      -7.442  -0.337   0.511  1.00  0.00     0.159 HD
ENDBRANCH  41  42
ENDBRANCH  40  41
ENDBRANCH  39  40
ENDBRANCH  38  39
ENDBRANCH  36  38
ENDBRANCH   5  34
BRANCH   8  50
ATOM     50  O   UNL     1      -8.214  -3.440   7.178  1.00  0.00    -0.245 OA
BRANCH  50  51
ATOM     51  S   UNL     1      -7.487  -1.994   7.342  1.00  0.00     0.397 S 
ATOM     52  O   UNL     1      -7.951  -1.398   8.574  1.00  0.00    -0.169 OA
ATOM     53  O   UNL     1      -7.539  -1.278   6.085  1.00  0.00    -0.169 OA
BRANCH  51  54
ATOM     54  O   UNL     1      -5.958  -2.416   7.609  1.00  0.00    -0.264 OA
ATOM     55  H   UNL     1      -5.471  -2.321   6.765  1.00  0.00     0.236 HD
ENDBRANCH  51  54
ENDBRANCH  50  51
ENDBRANCH   8  50
TORSDOF 19
ENDMDL
MODEL 31
REMARK VINA RESULT:    -6.715      6.578      9.942
REMARK INTER + INTRA:         -16.797
REMARK INTER:                 -13.388
REMARK INTRA:                  -3.409
REMARK UNBOUND:                -3.213
REMARK SMILES CC[C@@H](C)[C@@H](NC(=O)[C@@H](O)Cc1ccc(O)c(Cl)c1)C(=O)N1[C@H](C(=O)NCCCCN=C(N)N)C[C@H]2CC[C@H](OS(=O)(=O)O)C[C@@H]21
REMARK SMILES IDX 22 1 36 2 46 3 35 4 23 5 45 6 37 7 39 8 38 9 20 10 21 11
REMARK SMILES IDX 5 12 6 13 7 14 8 15 9 17 11 18 12 19 17 20 19 21 15 22 14 23
REMARK SMILES IDX 13 24 18 25 16 26 10 28 3 30 4 31 2 32 1 33 24 34 25 35
REMARK SMILES IDX 26 36 27 38 28 39 29 40 30 41 31 42 32 43 33 44 34 45 40 50
REMARK SMILES IDX 41 51 42 52 43 53 44 54
REMARK H PARENT 6 16 16 27 10 29 26 37 33 46 33 47 34 48 34 49 44 55
ROOT
ATOM      1  N   UNL     1      -9.849  -7.061   5.281  1.00  0.00    -0.326 N 
ATOM      2  C   UNL     1     -10.774  -5.626   6.901  1.00  0.00     0.014 C 
ATOM      3  C   UNL     1      -9.675  -6.670   6.682  1.00  0.00     0.091 C 
ATOM      4  C   UNL     1     -11.905  -6.141   6.025  1.00  0.00     0.041 C 
ATOM      5  C   UNL     1     -11.120  -6.506   4.752  1.00  0.00     0.175 C 
ATOM      6  C   UNL     1      -8.339  -6.061   7.104  1.00  0.00     0.059 C 
ATOM      7  C   UNL     1     -11.022  -5.402   8.380  1.00  0.00     0.008 C 
ATOM      8  C   UNL     1      -8.457  -5.043   8.259  1.00  0.00     0.143 C 
ATOM      9  C   UNL     1      -9.686  -5.317   9.149  1.00  0.00     0.034 C 
ENDROOT
BRANCH   1  10
ATOM     10  C   UNL     1      -9.152  -7.989   4.525  1.00  0.00     0.246 C 
ATOM     11  O   UNL     1      -9.494  -9.176   4.565  1.00  0.00    -0.272 OA
BRANCH  10  12
ATOM     12  C   UNL     1      -7.985  -7.513   3.612  1.00  0.00     0.174 C 
BRANCH  12  13
ATOM     13  N   UNL     1      -8.343  -7.701   2.206  1.00  0.00    -0.342 N 
ATOM     14  C   UNL     1      -8.419  -6.695   1.269  1.00  0.00     0.249 C 
ATOM     15  O   UNL     1      -8.165  -5.521   1.506  1.00  0.00    -0.272 OA
ATOM     16  H   UNL     1      -8.731  -8.590   1.900  1.00  0.00     0.164 HD
BRANCH  14  17
ATOM     17  C   UNL     1      -8.840  -7.210  -0.124  1.00  0.00     0.207 C 
BRANCH  17  18
ATOM     18  C   UNL     1      -7.969  -6.578  -1.214  1.00  0.00     0.077 C 
BRANCH  18  19
ATOM     19  C   UNL     1      -6.608  -7.234  -1.296  1.00  0.00    -0.043 A 
ATOM     20  C   UNL     1      -4.284  -7.175  -1.987  1.00  0.00     0.083 A 
ATOM     21  C   UNL     1      -5.525  -6.549  -1.868  1.00  0.00     0.028 A 
ATOM     22  C   UNL     1      -4.117  -8.485  -1.539  1.00  0.00     0.134 A 
ATOM     23  C   UNL     1      -5.181  -9.176  -0.970  1.00  0.00     0.048 A 
ATOM     24  C   UNL     1      -6.425  -8.552  -0.852  1.00  0.00     0.008 A 
ATOM     25  Cl  UNL     1      -2.965  -6.316  -2.693  1.00  0.00    -0.080 Cl
BRANCH  22  26
ATOM     26  O   UNL     1      -2.922  -9.144  -1.644  1.00  0.00    -0.506 OA
ATOM     27  H   UNL     1      -2.266  -8.488  -1.944  1.00  0.00     0.293 HD
ENDBRANCH  22  26
ENDBRANCH  18  19
ENDBRANCH  17  18
BRANCH  17  28
ATOM     28  O   UNL     1     -10.222  -6.916  -0.388  1.00  0.00    -0.383 OA
ATOM     29  H   UNL     1     -10.226  -6.285  -1.143  1.00  0.00     0.211 HD
ENDBRANCH  17  28
ENDBRANCH  14  17
ENDBRANCH  12  13
BRANCH  12  30
ATOM     30  C   UNL     1      -6.631  -8.180   3.973  1.00  0.00     0.018 C 
ATOM     31  C   UNL     1      -5.793  -7.263   4.876  1.00  0.00     0.010 C 
BRANCH  30  32
ATOM     32  C   UNL     1      -5.802  -8.611   2.738  1.00  0.00     0.002 C 
ATOM     33  C   UNL     1      -4.684  -7.658   2.339  1.00  0.00     0.004 C 
ENDBRANCH  30  32
ENDBRANCH  12  30
ENDBRANCH  10  12
ENDBRANCH   1  10
BRANCH   5  34
ATOM     34  C   UNL     1     -10.849  -5.258   3.870  1.00  0.00     0.242 C 
ATOM     35  O   UNL     1      -9.933  -4.471   4.107  1.00  0.00    -0.273 OA
ATOM     36  N   UNL     1     -11.740  -5.066   2.838  1.00  0.00    -0.354 N 
ATOM     37  H   UNL     1     -12.549  -5.684   2.766  1.00  0.00     0.163 HD
BRANCH  36  38
ATOM     38  C   UNL     1     -11.517  -4.085   1.796  1.00  0.00     0.116 C 
BRANCH  38  39
ATOM     39  C   UNL     1     -12.290  -2.807   2.113  1.00  0.00     0.023 C 
BRANCH  39  40
ATOM     40  C   UNL     1     -11.567  -1.554   1.630  1.00  0.00     0.026 C 
BRANCH  40  41
ATOM     41  C   UNL     1     -10.423  -1.190   2.576  1.00  0.00     0.146 C 
BRANCH  41  42
ATOM     42  N   UNL     1     -10.962  -0.759   3.859  1.00  0.00    -0.254 NA
ATOM     43  C   UNL     1     -10.819   0.458   4.229  1.00  0.00     0.185 C 
ATOM     44  N   UNL     1     -10.219   1.488   3.604  1.00  0.00    -0.370 N 
ATOM     45  N   UNL     1     -11.320   0.835   5.417  1.00  0.00    -0.370 N 
ATOM     46  H   UNL     1      -9.967   2.319   4.111  1.00  0.00     0.159 HD
ATOM     47  H   UNL     1      -9.797   1.382   2.687  1.00  0.00     0.159 HD
ATOM     48  H   UNL     1     -11.797   0.120   5.949  1.00  0.00     0.159 HD
ATOM     49  H   UNL     1     -11.459   1.798   5.668  1.00  0.00     0.159 HD
ENDBRANCH  41  42
ENDBRANCH  40  41
ENDBRANCH  39  40
ENDBRANCH  38  39
ENDBRANCH  36  38
ENDBRANCH   5  34
BRANCH   8  50
ATOM     50  O   UNL     1      -8.562  -3.719   7.736  1.00  0.00    -0.245 OA
BRANCH  50  51
ATOM     51  S   UNL     1      -7.489  -2.586   8.197  1.00  0.00     0.397 S 
ATOM     52  O   UNL     1      -6.755  -2.163   7.026  1.00  0.00    -0.169 OA
ATOM     53  O   UNL     1      -6.813  -3.019   9.402  1.00  0.00    -0.169 OA
BRANCH  51  54
ATOM     54  O   UNL     1      -8.448  -1.354   8.582  1.00  0.00    -0.264 OA
ATOM     55  H   UNL     1      -8.274  -0.630   7.946  1.00  0.00     0.236 HD
ENDBRANCH  51  54
ENDBRANCH  50  51
ENDBRANCH   8  50
TORSDOF 19
ENDMDL
MODEL 32
REMARK VINA RESULT:    -6.686      3.798      8.041
REMARK INTER + INTRA:         -16.739
REMARK INTER:                 -12.950
REMARK INTRA:                  -3.788
REMARK UNBOUND:                -3.213
REMARK SMILES CC[C@@H](C)[C@@H](NC(=O)[C@@H](O)Cc1ccc(O)c(Cl)c1)C(=O)N1[C@H](C(=O)NCCCCN=C(N)N)C[C@H]2CC[C@H](OS(=O)(=O)O)C[C@@H]21
REMARK SMILES IDX 22 1 36 2 46 3 35 4 23 5 45 6 37 7 39 8 38 9 20 10 21 11
REMARK SMILES IDX 5 12 6 13 7 14 8 15 9 17 11 18 12 19 17 20 19 21 15 22 14 23
REMARK SMILES IDX 13 24 18 25 16 26 10 28 3 30 4 31 2 32 1 33 24 34 25 35
REMARK SMILES IDX 26 36 27 38 28 39 29 40 30 41 31 42 32 43 33 44 34 45 40 50
REMARK SMILES IDX 41 51 42 52 43 53 44 54
REMARK H PARENT 6 16 16 27 10 29 26 37 33 46 33 47 34 48 34 49 44 55
ROOT
ATOM      1  N   UNL     1      -5.523  -4.980  -4.541  1.00  0.00    -0.326 N 
ATOM      2  C   UNL     1      -3.745  -4.786  -6.071  1.00  0.00     0.014 C 
ATOM      3  C   UNL     1      -4.107  -5.329  -4.686  1.00  0.00     0.091 C 
ATOM      4  C   UNL     1      -4.593  -3.527  -6.170  1.00  0.00     0.041 C 
ATOM      5  C   UNL     1      -5.933  -4.059  -5.630  1.00  0.00     0.175 C 
ATOM      6  C   UNL     1      -3.715  -6.805  -4.629  1.00  0.00     0.059 C 
ATOM      7  C   UNL     1      -2.241  -4.684  -6.238  1.00  0.00     0.008 C 
ATOM      8  C   UNL     1      -2.479  -7.154  -5.486  1.00  0.00     0.143 C 
ATOM      9  C   UNL     1      -1.545  -5.942  -5.676  1.00  0.00     0.034 C 
ENDROOT
BRANCH   1  10
ATOM     10  C   UNL     1      -6.387  -5.200  -3.482  1.00  0.00     0.246 C 
ATOM     11  O   UNL     1      -7.206  -6.123  -3.556  1.00  0.00    -0.272 OA
BRANCH  10  12
ATOM     12  C   UNL     1      -6.281  -4.313  -2.208  1.00  0.00     0.174 C 
BRANCH  12  13
ATOM     13  N   UNL     1      -6.299  -2.899  -2.582  1.00  0.00    -0.342 N 
ATOM     14  C   UNL     1      -7.436  -2.154  -2.804  1.00  0.00     0.249 C 
ATOM     15  O   UNL     1      -8.573  -2.593  -2.684  1.00  0.00    -0.272 OA
ATOM     16  H   UNL     1      -5.437  -2.443  -2.870  1.00  0.00     0.164 HD
BRANCH  14  17
ATOM     17  C   UNL     1      -7.124  -0.696  -3.201  1.00  0.00     0.207 C 
BRANCH  17  18
ATOM     18  C   UNL     1      -7.151  -0.538  -4.725  1.00  0.00     0.077 C 
BRANCH  18  19
ATOM     19  C   UNL     1      -8.351   0.258  -5.186  1.00  0.00    -0.043 A 
ATOM     20  C   UNL     1      -9.292   2.095  -6.461  1.00  0.00     0.083 A 
ATOM     21  C   UNL     1      -8.189   1.331  -6.077  1.00  0.00     0.028 A 
ATOM     22  C   UNL     1     -10.559   1.794  -5.960  1.00  0.00     0.134 A 
ATOM     23  C   UNL     1     -10.733   0.734  -5.078  1.00  0.00     0.048 A 
ATOM     24  C   UNL     1      -9.631  -0.031  -4.689  1.00  0.00     0.008 A 
ATOM     25  Cl  UNL     1      -9.073   3.409  -7.556  1.00  0.00    -0.080 Cl
BRANCH  22  26
ATOM     26  O   UNL     1     -11.668   2.521  -6.300  1.00  0.00    -0.506 OA
ATOM     27  H   UNL     1     -11.937   3.011  -5.501  1.00  0.00     0.293 HD
ENDBRANCH  22  26
ENDBRANCH  18  19
ENDBRANCH  17  18
BRANCH  17  28
ATOM     28  O   UNL     1      -5.840  -0.287  -2.703  1.00  0.00    -0.383 OA
ATOM     29  H   UNL     1      -5.328  -1.115  -2.558  1.00  0.00     0.211 HD
ENDBRANCH  17  28
ENDBRANCH  14  17
ENDBRANCH  12  13
BRANCH  12  30
ATOM     30  C   UNL     1      -5.058  -4.676  -1.324  1.00  0.00     0.018 C 
ATOM     31  C   UNL     1      -5.002  -6.190  -1.064  1.00  0.00     0.010 C 
BRANCH  30  32
ATOM     32  C   UNL     1      -5.010  -3.905   0.018  1.00  0.00     0.002 C 
ATOM     33  C   UNL     1      -5.424  -4.706   1.245  1.00  0.00     0.004 C 
ENDBRANCH  30  32
ENDBRANCH  12  30
ENDBRANCH  10  12
ENDBRANCH   1  10
BRANCH   5  34
ATOM     34  C   UNL     1      -6.728  -4.821  -6.724  1.00  0.00     0.242 C 
ATOM     35  O   UNL     1      -7.042  -6.005  -6.605  1.00  0.00    -0.273 OA
ATOM     36  N   UNL     1      -7.010  -4.092  -7.857  1.00  0.00    -0.354 N 
ATOM     37  H   UNL     1      -6.620  -3.153  -7.947  1.00  0.00     0.163 HD
BRANCH  36  38
ATOM     38  C   UNL     1      -7.921  -4.569  -8.877  1.00  0.00     0.116 C 
BRANCH  38  39
ATOM     39  C   UNL     1      -7.285  -4.410 -10.256  1.00  0.00     0.023 C 
BRANCH  39  40
ATOM     40  C   UNL     1      -5.784  -4.150 -10.179  1.00  0.00     0.026 C 
BRANCH  40  41
ATOM     41  C   UNL     1      -4.997  -5.417 -10.512  1.00  0.00     0.146 C 
BRANCH  41  42
ATOM     42  N   UNL     1      -4.848  -6.233  -9.314  1.00  0.00    -0.254 NA
ATOM     43  C   UNL     1      -5.516  -7.319  -9.201  1.00  0.00     0.185 C 
ATOM     44  N   UNL     1      -6.394  -7.887 -10.047  1.00  0.00    -0.370 N 
ATOM     45  N   UNL     1      -5.367  -8.055  -8.086  1.00  0.00    -0.370 N 
ATOM     46  H   UNL     1      -7.023  -8.604  -9.728  1.00  0.00     0.159 HD
ATOM     47  H   UNL     1      -6.615  -7.470 -10.946  1.00  0.00     0.159 HD
ATOM     48  H   UNL     1      -4.716  -7.701  -7.399  1.00  0.00     0.159 HD
ATOM     49  H   UNL     1      -5.662  -9.013  -8.024  1.00  0.00     0.159 HD
ENDBRANCH  41  42
ENDBRANCH  40  41
ENDBRANCH  39  40
ENDBRANCH  38  39
ENDBRANCH  36  38
ENDBRANCH   5  34
BRANCH   8  50
ATOM     50  O   UNL     1      -2.890  -7.615  -6.773  1.00  0.00    -0.245 OA
BRANCH  50  51
ATOM     51  S   UNL     1      -1.981  -8.710  -7.562  1.00  0.00     0.397 S 
ATOM     52  O   UNL     1      -1.057  -7.993  -8.412  1.00  0.00    -0.169 OA
ATOM     53  O   UNL     1      -2.829  -9.763  -8.080  1.00  0.00    -0.169 OA
BRANCH  51  54
ATOM     54  O   UNL     1      -1.093  -9.327  -6.372  1.00  0.00    -0.264 OA
ATOM     55  H   UNL     1      -1.137  -8.709  -5.615  1.00  0.00     0.236 HD
ENDBRANCH  51  54
ENDBRANCH  50  51
ENDBRANCH   8  50
TORSDOF 19
ENDMDL
MODEL 33
REMARK VINA RESULT:    -6.645      6.074      9.314
REMARK INTER + INTRA:         -16.656
REMARK INTER:                 -12.777
REMARK INTRA:                  -3.879
REMARK UNBOUND:                -3.213
REMARK SMILES CC[C@@H](C)[C@@H](NC(=O)[C@@H](O)Cc1ccc(O)c(Cl)c1)C(=O)N1[C@H](C(=O)NCCCCN=C(N)N)C[C@H]2CC[C@H](OS(=O)(=O)O)C[C@@H]21
REMARK SMILES IDX 22 1 36 2 46 3 35 4 23 5 45 6 37 7 39 8 38 9 20 10 21 11
REMARK SMILES IDX 5 12 6 13 7 14 8 15 9 17 11 18 12 19 17 20 19 21 15 22 14 23
REMARK SMILES IDX 13 24 18 25 16 26 10 28 3 30 4 31 2 32 1 33 24 34 25 35
REMARK SMILES IDX 26 36 27 38 28 39 29 40 30 41 31 42 32 43 33 44 34 45 40 50
REMARK SMILES IDX 41 51 42 52 43 53 44 54
REMARK H PARENT 6 16 16 27 10 29 26 37 33 46 33 47 34 48 34 49 44 55
ROOT
ATOM      1  N   UNL     1      -4.036  -1.103  -7.745  1.00  0.00    -0.326 N 
ATOM      2  C   UNL     1      -4.884  -3.299  -7.733  1.00  0.00     0.014 C 
ATOM      3  C   UNL     1      -3.603  -2.488  -7.951  1.00  0.00     0.091 C 
ATOM      4  C   UNL     1      -5.961  -2.379  -8.286  1.00  0.00     0.041 C 
ATOM      5  C   UNL     1      -5.516  -1.038  -7.672  1.00  0.00     0.175 C 
ATOM      6  C   UNL     1      -2.514  -3.050  -7.038  1.00  0.00     0.059 C 
ATOM      7  C   UNL     1      -4.741  -4.699  -8.295  1.00  0.00     0.008 C 
ATOM      8  C   UNL     1      -2.639  -4.568  -6.784  1.00  0.00     0.143 C 
ATOM      9  C   UNL     1      -3.361  -5.291  -7.939  1.00  0.00     0.034 C 
ENDROOT
BRANCH   1  10
ATOM     10  C   UNL     1      -3.313   0.075  -7.830  1.00  0.00     0.246 C 
ATOM     11  O   UNL     1      -3.281   0.833  -6.855  1.00  0.00    -0.272 OA
BRANCH  10  12
ATOM     12  C   UNL     1      -2.523   0.398  -9.132  1.00  0.00     0.174 C 
BRANCH  12  13
ATOM     13  N   UNL     1      -1.497   1.403  -8.856  1.00  0.00    -0.342 N 
ATOM     14  C   UNL     1      -0.168   1.131  -8.620  1.00  0.00     0.249 C 
ATOM     15  O   UNL     1       0.312   0.004  -8.641  1.00  0.00    -0.272 OA
ATOM     16  H   UNL     1      -1.771   2.360  -8.652  1.00  0.00     0.164 HD
BRANCH  14  17
ATOM     17  C   UNL     1       0.660   2.404  -8.343  1.00  0.00     0.207 C 
BRANCH  17  18
ATOM     18  C   UNL     1       2.154   2.068  -8.281  1.00  0.00     0.077 C 
BRANCH  18  19
ATOM     19  C   UNL     1       2.821   2.219  -9.630  1.00  0.00    -0.043 A 
ATOM     20  C   UNL     1       3.507   3.613 -11.492  1.00  0.00     0.083 A 
ATOM     21  C   UNL     1       2.936   3.484 -10.226  1.00  0.00     0.028 A 
ATOM     22  C   UNL     1       3.964   2.483 -12.171  1.00  0.00     0.134 A 
ATOM     23  C   UNL     1       3.856   1.224 -11.593  1.00  0.00     0.048 A 
ATOM     24  C   UNL     1       3.283   1.091 -10.326  1.00  0.00     0.008 A 
ATOM     25  Cl  UNL     1       3.640   5.177 -12.208  1.00  0.00    -0.080 Cl
BRANCH  22  26
ATOM     26  O   UNL     1       4.521   2.559 -13.419  1.00  0.00    -0.506 OA
ATOM     27  H   UNL     1       4.923   1.689 -13.599  1.00  0.00     0.293 HD
ENDBRANCH  22  26
ENDBRANCH  18  19
ENDBRANCH  17  18
BRANCH  17  28
ATOM     28  O   UNL     1       0.260   3.024  -7.111  1.00  0.00    -0.383 OA
ATOM     29  H   UNL     1       0.535   3.967  -7.179  1.00  0.00     0.211 HD
ENDBRANCH  17  28
ENDBRANCH  14  17
ENDBRANCH  12  13
BRANCH  12  30
ATOM     30  C   UNL     1      -3.448   0.804 -10.310  1.00  0.00     0.018 C 
ATOM     31  C   UNL     1      -4.539   1.778  -9.838  1.00  0.00     0.010 C 
BRANCH  30  32
ATOM     32  C   UNL     1      -4.092  -0.401 -11.039  1.00  0.00     0.002 C 
ATOM     33  C   UNL     1      -5.510  -0.174 -11.546  1.00  0.00     0.004 C 
ENDBRANCH  30  32
ENDBRANCH  12  30
ENDBRANCH  10  12
ENDBRANCH   1  10
BRANCH   5  34
ATOM     34  C   UNL     1      -5.989  -0.899  -6.201  1.00  0.00     0.242 C 
ATOM     35  O   UNL     1      -5.279  -1.220  -5.248  1.00  0.00    -0.273 OA
ATOM     36  N   UNL     1      -7.278  -0.440  -6.040  1.00  0.00    -0.354 N 
ATOM     37  H   UNL     1      -7.857  -0.305  -6.869  1.00  0.00     0.163 HD
BRANCH  36  38
ATOM     38  C   UNL     1      -7.804  -0.048  -4.750  1.00  0.00     0.116 C 
BRANCH  38  39
ATOM     39  C   UNL     1      -9.032  -0.890  -4.412  1.00  0.00     0.023 C 
BRANCH  39  40
ATOM     40  C   UNL     1      -8.686  -2.110  -3.565  1.00  0.00     0.026 C 
BRANCH  40  41
ATOM     41  C   UNL     1      -8.515  -3.349  -4.444  1.00  0.00     0.146 C 
BRANCH  41  42
ATOM     42  N   UNL     1      -8.017  -4.458  -3.640  1.00  0.00    -0.254 NA
ATOM     43  C   UNL     1      -6.759  -4.691  -3.593  1.00  0.00     0.185 C 
ATOM     44  N   UNL     1      -5.738  -4.052  -4.193  1.00  0.00    -0.370 N 
ATOM     45  N   UNL     1      -6.321  -5.720  -2.850  1.00  0.00    -0.370 N 
ATOM     46  H   UNL     1      -4.834  -4.486  -4.265  1.00  0.00     0.159 HD
ATOM     47  H   UNL     1      -5.890  -3.240  -4.783  1.00  0.00     0.159 HD
ATOM     48  H   UNL     1      -7.027  -6.250  -2.356  1.00  0.00     0.159 HD
ATOM     49  H   UNL     1      -5.360  -5.821  -2.574  1.00  0.00     0.159 HD
ENDBRANCH  41  42
ENDBRANCH  40  41
ENDBRANCH  39  40
ENDBRANCH  38  39
ENDBRANCH  36  38
ENDBRANCH   5  34
BRANCH   8  50
ATOM     50  O   UNL     1      -3.363  -4.805  -5.577  1.00  0.00    -0.245 OA
BRANCH  50  51
ATOM     51  S   UNL     1      -3.311  -6.276  -4.885  1.00  0.00     0.397 S 
ATOM     52  O   UNL     1      -2.037  -6.877  -5.209  1.00  0.00    -0.169 OA
ATOM     53  O   UNL     1      -4.560  -6.969  -5.124  1.00  0.00    -0.169 OA
BRANCH  51  54
ATOM     54  O   UNL     1      -3.239  -5.909  -3.321  1.00  0.00    -0.264 OA
ATOM     55  H   UNL     1      -3.606  -6.666  -2.820  1.00  0.00     0.236 HD
ENDBRANCH  51  54
ENDBRANCH  50  51
ENDBRANCH   8  50
TORSDOF 19
ENDMDL
MODEL 34
REMARK VINA RESULT:    -6.637      2.720      5.621
REMARK INTER + INTRA:         -16.640
REMARK INTER:                 -14.212
REMARK INTRA:                  -2.428
REMARK UNBOUND:                -3.213
REMARK SMILES CC[C@@H](C)[C@@H](NC(=O)[C@@H](O)Cc1ccc(O)c(Cl)c1)C(=O)N1[C@H](C(=O)NCCCCN=C(N)N)C[C@H]2CC[C@H](OS(=O)(=O)O)C[C@@H]21
REMARK SMILES IDX 22 1 36 2 46 3 35 4 23 5 45 6 37 7 39 8 38 9 20 10 21 11
REMARK SMILES IDX 5 12 6 13 7 14 8 15 9 17 11 18 12 19 17 20 19 21 15 22 14 23
REMARK SMILES IDX 13 24 18 25 16 26 10 28 3 30 4 31 2 32 1 33 24 34 25 35
REMARK SMILES IDX 26 36 27 38 28 39 29 40 30 41 31 42 32 43 33 44 34 45 40 50
REMARK SMILES IDX 41 51 42 52 43 53 44 54
REMARK H PARENT 6 16 16 27 10 29 26 37 33 46 33 47 34 48 34 49 44 55
ROOT
ATOM      1  N   UNL     1      -6.382  -3.352  -0.764  1.00  0.00    -0.326 N 
ATOM      2  C   UNL     1      -6.491  -4.612   1.222  1.00  0.00     0.014 C 
ATOM      3  C   UNL     1      -7.271  -3.603   0.374  1.00  0.00     0.091 C 
ATOM      4  C   UNL     1      -5.048  -4.177   1.016  1.00  0.00     0.041 C 
ATOM      5  C   UNL     1      -5.047  -3.947  -0.507  1.00  0.00     0.175 C 
ATOM      6  C   UNL     1      -8.659  -4.178   0.096  1.00  0.00     0.059 C 
ATOM      7  C   UNL     1      -7.051  -4.687   2.628  1.00  0.00     0.008 C 
ATOM      8  C   UNL     1      -9.199  -5.076   1.230  1.00  0.00     0.143 C 
ATOM      9  C   UNL     1      -8.594  -4.706   2.599  1.00  0.00     0.034 C 
ENDROOT
BRANCH   1  10
ATOM     10  C   UNL     1      -6.547  -2.509  -1.850  1.00  0.00     0.246 C 
ATOM     11  O   UNL     1      -5.791  -1.540  -1.980  1.00  0.00    -0.272 OA
BRANCH  10  12
ATOM     12  C   UNL     1      -7.649  -2.823  -2.903  1.00  0.00     0.174 C 
BRANCH  12  13
ATOM     13  N   UNL     1      -7.040  -3.380  -4.111  1.00  0.00    -0.342 N 
ATOM     14  C   UNL     1      -7.435  -4.545  -4.729  1.00  0.00     0.249 C 
ATOM     15  O   UNL     1      -8.369  -5.238  -4.347  1.00  0.00    -0.272 OA
ATOM     16  H   UNL     1      -6.160  -3.001  -4.451  1.00  0.00     0.164 HD
BRANCH  14  17
ATOM     17  C   UNL     1      -6.584  -4.875  -5.974  1.00  0.00     0.207 C 
BRANCH  17  18
ATOM     18  C   UNL     1      -6.382  -3.623  -6.833  1.00  0.00     0.077 C 
BRANCH  18  19
ATOM     19  C   UNL     1      -5.000  -3.578  -7.445  1.00  0.00    -0.043 A 
ATOM     20  C   UNL     1      -3.569  -3.431  -9.398  1.00  0.00     0.083 A 
ATOM     21  C   UNL     1      -4.844  -3.422  -8.831  1.00  0.00     0.028 A 
ATOM     22  C   UNL     1      -2.445  -3.597  -8.588  1.00  0.00     0.134 A 
ATOM     23  C   UNL     1      -2.585  -3.752  -7.214  1.00  0.00     0.048 A 
ATOM     24  C   UNL     1      -3.860  -3.746  -6.643  1.00  0.00     0.008 A 
ATOM     25  Cl  UNL     1      -3.397  -3.238 -11.103  1.00  0.00    -0.080 Cl
BRANCH  22  26
ATOM     26  O   UNL     1      -1.176  -3.623  -9.099  1.00  0.00    -0.506 OA
ATOM     27  H   UNL     1      -1.166  -3.008  -9.856  1.00  0.00     0.293 HD
ENDBRANCH  22  26
ENDBRANCH  18  19
ENDBRANCH  17  18
BRANCH  17  28
ATOM     28  O   UNL     1      -7.203  -5.901  -6.767  1.00  0.00    -0.383 OA
ATOM     29  H   UNL     1      -7.266  -6.693  -6.185  1.00  0.00     0.211 HD
ENDBRANCH  17  28
ENDBRANCH  14  17
ENDBRANCH  12  13
BRANCH  12  30
ATOM     30  C   UNL     1      -8.555  -1.599  -3.206  1.00  0.00     0.018 C 
ATOM     31  C   UNL     1      -9.884  -1.701  -2.442  1.00  0.00     0.010 C 
BRANCH  30  32
ATOM     32  C   UNL     1      -8.824  -1.384  -4.716  1.00  0.00     0.002 C 
ATOM     33  C   UNL     1      -8.188  -0.139  -5.320  1.00  0.00     0.004 C 
ENDBRANCH  30  32
ENDBRANCH  12  30
ENDBRANCH  10  12
ENDBRANCH   1  10
BRANCH   5  34
ATOM     34  C   UNL     1      -4.879  -5.278  -1.286  1.00  0.00     0.242 C 
ATOM     35  O   UNL     1      -5.132  -6.372  -0.782  1.00  0.00    -0.273 OA
ATOM     36  N   UNL     1      -4.377  -5.151  -2.562  1.00  0.00    -0.354 N 
ATOM     37  H   UNL     1      -4.074  -4.230  -2.881  1.00  0.00     0.163 HD
BRANCH  36  38
ATOM     38  C   UNL     1      -4.359  -6.254  -3.500  1.00  0.00     0.116 C 
BRANCH  38  39
ATOM     39  C   UNL     1      -2.977  -6.368  -4.139  1.00  0.00     0.023 C 
BRANCH  39  40
ATOM     40  C   UNL     1      -2.819  -7.643  -4.961  1.00  0.00     0.026 C 
BRANCH  40  41
ATOM     41  C   UNL     1      -3.053  -7.364  -6.445  1.00  0.00     0.146 C 
BRANCH  41  42
ATOM     42  N   UNL     1      -4.446  -7.627  -6.782  1.00  0.00    -0.254 NA
ATOM     43  C   UNL     1      -4.757  -7.949  -7.981  1.00  0.00     0.185 C 
ATOM     44  N   UNL     1      -3.976  -8.102  -9.067  1.00  0.00    -0.370 N 
ATOM     45  N   UNL     1      -6.047  -8.183  -8.273  1.00  0.00    -0.370 N 
ATOM     46  H   UNL     1      -4.378  -8.116  -9.989  1.00  0.00     0.159 HD
ATOM     47  H   UNL     1      -2.970  -7.976  -9.022  1.00  0.00     0.159 HD
ATOM     48  H   UNL     1      -6.702  -8.098  -7.507  1.00  0.00     0.159 HD
ATOM     49  H   UNL     1      -6.338  -8.662  -9.106  1.00  0.00     0.159 HD
ENDBRANCH  41  42
ENDBRANCH  40  41
ENDBRANCH  39  40
ENDBRANCH  38  39
ENDBRANCH  36  38
ENDBRANCH   5  34
BRANCH   8  50
ATOM     50  O   UNL     1      -8.899  -6.445   0.957  1.00  0.00    -0.245 OA
BRANCH  50  51
ATOM     51  S   UNL     1      -8.935  -6.984  -0.577  1.00  0.00     0.397 S 
ATOM     52  O   UNL     1      -8.383  -5.953  -1.427  1.00  0.00    -0.169 OA
ATOM     53  O   UNL     1     -10.225  -7.584  -0.851  1.00  0.00    -0.169 OA
BRANCH  51  54
ATOM     54  O   UNL     1      -7.839  -8.159  -0.546  1.00  0.00    -0.264 OA
ATOM     55  H   UNL     1      -6.994  -7.772  -0.238  1.00  0.00     0.236 HD
ENDBRANCH  51  54
ENDBRANCH  50  51
ENDBRANCH   8  50
TORSDOF 19
ENDMDL
MODEL 35
REMARK VINA RESULT:    -6.581      8.993     13.163
REMARK INTER + INTRA:         -16.527
REMARK INTER:                 -12.490
REMARK INTRA:                  -4.037
REMARK UNBOUND:                -3.213
REMARK SMILES CC[C@@H](C)[C@@H](NC(=O)[C@@H](O)Cc1ccc(O)c(Cl)c1)C(=O)N1[C@H](C(=O)NCCCCN=C(N)N)C[C@H]2CC[C@H](OS(=O)(=O)O)C[C@@H]21
REMARK SMILES IDX 22 1 36 2 46 3 35 4 23 5 45 6 37 7 39 8 38 9 20 10 21 11
REMARK SMILES IDX 5 12 6 13 7 14 8 15 9 17 11 18 12 19 17 20 19 21 15 22 14 23
REMARK SMILES IDX 13 24 18 25 16 26 10 28 3 30 4 31 2 32 1 33 24 34 25 35
REMARK SMILES IDX 26 36 27 38 28 39 29 40 30 41 31 42 32 43 33 44 34 45 40 50
REMARK SMILES IDX 41 51 42 52 43 53 44 54
REMARK H PARENT 6 16 16 27 10 29 26 37 33 46 33 47 34 48 34 49 44 55
ROOT
ATOM      1  N   UNL     1      -8.956  -5.858   5.823  1.00  0.00    -0.326 N 
ATOM      2  C   UNL     1     -11.014  -5.698   4.691  1.00  0.00     0.014 C 
ATOM      3  C   UNL     1      -9.884  -4.856   5.290  1.00  0.00     0.091 C 
ATOM      4  C   UNL     1     -11.086  -6.885   5.639  1.00  0.00     0.041 C 
ATOM      5  C   UNL     1      -9.587  -7.200   5.796  1.00  0.00     0.175 C 
ATOM      6  C   UNL     1      -9.375  -3.896   4.216  1.00  0.00     0.059 C 
ATOM      7  C   UNL     1     -12.252  -4.856   4.457  1.00  0.00     0.008 C 
ATOM      8  C   UNL     1     -10.465  -3.442   3.221  1.00  0.00     0.143 C 
ATOM      9  C   UNL     1     -11.875  -3.491   3.845  1.00  0.00     0.034 C 
ENDROOT
BRANCH   1  10
ATOM     10  C   UNL     1      -7.758  -5.689   6.496  1.00  0.00     0.246 C 
ATOM     11  O   UNL     1      -6.702  -5.988   5.929  1.00  0.00    -0.272 OA
BRANCH  10  12
ATOM     12  C   UNL     1      -7.764  -5.088   7.932  1.00  0.00     0.174 C 
BRANCH  12  13
ATOM     13  N   UNL     1      -9.138  -4.817   8.353  1.00  0.00    -0.342 N 
ATOM     14  C   UNL     1      -9.727  -5.313   9.495  1.00  0.00     0.249 C 
ATOM     15  O   UNL     1      -9.148  -6.023  10.308  1.00  0.00    -0.272 OA
ATOM     16  H   UNL     1      -9.785  -4.375   7.706  1.00  0.00     0.164 HD
BRANCH  14  17
ATOM     17  C   UNL     1     -11.194  -4.860   9.653  1.00  0.00     0.207 C 
BRANCH  17  18
ATOM     18  C   UNL     1     -11.655  -4.093   8.409  1.00  0.00     0.077 C 
BRANCH  18  19
ATOM     19  C   UNL     1     -13.151  -4.187   8.213  1.00  0.00    -0.043 A 
ATOM     20  C   UNL     1     -15.387  -3.364   8.670  1.00  0.00     0.083 A 
ATOM     21  C   UNL     1     -14.004  -3.246   8.812  1.00  0.00     0.028 A 
ATOM     22  C   UNL     1     -15.926  -4.420   7.934  1.00  0.00     0.134 A 
ATOM     23  C   UNL     1     -15.093  -5.358   7.336  1.00  0.00     0.048 A 
ATOM     24  C   UNL     1     -13.708  -5.244   7.477  1.00  0.00     0.008 A 
ATOM     25  Cl  UNL     1     -16.419  -2.199   9.413  1.00  0.00    -0.080 Cl
BRANCH  22  26
ATOM     26  O   UNL     1     -17.276  -4.583   7.776  1.00  0.00    -0.506 OA
ATOM     27  H   UNL     1     -17.406  -5.455   7.360  1.00  0.00     0.293 HD
ENDBRANCH  22  26
ENDBRANCH  18  19
ENDBRANCH  17  18
BRANCH  17  28
ATOM     28  O   UNL     1     -11.357  -4.028  10.813  1.00  0.00    -0.383 OA
ATOM     29  H   UNL     1     -10.633  -4.279  11.431  1.00  0.00     0.211 HD
ENDBRANCH  17  28
ENDBRANCH  14  17
ENDBRANCH  12  13
BRANCH  12  30
ATOM     30  C   UNL     1      -6.847  -3.843   8.065  1.00  0.00     0.018 C 
ATOM     31  C   UNL     1      -6.340  -3.690   9.508  1.00  0.00     0.010 C 
BRANCH  30  32
ATOM     32  C   UNL     1      -7.512  -2.528   7.592  1.00  0.00     0.002 C 
ATOM     33  C   UNL     1      -6.661  -1.662   6.672  1.00  0.00     0.004 C 
ENDBRANCH  30  32
ENDBRANCH  12  30
ENDBRANCH  10  12
ENDBRANCH   1  10
BRANCH   5  34
ATOM     34  C   UNL     1      -9.051  -8.037   4.604  1.00  0.00     0.242 C 
ATOM     35  O   UNL     1      -9.435  -9.185   4.380  1.00  0.00    -0.273 OA
ATOM     36  N   UNL     1      -8.077  -7.424   3.849  1.00  0.00    -0.354 N 
ATOM     37  H   UNL     1      -7.714  -6.520   4.155  1.00  0.00     0.163 HD
BRANCH  36  38
ATOM     38  C   UNL     1      -7.623  -7.965   2.585  1.00  0.00     0.116 C 
BRANCH  38  39
ATOM     39  C   UNL     1      -8.270  -7.201   1.432  1.00  0.00     0.023 C 
BRANCH  39  40
ATOM     40  C   UNL     1      -7.241  -6.536   0.523  1.00  0.00     0.026 C 
BRANCH  40  41
ATOM     41  C   UNL     1      -6.702  -5.256   1.161  1.00  0.00     0.146 C 
BRANCH  41  42
ATOM     42  N   UNL     1      -5.837  -4.561   0.216  1.00  0.00    -0.254 NA
ATOM     43  C   UNL     1      -6.218  -3.450  -0.292  1.00  0.00     0.185 C 
ATOM     44  N   UNL     1      -7.354  -2.754  -0.099  1.00  0.00    -0.370 N 
ATOM     45  N   UNL     1      -5.408  -2.828  -1.164  1.00  0.00    -0.370 N 
ATOM     46  H   UNL     1      -7.627  -2.031  -0.742  1.00  0.00     0.159 HD
ATOM     47  H   UNL     1      -8.073  -3.075   0.542  1.00  0.00     0.159 HD
ATOM     48  H   UNL     1      -4.526  -3.282  -1.359  1.00  0.00     0.159 HD
ATOM     49  H   UNL     1      -5.521  -1.862  -1.418  1.00  0.00     0.159 HD
ENDBRANCH  41  42
ENDBRANCH  40  41
ENDBRANCH  39  40
ENDBRANCH  38  39
ENDBRANCH  36  38
ENDBRANCH   5  34
BRANCH   8  50
ATOM     50  O   UNL     1     -10.453  -4.279   2.064  1.00  0.00    -0.245 OA
BRANCH  50  51
ATOM     51  S   UNL     1     -10.637  -3.614   0.591  1.00  0.00     0.397 S 
ATOM     52  O   UNL     1      -9.984  -4.474  -0.371  1.00  0.00    -0.169 OA
ATOM     53  O   UNL     1     -10.351  -2.196   0.659  1.00  0.00    -0.169 OA
BRANCH  51  54
ATOM     54  O   UNL     1     -12.215  -3.791   0.338  1.00  0.00    -0.264 OA
ATOM     55  H   UNL     1     -12.684  -3.443   1.123  1.00  0.00     0.236 HD
ENDBRANCH  51  54
ENDBRANCH  50  51
ENDBRANCH   8  50
TORSDOF 19
ENDMDL
MODEL 36
REMARK VINA RESULT:    -6.565      4.403      9.294
REMARK INTER + INTRA:         -16.493
REMARK INTER:                 -13.664
REMARK INTRA:                  -2.830
REMARK UNBOUND:                -3.213
REMARK SMILES CC[C@@H](C)[C@@H](NC(=O)[C@@H](O)Cc1ccc(O)c(Cl)c1)C(=O)N1[C@H](C(=O)NCCCCN=C(N)N)C[C@H]2CC[C@H](OS(=O)(=O)O)C[C@@H]21
REMARK SMILES IDX 22 1 36 2 46 3 35 4 23 5 45 6 37 7 39 8 38 9 20 10 21 11
REMARK SMILES IDX 5 12 6 13 7 14 8 15 9 17 11 18 12 19 17 20 19 21 15 22 14 23
REMARK SMILES IDX 13 24 18 25 16 26 10 28 3 30 4 31 2 32 1 33 24 34 25 35
REMARK SMILES IDX 26 36 27 38 28 39 29 40 30 41 31 42 32 43 33 44 34 45 40 50
REMARK SMILES IDX 41 51 42 52 43 53 44 54
REMARK H PARENT 6 16 16 27 10 29 26 37 33 46 33 47 34 48 34 49 44 55
ROOT
ATOM      1  N   UNL     1      -7.842  -2.930  -4.371  1.00  0.00    -0.326 N 
ATOM      2  C   UNL     1      -6.542  -3.810  -6.125  1.00  0.00     0.014 C 
ATOM      3  C   UNL     1      -7.357  -2.582  -5.710  1.00  0.00     0.091 C 
ATOM      4  C   UNL     1      -7.314  -4.955  -5.488  1.00  0.00     0.041 C 
ATOM      5  C   UNL     1      -7.576  -4.363  -4.091  1.00  0.00     0.175 C 
ATOM      6  C   UNL     1      -6.475  -1.344  -5.861  1.00  0.00     0.059 C 
ATOM      7  C   UNL     1      -6.300  -3.819  -7.622  1.00  0.00     0.008 C 
ATOM      8  C   UNL     1      -5.446  -1.450  -7.007  1.00  0.00     0.143 C 
ATOM      9  C   UNL     1      -5.914  -2.410  -8.119  1.00  0.00     0.034 C 
ENDROOT
BRANCH   1  10
ATOM     10  C   UNL     1      -8.648  -2.211  -3.505  1.00  0.00     0.246 C 
ATOM     11  O   UNL     1      -9.192  -2.798  -2.563  1.00  0.00    -0.272 OA
BRANCH  10  12
ATOM     12  C   UNL     1      -8.818  -0.678  -3.709  1.00  0.00     0.174 C 
BRANCH  12  13
ATOM     13  N   UNL     1      -8.479   0.030  -2.474  1.00  0.00    -0.342 N 
ATOM     14  C   UNL     1      -7.201   0.245  -2.012  1.00  0.00     0.249 C 
ATOM     15  O   UNL     1      -6.191  -0.113  -2.606  1.00  0.00    -0.272 OA
ATOM     16  H   UNL     1      -9.211   0.246  -1.801  1.00  0.00     0.164 HD
BRANCH  14  17
ATOM     17  C   UNL     1      -7.173   1.008  -0.670  1.00  0.00     0.207 C 
BRANCH  17  18
ATOM     18  C   UNL     1      -8.319   2.022  -0.607  1.00  0.00     0.077 C 
BRANCH  18  19
ATOM     19  C   UNL     1      -8.839   2.196   0.802  1.00  0.00    -0.043 A 
ATOM     20  C   UNL     1     -10.198   3.403   2.408  1.00  0.00     0.083 A 
ATOM     21  C   UNL     1      -9.758   3.215   1.098  1.00  0.00     0.028 A 
ATOM     22  C   UNL     1      -9.724   2.579   3.430  1.00  0.00     0.134 A 
ATOM     23  C   UNL     1      -8.814   1.566   3.151  1.00  0.00     0.048 A 
ATOM     24  C   UNL     1      -8.370   1.376   1.840  1.00  0.00     0.008 A 
ATOM     25  Cl  UNL     1     -11.327   4.661   2.751  1.00  0.00    -0.080 Cl
BRANCH  22  26
ATOM     26  O   UNL     1     -10.118   2.733   4.731  1.00  0.00    -0.506 OA
ATOM     27  H   UNL     1      -9.781   1.958   5.219  1.00  0.00     0.293 HD
ENDBRANCH  22  26
ENDBRANCH  18  19
ENDBRANCH  17  18
BRANCH  17  28
ATOM     28  O   UNL     1      -5.922   1.690  -0.488  1.00  0.00    -0.383 OA
ATOM     29  H   UNL     1      -6.101   2.640  -0.673  1.00  0.00     0.211 HD
ENDBRANCH  17  28
ENDBRANCH  14  17
ENDBRANCH  12  13
BRANCH  12  30
ATOM     30  C   UNL     1     -10.224  -0.296  -4.244  1.00  0.00     0.018 C 
ATOM     31  C   UNL     1     -10.113   0.711  -5.400  1.00  0.00     0.010 C 
BRANCH  30  32
ATOM     32  C   UNL     1     -11.177   0.250  -3.153  1.00  0.00     0.002 C 
ATOM     33  C   UNL     1     -12.026  -0.799  -2.447  1.00  0.00     0.004 C 
ENDBRANCH  30  32
ENDBRANCH  12  30
ENDBRANCH  10  12
ENDBRANCH   1  10
BRANCH   5  34
ATOM     34  C   UNL     1      -6.343  -4.522  -3.161  1.00  0.00     0.242 C 
ATOM     35  O   UNL     1      -5.966  -3.623  -2.410  1.00  0.00    -0.273 OA
ATOM     36  N   UNL     1      -5.672  -5.718  -3.278  1.00  0.00    -0.354 N 
ATOM     37  H   UNL     1      -5.962  -6.375  -4.004  1.00  0.00     0.163 HD
BRANCH  36  38
ATOM     38  C   UNL     1      -4.640  -6.120  -2.345  1.00  0.00     0.116 C 
BRANCH  38  39
ATOM     39  C   UNL     1      -3.659  -7.066  -3.033  1.00  0.00     0.023 C 
BRANCH  39  40
ATOM     40  C   UNL     1      -2.639  -6.324  -3.890  1.00  0.00     0.026 C 
BRANCH  40  41
ATOM     41  C   UNL     1      -2.462  -7.014  -5.242  1.00  0.00     0.146 C 
BRANCH  41  42
ATOM     42  N   UNL     1      -3.766  -7.366  -5.789  1.00  0.00    -0.254 NA
ATOM     43  C   UNL     1      -4.102  -6.941  -6.949  1.00  0.00     0.185 C 
ATOM     44  N   UNL     1      -3.422  -6.172  -7.819  1.00  0.00    -0.370 N 
ATOM     45  N   UNL     1      -5.310  -7.273  -7.433  1.00  0.00    -0.370 N 
ATOM     46  H   UNL     1      -3.896  -5.715  -8.579  1.00  0.00     0.159 HD
ATOM     47  H   UNL     1      -2.483  -5.841  -7.618  1.00  0.00     0.159 HD
ATOM     48  H   UNL     1      -5.884  -7.859  -6.843  1.00  0.00     0.159 HD
ATOM     49  H   UNL     1      -5.549  -7.184  -8.405  1.00  0.00     0.159 HD
ENDBRANCH  41  42
ENDBRANCH  40  41
ENDBRANCH  39  40
ENDBRANCH  38  39
ENDBRANCH  36  38
ENDBRANCH   5  34
BRANCH   8  50
ATOM     50  O   UNL     1      -4.195  -1.919  -6.501  1.00  0.00    -0.245 OA
BRANCH  50  51
ATOM     51  S   UNL     1      -2.853  -1.029  -6.730  1.00  0.00     0.397 S 
ATOM     52  O   UNL     1      -1.767  -1.932  -7.041  1.00  0.00    -0.169 OA
ATOM     53  O   UNL     1      -2.740  -0.040  -5.678  1.00  0.00    -0.169 OA
BRANCH  51  54
ATOM     54  O   UNL     1      -3.189  -0.260  -8.101  1.00  0.00    -0.264 OA
ATOM     55  H   UNL     1      -2.436   0.332  -8.304  1.00  0.00     0.236 HD
ENDBRANCH  51  54
ENDBRANCH  50  51
ENDBRANCH   8  50
TORSDOF 19
ENDMDL
MODEL 37
REMARK VINA RESULT:    -6.559      6.175     10.686
REMARK INTER + INTRA:         -16.483
REMARK INTER:                 -13.102
REMARK INTRA:                  -3.381
REMARK UNBOUND:                -3.213
REMARK SMILES CC[C@@H](C)[C@@H](NC(=O)[C@@H](O)Cc1ccc(O)c(Cl)c1)C(=O)N1[C@H](C(=O)NCCCCN=C(N)N)C[C@H]2CC[C@H](OS(=O)(=O)O)C[C@@H]21
REMARK SMILES IDX 22 1 36 2 46 3 35 4 23 5 45 6 37 7 39 8 38 9 20 10 21 11
REMARK SMILES IDX 5 12 6 13 7 14 8 15 9 17 11 18 12 19 17 20 19 21 15 22 14 23
REMARK SMILES IDX 13 24 18 25 16 26 10 28 3 30 4 31 2 32 1 33 24 34 25 35
REMARK SMILES IDX 26 36 27 38 28 39 29 40 30 41 31 42 32 43 33 44 34 45 40 50
REMARK SMILES IDX 41 51 42 52 43 53 44 54
REMARK H PARENT 6 16 16 27 10 29 26 37 33 46 33 47 34 48 34 49 44 55
ROOT
ATOM      1  N   UNL     1      -7.867  -5.281   1.004  1.00  0.00    -0.326 N 
ATOM      2  C   UNL     1      -5.740  -5.772   1.885  1.00  0.00     0.014 C 
ATOM      3  C   UNL     1      -7.130  -6.370   1.652  1.00  0.00     0.091 C 
ATOM      4  C   UNL     1      -6.047  -4.312   2.178  1.00  0.00     0.041 C 
ATOM      5  C   UNL     1      -7.081  -4.024   1.074  1.00  0.00     0.175 C 
ATOM      6  C   UNL     1      -6.970  -7.687   0.895  1.00  0.00     0.059 C 
ATOM      7  C   UNL     1      -4.963  -6.587   2.900  1.00  0.00     0.008 C 
ATOM      8  C   UNL     1      -5.663  -8.439   1.226  1.00  0.00     0.143 C 
ATOM      9  C   UNL     1      -5.140  -8.097   2.636  1.00  0.00     0.034 C 
ENDROOT
BRANCH   1  10
ATOM     10  C   UNL     1      -9.182  -5.231   0.575  1.00  0.00     0.246 C 
ATOM     11  O   UNL     1      -9.535  -5.948  -0.367  1.00  0.00    -0.272 OA
BRANCH  10  12
ATOM     12  C   UNL     1     -10.195  -4.308   1.314  1.00  0.00     0.174 C 
BRANCH  12  13
ATOM     13  N   UNL     1     -10.846  -5.047   2.395  1.00  0.00    -0.342 N 
ATOM     14  C   UNL     1     -10.369  -5.145   3.683  1.00  0.00     0.249 C 
ATOM     15  O   UNL     1      -9.349  -4.594   4.077  1.00  0.00    -0.272 OA
ATOM     16  H   UNL     1     -11.613  -5.680   2.183  1.00  0.00     0.164 HD
BRANCH  14  17
ATOM     17  C   UNL     1     -11.272  -6.009   4.588  1.00  0.00     0.207 C 
BRANCH  17  18
ATOM     18  C   UNL     1     -10.612  -7.363   4.868  1.00  0.00     0.077 C 
BRANCH  18  19
ATOM     19  C   UNL     1      -9.921  -7.384   6.213  1.00  0.00    -0.043 A 
ATOM     20  C   UNL     1      -9.985  -7.049   8.615  1.00  0.00     0.083 A 
ATOM     21  C   UNL     1     -10.636  -7.077   7.381  1.00  0.00     0.028 A 
ATOM     22  C   UNL     1      -8.619  -7.325   8.689  1.00  0.00     0.134 A 
ATOM     23  C   UNL     1      -7.899  -7.631   7.541  1.00  0.00     0.048 A 
ATOM     24  C   UNL     1      -8.548  -7.658   6.304  1.00  0.00     0.008 A 
ATOM     25  Cl  UNL     1     -10.880  -6.669  10.039  1.00  0.00    -0.080 Cl
BRANCH  22  26
ATOM     26  O   UNL     1      -7.935  -7.299   9.875  1.00  0.00    -0.506 OA
ATOM     27  H   UNL     1      -7.498  -8.167   9.965  1.00  0.00     0.293 HD
ENDBRANCH  22  26
ENDBRANCH  18  19
ENDBRANCH  17  18
BRANCH  17  28
ATOM     28  O   UNL     1     -12.558  -6.222   3.984  1.00  0.00    -0.383 OA
ATOM     29  H   UNL     1     -12.578  -7.168   3.713  1.00  0.00     0.211 HD
ENDBRANCH  17  28
ENDBRANCH  14  17
ENDBRANCH  12  13
BRANCH  12  30
ATOM     30  C   UNL     1     -11.217  -3.647   0.350  1.00  0.00     0.018 C 
ATOM     31  C   UNL     1     -10.535  -2.579  -0.520  1.00  0.00     0.010 C 
BRANCH  30  32
ATOM     32  C   UNL     1     -12.447  -3.041   1.069  1.00  0.00     0.002 C 
ATOM     33  C   UNL     1     -13.259  -2.049   0.246  1.00  0.00     0.004 C 
ENDBRANCH  30  32
ENDBRANCH  12  30
ENDBRANCH  10  12
ENDBRANCH   1  10
BRANCH   5  34
ATOM     34  C   UNL     1      -6.396  -3.727  -0.287  1.00  0.00     0.242 C 
ATOM     35  O   UNL     1      -5.393  -3.019  -0.378  1.00  0.00    -0.273 OA
ATOM     36  N   UNL     1      -7.022  -4.268  -1.388  1.00  0.00    -0.354 N 
ATOM     37  H   UNL     1      -7.916  -4.744  -1.260  1.00  0.00     0.163 HD
BRANCH  36  38
ATOM     38  C   UNL     1      -6.410  -4.274  -2.700  1.00  0.00     0.116 C 
BRANCH  38  39
ATOM     39  C   UNL     1      -7.440  -3.876  -3.755  1.00  0.00     0.023 C 
BRANCH  39  40
ATOM     40  C   UNL     1      -8.312  -2.708  -3.306  1.00  0.00     0.026 C 
BRANCH  40  41
ATOM     41  C   UNL     1      -7.651  -1.374  -3.652  1.00  0.00     0.146 C 
BRANCH  41  42
ATOM     42  N   UNL     1      -7.803  -0.446  -2.539  1.00  0.00    -0.254 NA
ATOM     43  C   UNL     1      -6.793  -0.170  -1.802  1.00  0.00     0.185 C 
ATOM     44  N   UNL     1      -5.523  -0.612  -1.874  1.00  0.00    -0.370 N 
ATOM     45  N   UNL     1      -6.954   0.684  -0.778  1.00  0.00    -0.370 N 
ATOM     46  H   UNL     1      -4.899  -0.506  -1.092  1.00  0.00     0.159 HD
ATOM     47  H   UNL     1      -5.223  -1.255  -2.599  1.00  0.00     0.159 HD
ATOM     48  H   UNL     1      -7.881   1.070  -0.659  1.00  0.00     0.159 HD
ATOM     49  H   UNL     1      -6.182   1.127  -0.313  1.00  0.00     0.159 HD
ENDBRANCH  41  42
ENDBRANCH  40  41
ENDBRANCH  39  40
ENDBRANCH  38  39
ENDBRANCH  36  38
ENDBRANCH   5  34
BRANCH   8  50
ATOM     50  O   UNL     1      -4.652  -8.107   0.275  1.00  0.00    -0.245 OA
BRANCH  50  51
ATOM     51  S   UNL     1      -4.735  -8.716  -1.231  1.00  0.00     0.397 S 
ATOM     52  O   UNL     1      -5.049  -7.632  -2.135  1.00  0.00    -0.169 OA
ATOM     53  O   UNL     1      -5.507  -9.942  -1.218  1.00  0.00    -0.169 OA
BRANCH  51  54
ATOM     54  O   UNL     1      -3.201  -9.100  -1.523  1.00  0.00    -0.264 OA
ATOM     55  H   UNL     1      -2.702  -8.993  -0.688  1.00  0.00     0.236 HD
ENDBRANCH  51  54
ENDBRANCH  50  51
ENDBRANCH   8  50
TORSDOF 19
ENDMDL
MODEL 38
REMARK VINA RESULT:    -6.551      7.190     10.719
REMARK INTER + INTRA:         -16.466
REMARK INTER:                 -12.395
REMARK INTRA:                  -4.071
REMARK UNBOUND:                -3.213
REMARK SMILES CC[C@@H](C)[C@@H](NC(=O)[C@@H](O)Cc1ccc(O)c(Cl)c1)C(=O)N1[C@H](C(=O)NCCCCN=C(N)N)C[C@H]2CC[C@H](OS(=O)(=O)O)C[C@@H]21
REMARK SMILES IDX 22 1 36 2 46 3 35 4 23 5 45 6 37 7 39 8 38 9 20 10 21 11
REMARK SMILES IDX 5 12 6 13 7 14 8 15 9 17 11 18 12 19 17 20 19 21 15 22 14 23
REMARK SMILES IDX 13 24 18 25 16 26 10 28 3 30 4 31 2 32 1 33 24 34 25 35
REMARK SMILES IDX 26 36 27 38 28 39 29 40 30 41 31 42 32 43 33 44 34 45 40 50
REMARK SMILES IDX 41 51 42 52 43 53 44 54
REMARK H PARENT 6 16 16 27 10 29 26 37 33 46 33 47 34 48 34 49 44 55
ROOT
ATOM      1  N   UNL     1      -2.201  -0.192  -8.862  1.00  0.00    -0.326 N 
ATOM      2  C   UNL     1      -4.444   0.164  -8.242  1.00  0.00     0.014 C 
ATOM      3  C   UNL     1      -3.348   0.659  -9.190  1.00  0.00     0.091 C 
ATOM      4  C   UNL     1      -3.661  -0.212  -6.993  1.00  0.00     0.041 C 
ATOM      5  C   UNL     1      -2.480  -0.968  -7.629  1.00  0.00     0.175 C 
ATOM      6  C   UNL     1      -3.892   0.624 -10.617  1.00  0.00     0.059 C 
ATOM      7  C   UNL     1      -5.569   1.174  -8.138  1.00  0.00     0.008 C 
ATOM      8  C   UNL     1      -5.411   0.887 -10.710  1.00  0.00     0.143 C 
ATOM      9  C   UNL     1      -5.925   1.737  -9.530  1.00  0.00     0.034 C 
ENDROOT
BRANCH   1  10
ATOM     10  C   UNL     1      -0.918  -0.193  -9.385  1.00  0.00     0.246 C 
ATOM     11  O   UNL     1      -0.638  -0.987 -10.289  1.00  0.00    -0.272 OA
BRANCH  10  12
ATOM     12  C   UNL     1       0.127   0.831  -8.854  1.00  0.00     0.174 C 
BRANCH  12  13
ATOM     13  N   UNL     1      -0.339   2.194  -9.103  1.00  0.00    -0.342 N 
ATOM     14  C   UNL     1      -0.823   3.052  -8.141  1.00  0.00     0.249 C 
ATOM     15  O   UNL     1      -0.891   2.773  -6.951  1.00  0.00    -0.272 OA
ATOM     16  H   UNL     1      -0.489   2.509 -10.059  1.00  0.00     0.164 HD
BRANCH  14  17
ATOM     17  C   UNL     1      -1.253   4.416  -8.722  1.00  0.00     0.207 C 
BRANCH  17  18
ATOM     18  C   UNL     1      -2.667   4.329  -9.304  1.00  0.00     0.077 C 
BRANCH  18  19
ATOM     19  C   UNL     1      -3.660   5.129  -8.491  1.00  0.00    -0.043 A 
ATOM     20  C   UNL     1      -5.529   6.672  -8.381  1.00  0.00     0.083 A 
ATOM     21  C   UNL     1      -4.646   5.896  -9.132  1.00  0.00     0.028 A 
ATOM     22  C   UNL     1      -5.433   6.689  -6.989  1.00  0.00     0.134 A 
ATOM     23  C   UNL     1      -4.462   5.934  -6.341  1.00  0.00     0.048 A 
ATOM     24  C   UNL     1      -3.575   5.157  -7.091  1.00  0.00     0.008 A 
ATOM     25  Cl  UNL     1      -6.732   7.608  -9.187  1.00  0.00    -0.080 Cl
BRANCH  22  26
ATOM     26  O   UNL     1      -6.270   7.442  -6.210  1.00  0.00    -0.506 OA
ATOM     27  H   UNL     1      -7.006   7.725  -6.783  1.00  0.00     0.293 HD
ENDBRANCH  22  26
ENDBRANCH  18  19
ENDBRANCH  17  18
BRANCH  17  28
ATOM     28  O   UNL     1      -0.343   4.854  -9.744  1.00  0.00    -0.383 OA
ATOM     29  H   UNL     1      -0.219   5.820  -9.603  1.00  0.00     0.211 HD
ENDBRANCH  17  28
ENDBRANCH  14  17
ENDBRANCH  12  13
BRANCH  12  30
ATOM     30  C   UNL     1       1.552   0.580  -9.417  1.00  0.00     0.018 C 
ATOM     31  C   UNL     1       2.611   0.745  -8.316  1.00  0.00     0.010 C 
BRANCH  30  32
ATOM     32  C   UNL     1       1.905   1.469 -10.633  1.00  0.00     0.002 C 
ATOM     33  C   UNL     1       3.384   1.798 -10.792  1.00  0.00     0.004 C 
ENDBRANCH  30  32
ENDBRANCH  12  30
ENDBRANCH  10  12
ENDBRANCH   1  10
BRANCH   5  34
ATOM     34  C   UNL     1      -2.857  -2.433  -7.974  1.00  0.00     0.242 C 
ATOM     35  O   UNL     1      -3.152  -2.785  -9.116  1.00  0.00    -0.273 OA
ATOM     36  N   UNL     1      -2.891  -3.297  -6.902  1.00  0.00    -0.354 N 
ATOM     37  H   UNL     1      -2.755  -2.921  -5.963  1.00  0.00     0.163 HD
BRANCH  36  38
ATOM     38  C   UNL     1      -3.011  -4.731  -7.069  1.00  0.00     0.116 C 
BRANCH  38  39
ATOM     39  C   UNL     1      -4.334  -5.212  -6.478  1.00  0.00     0.023 C 
BRANCH  39  40
ATOM     40  C   UNL     1      -4.776  -6.553  -7.054  1.00  0.00     0.026 C 
BRANCH  40  41
ATOM     41  C   UNL     1      -5.959  -6.370  -8.005  1.00  0.00     0.146 C 
BRANCH  41  42
ATOM     42  N   UNL     1      -5.489  -6.377  -9.384  1.00  0.00    -0.254 NA
ATOM     43  C   UNL     1      -5.486  -5.288 -10.057  1.00  0.00     0.185 C 
ATOM     44  N   UNL     1      -5.864  -4.047  -9.699  1.00  0.00    -0.370 N 
ATOM     45  N   UNL     1      -5.052  -5.316 -11.328  1.00  0.00    -0.370 N 
ATOM     46  H   UNL     1      -6.038  -3.343 -10.395  1.00  0.00     0.159 HD
ATOM     47  H   UNL     1      -6.206  -3.844  -8.765  1.00  0.00     0.159 HD
ATOM     48  H   UNL     1      -4.739  -6.213 -11.676  1.00  0.00     0.159 HD
ATOM     49  H   UNL     1      -4.797  -4.487 -11.835  1.00  0.00     0.159 HD
ENDBRANCH  41  42
ENDBRANCH  40  41
ENDBRANCH  39  40
ENDBRANCH  38  39
ENDBRANCH  36  38
ENDBRANCH   5  34
BRANCH   8  50
ATOM     50  O   UNL     1      -6.123  -0.350 -10.721  1.00  0.00    -0.245 OA
BRANCH  50  51
ATOM     51  S   UNL     1      -6.418  -1.095 -12.137  1.00  0.00     0.397 S 
ATOM     52  O   UNL     1      -5.989  -0.215 -13.201  1.00  0.00    -0.169 OA
ATOM     53  O   UNL     1      -7.747  -1.670 -12.116  1.00  0.00    -0.169 OA
BRANCH  51  54
ATOM     54  O   UNL     1      -5.355  -2.301 -12.110  1.00  0.00    -0.264 OA
ATOM     55  H   UNL     1      -5.814  -3.110 -12.416  1.00  0.00     0.236 HD
ENDBRANCH  51  54
ENDBRANCH  50  51
ENDBRANCH   8  50
TORSDOF 19
ENDMDL
MODEL 39
REMARK VINA RESULT:    -6.530      7.354     10.180
REMARK INTER + INTRA:         -16.424
REMARK INTER:                 -13.609
REMARK INTRA:                  -2.815
REMARK UNBOUND:                -3.213
REMARK SMILES CC[C@@H](C)[C@@H](NC(=O)[C@@H](O)Cc1ccc(O)c(Cl)c1)C(=O)N1[C@H](C(=O)NCCCCN=C(N)N)C[C@H]2CC[C@H](OS(=O)(=O)O)C[C@@H]21
REMARK SMILES IDX 22 1 36 2 46 3 35 4 23 5 45 6 37 7 39 8 38 9 20 10 21 11
REMARK SMILES IDX 5 12 6 13 7 14 8 15 9 17 11 18 12 19 17 20 19 21 15 22 14 23
REMARK SMILES IDX 13 24 18 25 16 26 10 28 3 30 4 31 2 32 1 33 24 34 25 35
REMARK SMILES IDX 26 36 27 38 28 39 29 40 30 41 31 42 32 43 33 44 34 45 40 50
REMARK SMILES IDX 41 51 42 52 43 53 44 54
REMARK H PARENT 6 16 16 27 10 29 26 37 33 46 33 47 34 48 34 49 44 55
ROOT
ATOM      1  N   UNL     1      -1.422  -0.112 -10.517  1.00  0.00    -0.326 N 
ATOM      2  C   UNL     1      -0.463   2.023 -10.263  1.00  0.00     0.014 C 
ATOM      3  C   UNL     1      -0.661   0.683  -9.549  1.00  0.00     0.091 C 
ATOM      4  C   UNL     1      -1.754   2.175 -11.053  1.00  0.00     0.041 C 
ATOM      5  C   UNL     1      -1.891   0.753 -11.628  1.00  0.00     0.175 C 
ATOM      6  C   UNL     1       0.706   0.167  -9.103  1.00  0.00     0.059 C 
ATOM      7  C   UNL     1      -0.060   3.107  -9.282  1.00  0.00     0.008 C 
ATOM      8  C   UNL     1       1.708   1.287  -8.749  1.00  0.00     0.143 C 
ATOM      9  C   UNL     1       0.997   2.577  -8.290  1.00  0.00     0.034 C 
ENDROOT
BRANCH   1  10
ATOM     10  C   UNL     1      -1.908  -1.404 -10.417  1.00  0.00     0.246 C 
ATOM     11  O   UNL     1      -1.214  -2.340 -10.828  1.00  0.00    -0.272 OA
BRANCH  10  12
ATOM     12  C   UNL     1      -3.293  -1.654  -9.753  1.00  0.00     0.174 C 
BRANCH  12  13
ATOM     13  N   UNL     1      -3.205  -2.781  -8.824  1.00  0.00    -0.342 N 
ATOM     14  C   UNL     1      -3.596  -2.749  -7.505  1.00  0.00     0.249 C 
ATOM     15  O   UNL     1      -4.094  -1.770  -6.964  1.00  0.00    -0.272 OA
ATOM     16  H   UNL     1      -2.672  -3.607  -9.084  1.00  0.00     0.164 HD
BRANCH  14  17
ATOM     17  C   UNL     1      -3.360  -4.093  -6.781  1.00  0.00     0.207 C 
BRANCH  17  18
ATOM     18  C   UNL     1      -3.578  -5.264  -7.744  1.00  0.00     0.077 C 
BRANCH  18  19
ATOM     19  C   UNL     1      -2.615  -6.399  -7.475  1.00  0.00    -0.043 A 
ATOM     20  C   UNL     1      -2.205  -8.698  -6.821  1.00  0.00     0.083 A 
ATOM     21  C   UNL     1      -3.097  -7.667  -7.117  1.00  0.00     0.028 A 
ATOM     22  C   UNL     1      -0.829  -8.470  -6.879  1.00  0.00     0.134 A 
ATOM     23  C   UNL     1      -0.338  -7.219  -7.232  1.00  0.00     0.048 A 
ATOM     24  C   UNL     1      -1.229  -6.184  -7.527  1.00  0.00     0.008 A 
ATOM     25  Cl  UNL     1      -2.816 -10.250  -6.382  1.00  0.00    -0.080 Cl
BRANCH  22  26
ATOM     26  O   UNL     1       0.084  -9.447  -6.587  1.00  0.00    -0.506 OA
ATOM     27  H   UNL     1      -0.398 -10.294  -6.602  1.00  0.00     0.293 HD
ENDBRANCH  22  26
ENDBRANCH  18  19
ENDBRANCH  17  18
BRANCH  17  28
ATOM     28  O   UNL     1      -4.238  -4.234  -5.653  1.00  0.00    -0.383 OA
ATOM     29  H   UNL     1      -4.604  -5.146  -5.705  1.00  0.00     0.211 HD
ENDBRANCH  17  28
ENDBRANCH  14  17
ENDBRANCH  12  13
BRANCH  12  30
ATOM     30  C   UNL     1      -4.433  -1.830 -10.791  1.00  0.00     0.018 C 
ATOM     31  C   UNL     1      -5.544  -0.793 -10.564  1.00  0.00     0.010 C 
BRANCH  30  32
ATOM     32  C   UNL     1      -5.035  -3.257 -10.818  1.00  0.00     0.002 C 
ATOM     33  C   UNL     1      -6.510  -3.348 -10.450  1.00  0.00     0.004 C 
ENDBRANCH  30  32
ENDBRANCH  12  30
ENDBRANCH  10  12
ENDBRANCH   1  10
BRANCH   5  34
ATOM     34  C   UNL     1      -1.006   0.558 -12.888  1.00  0.00     0.242 C 
ATOM     35  O   UNL     1      -0.002  -0.155 -12.883  1.00  0.00    -0.273 OA
ATOM     36  N   UNL     1      -1.394   1.280 -13.994  1.00  0.00    -0.354 N 
ATOM     37  H   UNL     1      -2.163   1.945 -13.901  1.00  0.00     0.163 HD
BRANCH  36  38
ATOM     38  C   UNL     1      -0.819   1.057 -15.304  1.00  0.00     0.116 C 
BRANCH  38  39
ATOM     39  C   UNL     1       0.338   2.025 -15.535  1.00  0.00     0.023 C 
BRANCH  39  40
ATOM     40  C   UNL     1       1.653   1.306 -15.818  1.00  0.00     0.026 C 
BRANCH  40  41
ATOM     41  C   UNL     1       2.592   1.399 -14.616  1.00  0.00     0.146 C 
BRANCH  41  42
ATOM     42  N   UNL     1       3.116   0.077 -14.297  1.00  0.00    -0.254 NA
ATOM     43  C   UNL     1       4.282  -0.257 -14.705  1.00  0.00     0.185 C 
ATOM     44  N   UNL     1       5.179   0.439 -15.427  1.00  0.00    -0.370 N 
ATOM     45  N   UNL     1       4.745  -1.482 -14.404  1.00  0.00    -0.370 N 
ATOM     46  H   UNL     1       5.945  -0.027 -15.881  1.00  0.00     0.159 HD
ATOM     47  H   UNL     1       4.997   1.391 -15.729  1.00  0.00     0.159 HD
ATOM     48  H   UNL     1       4.133  -2.069 -13.854  1.00  0.00     0.159 HD
ATOM     49  H   UNL     1       5.715  -1.729 -14.477  1.00  0.00     0.159 HD
ENDBRANCH  41  42
ENDBRANCH  40  41
ENDBRANCH  39  40
ENDBRANCH  38  39
ENDBRANCH  36  38
ENDBRANCH   5  34
BRANCH   8  50
ATOM     50  O   UNL     1       2.520   1.596  -9.882  1.00  0.00    -0.245 OA
BRANCH  50  51
ATOM     51  S   UNL     1       4.060   1.075  -9.932  1.00  0.00     0.397 S 
ATOM     52  O   UNL     1       4.410   0.848 -11.316  1.00  0.00    -0.169 OA
ATOM     53  O   UNL     1       4.263   0.059  -8.920  1.00  0.00    -0.169 OA
BRANCH  51  54
ATOM     54  O   UNL     1       4.873   2.389  -9.485  1.00  0.00    -0.264 OA
ATOM     55  H   UNL     1       5.244   2.222  -8.594  1.00  0.00     0.236 HD
ENDBRANCH  51  54
ENDBRANCH  50  51
ENDBRANCH   8  50
TORSDOF 19
ENDMDL
MODEL 40
REMARK VINA RESULT:    -6.522      3.265      5.051
REMARK INTER + INTRA:         -16.408
REMARK INTER:                 -13.234
REMARK INTRA:                  -3.174
REMARK UNBOUND:                -3.213
REMARK SMILES CC[C@@H](C)[C@@H](NC(=O)[C@@H](O)Cc1ccc(O)c(Cl)c1)C(=O)N1[C@H](C(=O)NCCCCN=C(N)N)C[C@H]2CC[C@H](OS(=O)(=O)O)C[C@@H]21
REMARK SMILES IDX 22 1 36 2 46 3 35 4 23 5 45 6 37 7 39 8 38 9 20 10 21 11
REMARK SMILES IDX 5 12 6 13 7 14 8 15 9 17 11 18 12 19 17 20 19 21 15 22 14 23
REMARK SMILES IDX 13 24 18 25 16 26 10 28 3 30 4 31 2 32 1 33 24 34 25 35
REMARK SMILES IDX 26 36 27 38 28 39 29 40 30 41 31 42 32 43 33 44 34 45 40 50
REMARK SMILES IDX 41 51 42 52 43 53 44 54
REMARK H PARENT 6 16 16 27 10 29 26 37 33 46 33 47 34 48 34 49 44 55
ROOT
ATOM      1  N   UNL     1      -7.207  -4.482   0.416  1.00  0.00    -0.326 N 
ATOM      2  C   UNL     1      -9.270  -4.480   1.549  1.00  0.00     0.014 C 
ATOM      3  C   UNL     1      -7.762  -4.629   1.765  1.00  0.00     0.091 C 
ATOM      4  C   UNL     1      -9.479  -5.122   0.186  1.00  0.00     0.041 C 
ATOM      5  C   UNL     1      -8.298  -4.508  -0.588  1.00  0.00     0.175 C 
ATOM      6  C   UNL     1      -7.326  -3.636   2.840  1.00  0.00     0.059 C 
ATOM      7  C   UNL     1     -10.043  -5.002   2.744  1.00  0.00     0.008 C 
ATOM      8  C   UNL     1      -8.409  -3.358   3.905  1.00  0.00     0.143 C 
ATOM      9  C   UNL     1      -9.384  -4.543   4.062  1.00  0.00     0.034 C 
ENDROOT
BRANCH   1  10
ATOM     10  C   UNL     1      -5.892  -4.544  -0.014  1.00  0.00     0.246 C 
ATOM     11  O   UNL     1      -5.230  -3.502  -0.076  1.00  0.00    -0.272 OA
BRANCH  10  12
ATOM     12  C   UNL     1      -5.266  -5.923  -0.369  1.00  0.00     0.174 C 
BRANCH  12  13
ATOM     13  N   UNL     1      -5.304  -6.131  -1.817  1.00  0.00    -0.342 N 
ATOM     14  C   UNL     1      -4.322  -5.739  -2.698  1.00  0.00     0.249 C 
ATOM     15  O   UNL     1      -3.281  -5.190  -2.358  1.00  0.00    -0.272 OA
ATOM     16  H   UNL     1      -6.169  -6.430  -2.260  1.00  0.00     0.164 HD
BRANCH  14  17
ATOM     17  C   UNL     1      -4.663  -6.084  -4.163  1.00  0.00     0.207 C 
BRANCH  17  18
ATOM     18  C   UNL     1      -3.614  -5.494  -5.111  1.00  0.00     0.077 C 
BRANCH  18  19
ATOM     19  C   UNL     1      -2.656  -6.550  -5.615  1.00  0.00    -0.043 A 
ATOM     20  C   UNL     1      -0.846  -7.216  -7.087  1.00  0.00     0.083 A 
ATOM     21  C   UNL     1      -1.696  -6.228  -6.588  1.00  0.00     0.028 A 
ATOM     22  C   UNL     1      -0.950  -8.527  -6.621  1.00  0.00     0.134 A 
ATOM     23  C   UNL     1      -1.896  -8.859  -5.658  1.00  0.00     0.048 A 
ATOM     24  C   UNL     1      -2.749  -7.873  -5.158  1.00  0.00     0.008 A 
ATOM     25  Cl  UNL     1       0.326  -6.802  -8.282  1.00  0.00    -0.080 Cl
BRANCH  22  26
ATOM     26  O   UNL     1      -0.146  -9.532  -7.088  1.00  0.00    -0.506 OA
ATOM     27  H   UNL     1       0.405  -9.144  -7.793  1.00  0.00     0.293 HD
ENDBRANCH  22  26
ENDBRANCH  18  19
ENDBRANCH  17  18
BRANCH  17  28
ATOM     28  O   UNL     1      -5.963  -5.588  -4.522  1.00  0.00    -0.383 OA
ATOM     29  H   UNL     1      -6.607  -6.263  -4.210  1.00  0.00     0.211 HD
ENDBRANCH  17  28
ENDBRANCH  14  17
ENDBRANCH  12  13
BRANCH  12  30
ATOM     30  C   UNL     1      -5.913  -7.096   0.415  1.00  0.00     0.018 C 
ATOM     31  C   UNL     1      -4.921  -7.691   1.426  1.00  0.00     0.010 C 
BRANCH  30  32
ATOM     32  C   UNL     1      -6.481  -8.213  -0.494  1.00  0.00     0.002 C 
ATOM     33  C   UNL     1      -5.681  -9.509  -0.510  1.00  0.00     0.004 C 
ENDBRANCH  30  32
ENDBRANCH  12  30
ENDBRANCH  10  12
ENDBRANCH   1  10
BRANCH   5  34
ATOM     34  C   UNL     1      -8.624  -3.074  -1.085  1.00  0.00     0.242 C 
ATOM     35  O   UNL     1      -9.495  -2.851  -1.925  1.00  0.00    -0.273 OA
ATOM     36  N   UNL     1      -7.832  -2.079  -0.559  1.00  0.00    -0.354 N 
ATOM     37  H   UNL     1      -7.048  -2.339   0.041  1.00  0.00     0.163 HD
BRANCH  36  38
ATOM     38  C   UNL     1      -8.132  -0.674  -0.743  1.00  0.00     0.116 C 
BRANCH  38  39
ATOM     39  C   UNL     1      -7.076  -0.031  -1.639  1.00  0.00     0.023 C 
BRANCH  39  40
ATOM     40  C   UNL     1      -7.688   0.689  -2.836  1.00  0.00     0.026 C 
BRANCH  40  41
ATOM     41  C   UNL     1      -8.037  -0.304  -3.945  1.00  0.00     0.146 C 
BRANCH  41  42
ATOM     42  N   UNL     1      -6.913  -0.430  -4.864  1.00  0.00    -0.254 NA
ATOM     43  C   UNL     1      -6.280  -1.540  -4.941  1.00  0.00     0.185 C 
ATOM     44  N   UNL     1      -6.477  -2.696  -4.281  1.00  0.00    -0.370 N 
ATOM     45  N   UNL     1      -5.245  -1.635  -5.791  1.00  0.00    -0.370 N 
ATOM     46  H   UNL     1      -5.761  -3.402  -4.259  1.00  0.00     0.159 HD
ATOM     47  H   UNL     1      -7.229  -2.804  -3.608  1.00  0.00     0.159 HD
ATOM     48  H   UNL     1      -5.034  -0.809  -6.335  1.00  0.00     0.159 HD
ATOM     49  H   UNL     1      -4.857  -2.516  -6.081  1.00  0.00     0.159 HD
ENDBRANCH  41  42
ENDBRANCH  40  41
ENDBRANCH  39  40
ENDBRANCH  38  39
ENDBRANCH  36  38
ENDBRANCH   5  34
BRANCH   8  50
ATOM     50  O   UNL     1      -9.160  -2.197   3.550  1.00  0.00    -0.245 OA
BRANCH  50  51
ATOM     51  S   UNL     1      -9.705  -1.205   4.719  1.00  0.00     0.397 S 
ATOM     52  O   UNL     1     -11.021  -1.659   5.111  1.00  0.00    -0.169 OA
ATOM     53  O   UNL     1      -9.457   0.171   4.343  1.00  0.00    -0.169 OA
BRANCH  51  54
ATOM     54  O   UNL     1      -8.733  -1.567   5.947  1.00  0.00    -0.264 OA
ATOM     55  H   UNL     1      -7.909  -1.942   5.575  1.00  0.00     0.236 HD
ENDBRANCH  51  54
ENDBRANCH  50  51
ENDBRANCH   8  50
TORSDOF 19
ENDMDL
MODEL 41
REMARK VINA RESULT:    -6.522      4.806      8.515
REMARK INTER + INTRA:         -16.408
REMARK INTER:                 -11.943
REMARK INTRA:                  -4.465
REMARK UNBOUND:                -3.213
REMARK SMILES CC[C@@H](C)[C@@H](NC(=O)[C@@H](O)Cc1ccc(O)c(Cl)c1)C(=O)N1[C@H](C(=O)NCCCCN=C(N)N)C[C@H]2CC[C@H](OS(=O)(=O)O)C[C@@H]21
REMARK SMILES IDX 22 1 36 2 46 3 35 4 23 5 45 6 37 7 39 8 38 9 20 10 21 11
REMARK SMILES IDX 5 12 6 13 7 14 8 15 9 17 11 18 12 19 17 20 19 21 15 22 14 23
REMARK SMILES IDX 13 24 18 25 16 26 10 28 3 30 4 31 2 32 1 33 24 34 25 35
REMARK SMILES IDX 26 36 27 38 28 39 29 40 30 41 31 42 32 43 33 44 34 45 40 50
REMARK SMILES IDX 41 51 42 52 43 53 44 54
REMARK H PARENT 6 16 16 27 10 29 26 37 33 46 33 47 34 48 34 49 44 55
ROOT
ATOM      1  N   UNL     1      -6.646  -4.439  -1.279  1.00  0.00    -0.326 N 
ATOM      2  C   UNL     1      -7.207  -4.277  -3.560  1.00  0.00     0.014 C 
ATOM      3  C   UNL     1      -7.384  -3.578  -2.208  1.00  0.00     0.091 C 
ATOM      4  C   UNL     1      -7.201  -5.749  -3.178  1.00  0.00     0.041 C 
ATOM      5  C   UNL     1      -6.271  -5.708  -1.951  1.00  0.00     0.175 C 
ATOM      6  C   UNL     1      -6.941  -2.124  -2.355  1.00  0.00     0.059 C 
ATOM      7  C   UNL     1      -8.224  -3.775  -4.566  1.00  0.00     0.008 C 
ATOM      8  C   UNL     1      -7.193  -1.537  -3.761  1.00  0.00     0.143 C 
ATOM      9  C   UNL     1      -8.360  -2.240  -4.482  1.00  0.00     0.034 C 
ENDROOT
BRANCH   1  10
ATOM     10  C   UNL     1      -6.469  -4.322   0.089  1.00  0.00     0.246 C 
ATOM     11  O   UNL     1      -5.654  -3.500   0.521  1.00  0.00    -0.272 OA
BRANCH  10  12
ATOM     12  C   UNL     1      -7.327  -5.193   1.051  1.00  0.00     0.174 C 
BRANCH  12  13
ATOM     13  N   UNL     1      -8.577  -4.504   1.367  1.00  0.00    -0.342 N 
ATOM     14  C   UNL     1      -9.788  -4.744   0.758  1.00  0.00     0.249 C 
ATOM     15  O   UNL     1      -9.959  -5.592  -0.109  1.00  0.00    -0.272 OA
ATOM     16  H   UNL     1      -8.559  -3.671   1.951  1.00  0.00     0.164 HD
BRANCH  14  17
ATOM     17  C   UNL     1     -10.917  -3.841   1.299  1.00  0.00     0.207 C 
BRANCH  17  18
ATOM     18  C   UNL     1     -11.777  -4.607   2.309  1.00  0.00     0.077 C 
BRANCH  18  19
ATOM     19  C   UNL     1     -11.137  -4.645   3.679  1.00  0.00    -0.043 A 
ATOM     20  C   UNL     1     -10.719  -5.794   5.773  1.00  0.00     0.083 A 
ATOM     21  C   UNL     1     -11.269  -5.782   4.491  1.00  0.00     0.028 A 
ATOM     22  C   UNL     1     -10.038  -4.674   6.252  1.00  0.00     0.134 A 
ATOM     23  C   UNL     1      -9.901  -3.542   5.458  1.00  0.00     0.048 A 
ATOM     24  C   UNL     1     -10.451  -3.525   4.175  1.00  0.00     0.008 A 
ATOM     25  Cl  UNL     1     -10.892  -7.201   6.756  1.00  0.00    -0.080 Cl
BRANCH  22  26
ATOM     26  O   UNL     1      -9.492  -4.636   7.506  1.00  0.00    -0.506 OA
ATOM     27  H   UNL     1      -8.877  -5.391   7.567  1.00  0.00     0.293 HD
ENDBRANCH  22  26
ENDBRANCH  18  19
ENDBRANCH  17  18
BRANCH  17  28
ATOM     28  O   UNL     1     -11.750  -3.358   0.233  1.00  0.00    -0.383 OA
ATOM     29  H   UNL     1     -11.645  -2.379   0.228  1.00  0.00     0.211 HD
ENDBRANCH  17  28
ENDBRANCH  14  17
ENDBRANCH  12  13
BRANCH  12  30
ATOM     30  C   UNL     1      -6.550  -5.625   2.324  1.00  0.00     0.018 C 
ATOM     31  C   UNL     1      -5.557  -6.753   2.002  1.00  0.00     0.010 C 
BRANCH  30  32
ATOM     32  C   UNL     1      -7.466  -6.043   3.499  1.00  0.00     0.002 C 
ATOM     33  C   UNL     1      -8.131  -7.406   3.355  1.00  0.00     0.004 C 
ENDBRANCH  30  32
ENDBRANCH  12  30
ENDBRANCH  10  12
ENDBRANCH   1  10
BRANCH   5  34
ATOM     34  C   UNL     1      -4.776  -5.689  -2.367  1.00  0.00     0.242 C 
ATOM     35  O   UNL     1      -3.976  -4.872  -1.911  1.00  0.00    -0.273 OA
ATOM     36  N   UNL     1      -4.422  -6.615  -3.322  1.00  0.00    -0.354 N 
ATOM     37  H   UNL     1      -5.154  -7.184  -3.750  1.00  0.00     0.163 HD
BRANCH  36  38
ATOM     38  C   UNL     1      -3.041  -6.882  -3.667  1.00  0.00     0.116 C 
BRANCH  38  39
ATOM     39  C   UNL     1      -2.974  -7.640  -4.991  1.00  0.00     0.023 C 
BRANCH  39  40
ATOM     40  C   UNL     1      -2.101  -6.935  -6.023  1.00  0.00     0.026 C 
BRANCH  40  41
ATOM     41  C   UNL     1      -1.918  -5.461  -5.662  1.00  0.00     0.146 C 
BRANCH  41  42
ATOM     42  N   UNL     1      -2.292  -4.626  -6.795  1.00  0.00    -0.254 NA
ATOM     43  C   UNL     1      -3.404  -3.993  -6.775  1.00  0.00     0.185 C 
ATOM     44  N   UNL     1      -4.360  -3.953  -5.829  1.00  0.00    -0.370 N 
ATOM     45  N   UNL     1      -3.733  -3.232  -7.832  1.00  0.00    -0.370 N 
ATOM     46  H   UNL     1      -5.283  -3.615  -6.046  1.00  0.00     0.159 HD
ATOM     47  H   UNL     1      -4.267  -4.462  -4.955  1.00  0.00     0.159 HD
ATOM     48  H   UNL     1      -3.062  -3.199  -8.587  1.00  0.00     0.159 HD
ATOM     49  H   UNL     1      -4.454  -2.532  -7.795  1.00  0.00     0.159 HD
ENDBRANCH  41  42
ENDBRANCH  40  41
ENDBRANCH  39  40
ENDBRANCH  38  39
ENDBRANCH  36  38
ENDBRANCH   5  34
BRANCH   8  50
ATOM     50  O   UNL     1      -6.019  -1.668  -4.564  1.00  0.00    -0.245 OA
BRANCH  50  51
ATOM     51  S   UNL     1      -5.947  -0.923  -6.008  1.00  0.00     0.397 S 
ATOM     52  O   UNL     1      -6.580   0.369  -5.876  1.00  0.00    -0.169 OA
ATOM     53  O   UNL     1      -6.326  -1.852  -7.053  1.00  0.00    -0.169 OA
BRANCH  51  54
ATOM     54  O   UNL     1      -4.373  -0.627  -6.155  1.00  0.00    -0.264 OA
ATOM     55  H   UNL     1      -3.906  -1.487  -6.147  1.00  0.00     0.236 HD
ENDBRANCH  51  54
ENDBRANCH  50  51
ENDBRANCH   8  50
TORSDOF 19
ENDMDL
MODEL 42
REMARK VINA RESULT:    -6.504      5.066      8.876
REMARK INTER + INTRA:         -16.371
REMARK INTER:                 -12.015
REMARK INTRA:                  -4.357
REMARK UNBOUND:                -3.213
REMARK SMILES CC[C@@H](C)[C@@H](NC(=O)[C@@H](O)Cc1ccc(O)c(Cl)c1)C(=O)N1[C@H](C(=O)NCCCCN=C(N)N)C[C@H]2CC[C@H](OS(=O)(=O)O)C[C@@H]21
REMARK SMILES IDX 22 1 36 2 46 3 35 4 23 5 45 6 37 7 39 8 38 9 20 10 21 11
REMARK SMILES IDX 5 12 6 13 7 14 8 15 9 17 11 18 12 19 17 20 19 21 15 22 14 23
REMARK SMILES IDX 13 24 18 25 16 26 10 28 3 30 4 31 2 32 1 33 24 34 25 35
REMARK SMILES IDX 26 36 27 38 28 39 29 40 30 41 31 42 32 43 33 44 34 45 40 50
REMARK SMILES IDX 41 51 42 52 43 53 44 54
REMARK H PARENT 6 16 16 27 10 29 26 37 33 46 33 47 34 48 34 49 44 55
ROOT
ATOM      1  N   UNL     1      -7.011  -5.061   0.596  1.00  0.00    -0.326 N 
ATOM      2  C   UNL     1      -9.314  -5.255   0.148  1.00  0.00     0.014 C 
ATOM      3  C   UNL     1      -8.283  -4.392   0.881  1.00  0.00     0.091 C 
ATOM      4  C   UNL     1      -8.741  -6.656   0.292  1.00  0.00     0.041 C 
ATOM      5  C   UNL     1      -7.262  -6.380  -0.036  1.00  0.00     0.175 C 
ATOM      6  C   UNL     1      -8.457  -2.943   0.428  1.00  0.00     0.059 C 
ATOM      7  C   UNL     1     -10.716  -4.970   0.650  1.00  0.00     0.008 C 
ATOM      8  C   UNL     1      -9.913  -2.575   0.069  1.00  0.00     0.143 C 
ATOM      9  C   UNL     1     -10.934  -3.452   0.820  1.00  0.00     0.034 C 
ENDROOT
BRANCH   1  10
ATOM     10  C   UNL     1      -5.729  -4.745   1.011  1.00  0.00     0.246 C 
ATOM     11  O   UNL     1      -4.974  -4.151   0.234  1.00  0.00    -0.272 OA
BRANCH  10  12
ATOM     12  C   UNL     1      -5.281  -5.104   2.458  1.00  0.00     0.174 C 
BRANCH  12  13
ATOM     13  N   UNL     1      -6.000  -6.289   2.923  1.00  0.00    -0.342 N 
ATOM     14  C   UNL     1      -5.471  -7.558   2.994  1.00  0.00     0.249 C 
ATOM     15  O   UNL     1      -4.315  -7.832   2.698  1.00  0.00    -0.272 OA
ATOM     16  H   UNL     1      -7.008  -6.248   3.053  1.00  0.00     0.164 HD
BRANCH  14  17
ATOM     17  C   UNL     1      -6.487  -8.599   3.509  1.00  0.00     0.207 C 
BRANCH  17  18
ATOM     18  C   UNL     1      -6.619  -8.510   5.033  1.00  0.00     0.077 C 
BRANCH  18  19
ATOM     19  C   UNL     1      -7.988  -8.021   5.450  1.00  0.00    -0.043 A 
ATOM     20  C   UNL     1      -9.907  -6.582   5.088  1.00  0.00     0.083 A 
ATOM     21  C   UNL     1      -8.667  -7.068   4.674  1.00  0.00     0.028 A 
ATOM     22  C   UNL     1     -10.476  -7.041   6.277  1.00  0.00     0.134 A 
ATOM     23  C   UNL     1      -9.815  -7.985   7.055  1.00  0.00     0.048 A 
ATOM     24  C   UNL     1      -8.572  -8.472   6.644  1.00  0.00     0.008 A 
ATOM     25  Cl  UNL     1     -10.725  -5.411   4.122  1.00  0.00    -0.080 Cl
BRANCH  22  26
ATOM     26  O   UNL     1     -11.685  -6.586   6.729  1.00  0.00    -0.506 OA
ATOM     27  H   UNL     1     -11.803  -6.949   7.627  1.00  0.00     0.293 HD
ENDBRANCH  22  26
ENDBRANCH  18  19
ENDBRANCH  17  18
BRANCH  17  28
ATOM     28  O   UNL     1      -6.094  -9.932   3.143  1.00  0.00    -0.383 OA
ATOM     29  H   UNL     1      -5.123  -9.982   3.300  1.00  0.00     0.211 HD
ENDBRANCH  17  28
ENDBRANCH  14  17
ENDBRANCH  12  13
BRANCH  12  30
ATOM     30  C   UNL     1      -5.410  -3.909   3.440  1.00  0.00     0.018 C 
ATOM     31  C   UNL     1      -4.258  -3.911   4.457  1.00  0.00     0.010 C 
BRANCH  30  32
ATOM     32  C   UNL     1      -6.770  -3.854   4.177  1.00  0.00     0.002 C 
ATOM     33  C   UNL     1      -6.870  -2.812   5.283  1.00  0.00     0.004 C 
ENDBRANCH  30  32
ENDBRANCH  12  30
ENDBRANCH  10  12
ENDBRANCH   1  10
BRANCH   5  34
ATOM     34  C   UNL     1      -7.018  -6.312  -1.567  1.00  0.00     0.242 C 
ATOM     35  O   UNL     1      -7.894  -6.592  -2.386  1.00  0.00    -0.273 OA
ATOM     36  N   UNL     1      -5.738  -5.970  -1.942  1.00  0.00    -0.354 N 
ATOM     37  H   UNL     1      -5.025  -5.867  -1.219  1.00  0.00     0.163 HD
BRANCH  36  38
ATOM     38  C   UNL     1      -5.393  -5.651  -3.312  1.00  0.00     0.116 C 
BRANCH  38  39
ATOM     39  C   UNL     1      -4.273  -6.571  -3.792  1.00  0.00     0.023 C 
BRANCH  39  40
ATOM     40  C   UNL     1      -3.266  -6.886  -2.691  1.00  0.00     0.026 C 
BRANCH  40  41
ATOM     41  C   UNL     1      -3.186  -8.393  -2.445  1.00  0.00     0.146 C 
BRANCH  41  42
ATOM     42  N   UNL     1      -4.367  -8.835  -1.715  1.00  0.00    -0.254 NA
ATOM     43  C   UNL     1      -4.254  -9.212  -0.497  1.00  0.00     0.185 C 
ATOM     44  N   UNL     1      -3.166  -9.277   0.292  1.00  0.00    -0.370 N 
ATOM     45  N   UNL     1      -5.354  -9.620   0.157  1.00  0.00    -0.370 N 
ATOM     46  H   UNL     1      -3.179  -9.817   1.140  1.00  0.00     0.159 HD
ATOM     47  H   UNL     1      -2.250  -8.992  -0.040  1.00  0.00     0.159 HD
ATOM     48  H   UNL     1      -6.221  -9.594  -0.363  1.00  0.00     0.159 HD
ATOM     49  H   UNL     1      -5.394  -9.701   1.158  1.00  0.00     0.159 HD
ENDBRANCH  41  42
ENDBRANCH  40  41
ENDBRANCH  39  40
ENDBRANCH  38  39
ENDBRANCH  36  38
ENDBRANCH   5  34
BRANCH   8  50
ATOM     50  O   UNL     1     -10.126  -2.730  -1.334  1.00  0.00    -0.245 OA
BRANCH  50  51
ATOM     51  S   UNL     1      -9.628  -1.567  -2.356  1.00  0.00     0.397 S 
ATOM     52  O   UNL     1      -8.713  -2.165  -3.301  1.00  0.00    -0.169 OA
ATOM     53  O   UNL     1      -9.278  -0.379  -1.606  1.00  0.00    -0.169 OA
BRANCH  51  54
ATOM     54  O   UNL     1     -10.970  -1.252  -3.185  1.00  0.00    -0.264 OA
ATOM     55  H   UNL     1     -11.157  -0.295  -3.098  1.00  0.00     0.236 HD
ENDBRANCH  51  54
ENDBRANCH  50  51
ENDBRANCH   8  50
TORSDOF 19
ENDMDL
MODEL 43
REMARK VINA RESULT:    -6.467      7.433     10.884
REMARK INTER + INTRA:         -16.297
REMARK INTER:                 -12.141
REMARK INTRA:                  -4.156
REMARK UNBOUND:                -3.213
REMARK SMILES CC[C@@H](C)[C@@H](NC(=O)[C@@H](O)Cc1ccc(O)c(Cl)c1)C(=O)N1[C@H](C(=O)NCCCCN=C(N)N)C[C@H]2CC[C@H](OS(=O)(=O)O)C[C@@H]21
REMARK SMILES IDX 22 1 36 2 46 3 35 4 23 5 45 6 37 7 39 8 38 9 20 10 21 11
REMARK SMILES IDX 5 12 6 13 7 14 8 15 9 17 11 18 12 19 17 20 19 21 15 22 14 23
REMARK SMILES IDX 13 24 18 25 16 26 10 28 3 30 4 31 2 32 1 33 24 34 25 35
REMARK SMILES IDX 26 36 27 38 28 39 29 40 30 41 31 42 32 43 33 44 34 45 40 50
REMARK SMILES IDX 41 51 42 52 43 53 44 54
REMARK H PARENT 6 16 16 27 10 29 26 37 33 46 33 47 34 48 34 49 44 55
ROOT
ATOM      1  N   UNL     1      -8.865  -4.683   3.053  1.00  0.00    -0.326 N 
ATOM      2  C   UNL     1     -10.744  -3.348   3.531  1.00  0.00     0.014 C 
ATOM      3  C   UNL     1      -9.291  -3.598   3.942  1.00  0.00     0.091 C 
ATOM      4  C   UNL     1     -11.234  -4.741   3.167  1.00  0.00     0.041 C 
ATOM      5  C   UNL     1     -10.038  -5.242   2.336  1.00  0.00     0.175 C 
ATOM      6  C   UNL     1      -8.536  -2.271   3.880  1.00  0.00     0.059 C 
ATOM      7  C   UNL     1     -11.480  -2.555   4.594  1.00  0.00     0.008 C 
ATOM      8  C   UNL     1      -9.411  -1.042   4.206  1.00  0.00     0.143 C 
ATOM      9  C   UNL     1     -10.599  -1.403   5.121  1.00  0.00     0.034 C 
ENDROOT
BRANCH   1  10
ATOM     10  C   UNL     1      -7.650  -5.342   2.976  1.00  0.00     0.246 C 
ATOM     11  O   UNL     1      -6.930  -5.161   1.989  1.00  0.00    -0.272 OA
BRANCH  10  12
ATOM     12  C   UNL     1      -7.199  -6.260   4.149  1.00  0.00     0.174 C 
BRANCH  12  13
ATOM     13  N   UNL     1      -8.355  -6.966   4.702  1.00  0.00    -0.342 N 
ATOM     14  C   UNL     1      -8.537  -8.330   4.667  1.00  0.00     0.249 C 
ATOM     15  O   UNL     1      -7.728  -9.115   4.188  1.00  0.00    -0.272 OA
ATOM     16  H   UNL     1      -9.176  -6.441   4.990  1.00  0.00     0.164 HD
BRANCH  14  17
ATOM     17  C   UNL     1      -9.866  -8.770   5.318  1.00  0.00     0.207 C 
BRANCH  17  18
ATOM     18  C   UNL     1      -9.786  -8.636   6.842  1.00  0.00     0.077 C 
BRANCH  18  19
ATOM     19  C   UNL     1     -10.483  -7.387   7.334  1.00  0.00    -0.043 A 
ATOM     20  C   UNL     1     -11.097  -5.897   9.147  1.00  0.00     0.083 A 
ATOM     21  C   UNL     1     -10.411  -7.022   8.687  1.00  0.00     0.028 A 
ATOM     22  C   UNL     1     -11.857  -5.132   8.261  1.00  0.00     0.134 A 
ATOM     23  C   UNL     1     -11.936  -5.482   6.918  1.00  0.00     0.048 A 
ATOM     24  C   UNL     1     -11.253  -6.609   6.455  1.00  0.00     0.008 A 
ATOM     25  Cl  UNL     1     -10.997  -5.465  10.813  1.00  0.00    -0.080 Cl
BRANCH  22  26
ATOM     26  O   UNL     1     -12.554  -4.027   8.667  1.00  0.00    -0.506 OA
ATOM     27  H   UNL     1     -12.026  -3.605   9.369  1.00  0.00     0.293 HD
ENDBRANCH  22  26
ENDBRANCH  18  19
ENDBRANCH  17  18
BRANCH  17  28
ATOM     28  O   UNL     1     -10.185 -10.128   4.976  1.00  0.00    -0.383 OA
ATOM     29  H   UNL     1     -10.433 -10.118   4.023  1.00  0.00     0.211 HD
ENDBRANCH  17  28
ENDBRANCH  14  17
ENDBRANCH  12  13
BRANCH  12  30
ATOM     30  C   UNL     1      -6.398  -5.494   5.236  1.00  0.00     0.018 C 
ATOM     31  C   UNL     1      -4.912  -5.884   5.196  1.00  0.00     0.010 C 
BRANCH  30  32
ATOM     32  C   UNL     1      -6.958  -5.679   6.668  1.00  0.00     0.002 C 
ATOM     33  C   UNL     1      -7.901  -4.583   7.145  1.00  0.00     0.004 C 
ENDBRANCH  30  32
ENDBRANCH  12  30
ENDBRANCH  10  12
ENDBRANCH   1  10
BRANCH   5  34
ATOM     34  C   UNL     1     -10.093  -4.714   0.878  1.00  0.00     0.242 C 
ATOM     35  O   UNL     1     -10.948  -5.088   0.075  1.00  0.00    -0.273 OA
ATOM     36  N   UNL     1      -9.086  -3.841   0.532  1.00  0.00    -0.354 N 
ATOM     37  H   UNL     1      -8.339  -3.662   1.203  1.00  0.00     0.163 HD
BRANCH  36  38
ATOM     38  C   UNL     1      -9.105  -3.091  -0.707  1.00  0.00     0.116 C 
BRANCH  38  39
ATOM     39  C   UNL     1     -10.002  -1.865  -0.557  1.00  0.00     0.023 C 
BRANCH  39  40
ATOM     40  C   UNL     1      -9.710  -0.797  -1.605  1.00  0.00     0.026 C 
BRANCH  40  41
ATOM     41  C   UNL     1      -8.400  -1.096  -2.333  1.00  0.00     0.146 C 
BRANCH  41  42
ATOM     42  N   UNL     1      -7.376  -0.147  -1.917  1.00  0.00    -0.254 NA
ATOM     43  C   UNL     1      -6.208  -0.571  -1.607  1.00  0.00     0.185 C 
ATOM     44  N   UNL     1      -5.717  -1.823  -1.596  1.00  0.00    -0.370 N 
ATOM     45  N   UNL     1      -5.280   0.320  -1.221  1.00  0.00    -0.370 N 
ATOM     46  H   UNL     1      -4.868  -2.037  -1.101  1.00  0.00     0.159 HD
ATOM     47  H   UNL     1      -6.282  -2.620  -1.874  1.00  0.00     0.159 HD
ATOM     48  H   UNL     1      -5.566   1.289  -1.210  1.00  0.00     0.159 HD
ATOM     49  H   UNL     1      -4.299   0.106  -1.193  1.00  0.00     0.159 HD
ENDBRANCH  41  42
ENDBRANCH  40  41
ENDBRANCH  39  40
ENDBRANCH  38  39
ENDBRANCH  36  38
ENDBRANCH   5  34
BRANCH   8  50
ATOM     50  O   UNL     1      -9.924  -0.471   3.002  1.00  0.00    -0.245 OA
BRANCH  50  51
ATOM     51  S   UNL     1      -9.349   0.959   2.483  1.00  0.00     0.397 S 
ATOM     52  O   UNL     1     -10.465   1.867   2.350  1.00  0.00    -0.169 OA
ATOM     53  O   UNL     1      -8.412   0.743   1.400  1.00  0.00    -0.169 OA
BRANCH  51  54
ATOM     54  O   UNL     1      -8.518   1.470   3.762  1.00  0.00    -0.264 OA
ATOM     55  H   UNL     1      -8.280   2.407   3.608  1.00  0.00     0.236 HD
ENDBRANCH  51  54
ENDBRANCH  50  51
ENDBRANCH   8  50
TORSDOF 19
ENDMDL
MODEL 44
REMARK VINA RESULT:    -6.443      7.145     11.381
REMARK INTER + INTRA:         -16.247
REMARK INTER:                 -13.131
REMARK INTRA:                  -3.116
REMARK UNBOUND:                -3.213
REMARK SMILES CC[C@@H](C)[C@@H](NC(=O)[C@@H](O)Cc1ccc(O)c(Cl)c1)C(=O)N1[C@H](C(=O)NCCCCN=C(N)N)C[C@H]2CC[C@H](OS(=O)(=O)O)C[C@@H]21
REMARK SMILES IDX 22 1 36 2 46 3 35 4 23 5 45 6 37 7 39 8 38 9 20 10 21 11
REMARK SMILES IDX 5 12 6 13 7 14 8 15 9 17 11 18 12 19 17 20 19 21 15 22 14 23
REMARK SMILES IDX 13 24 18 25 16 26 10 28 3 30 4 31 2 32 1 33 24 34 25 35
REMARK SMILES IDX 26 36 27 38 28 39 29 40 30 41 31 42 32 43 33 44 34 45 40 50
REMARK SMILES IDX 41 51 42 52 43 53 44 54
REMARK H PARENT 6 16 16 27 10 29 26 37 33 46 33 47 34 48 34 49 44 55
ROOT
ATOM      1  N   UNL     1      -8.775  -5.024   3.453  1.00  0.00    -0.326 N 
ATOM      2  C   UNL     1      -6.757  -5.100   2.243  1.00  0.00     0.014 C 
ATOM      3  C   UNL     1      -7.820  -5.987   2.898  1.00  0.00     0.091 C 
ATOM      4  C   UNL     1      -6.707  -3.896   3.172  1.00  0.00     0.041 C 
ATOM      5  C   UNL     1      -8.213  -3.653   3.383  1.00  0.00     0.175 C 
ATOM      6  C   UNL     1      -8.321  -6.988   1.858  1.00  0.00     0.059 C 
ATOM      7  C   UNL     1      -5.488  -5.884   1.973  1.00  0.00     0.008 C 
ATOM      8  C   UNL     1      -7.248  -7.403   0.828  1.00  0.00     0.143 C 
ATOM      9  C   UNL     1      -5.820  -7.275   1.395  1.00  0.00     0.034 C 
ENDROOT
BRANCH   1  10
ATOM     10  C   UNL     1      -9.936  -5.242   4.176  1.00  0.00     0.246 C 
ATOM     11  O   UNL     1     -11.006  -5.368   3.571  1.00  0.00    -0.272 OA
BRANCH  10  12
ATOM     12  C   UNL     1      -9.863  -5.365   5.725  1.00  0.00     0.174 C 
BRANCH  12  13
ATOM     13  N   UNL     1      -8.503  -5.085   6.185  1.00  0.00    -0.342 N 
ATOM     14  C   UNL     1      -8.141  -4.021   6.981  1.00  0.00     0.249 C 
ATOM     15  O   UNL     1      -8.934  -3.198   7.421  1.00  0.00    -0.272 OA
ATOM     16  H   UNL     1      -7.720  -5.587   5.775  1.00  0.00     0.164 HD
BRANCH  14  17
ATOM     17  C   UNL     1      -6.627  -3.989   7.279  1.00  0.00     0.207 C 
BRANCH  17  18
ATOM     18  C   UNL     1      -6.062  -2.587   7.030  1.00  0.00     0.077 C 
BRANCH  18  19
ATOM     19  C   UNL     1      -5.416  -2.013   8.271  1.00  0.00    -0.043 A 
ATOM     20  C   UNL     1      -5.118  -0.177   9.828  1.00  0.00     0.083 A 
ATOM     21  C   UNL     1      -5.752  -0.723   8.712  1.00  0.00     0.028 A 
ATOM     22  C   UNL     1      -4.147  -0.912  10.509  1.00  0.00     0.134 A 
ATOM     23  C   UNL     1      -3.805  -2.191  10.084  1.00  0.00     0.048 A 
ATOM     24  C   UNL     1      -4.437  -2.739   8.965  1.00  0.00     0.008 A 
ATOM     25  Cl  UNL     1      -5.543   1.410  10.354  1.00  0.00    -0.080 Cl
BRANCH  22  26
ATOM     26  O   UNL     1      -3.491  -0.415  11.603  1.00  0.00    -0.506 OA
ATOM     27  H   UNL     1      -2.612  -0.126  11.295  1.00  0.00     0.293 HD
ENDBRANCH  22  26
ENDBRANCH  18  19
ENDBRANCH  17  18
BRANCH  17  28
ATOM     28  O   UNL     1      -5.919  -4.939   6.467  1.00  0.00    -0.383 OA
ATOM     29  H   UNL     1      -5.985  -4.609   5.542  1.00  0.00     0.211 HD
ENDBRANCH  17  28
ENDBRANCH  14  17
ENDBRANCH  12  13
BRANCH  12  30
ATOM     30  C   UNL     1     -10.395  -6.728   6.245  1.00  0.00     0.018 C 
ATOM     31  C   UNL     1     -10.962  -6.588   7.666  1.00  0.00     0.010 C 
BRANCH  30  32
ATOM     32  C   UNL     1      -9.342  -7.863   6.201  1.00  0.00     0.002 C 
ATOM     33  C   UNL     1      -9.412  -8.769   4.979  1.00  0.00     0.004 C 
ENDBRANCH  30  32
ENDBRANCH  12  30
ENDBRANCH  10  12
ENDBRANCH   1  10
BRANCH   5  34
ATOM     34  C   UNL     1      -8.836  -2.862   2.202  1.00  0.00     0.242 C 
ATOM     35  O   UNL     1      -8.354  -1.807   1.790  1.00  0.00    -0.273 OA
ATOM     36  N   UNL     1      -9.994  -3.398   1.685  1.00  0.00    -0.354 N 
ATOM     37  H   UNL     1     -10.410  -4.208   2.146  1.00  0.00     0.163 HD
BRANCH  36  38
ATOM     38  C   UNL     1     -10.586  -2.917   0.454  1.00  0.00     0.116 C 
BRANCH  38  39
ATOM     39  C   UNL     1      -9.798  -3.447  -0.742  1.00  0.00     0.023 C 
BRANCH  39  40
ATOM     40  C   UNL     1      -9.339  -2.334  -1.677  1.00  0.00     0.026 C 
BRANCH  40  41
ATOM     41  C   UNL     1      -8.141  -2.786  -2.512  1.00  0.00     0.146 C 
BRANCH  41  42
ATOM     42  N   UNL     1      -7.139  -3.393  -1.646  1.00  0.00    -0.254 NA
ATOM     43  C   UNL     1      -6.113  -2.715  -1.293  1.00  0.00     0.185 C 
ATOM     44  N   UNL     1      -5.765  -1.451  -1.597  1.00  0.00    -0.370 N 
ATOM     45  N   UNL     1      -5.198  -3.294  -0.498  1.00  0.00    -0.370 N 
ATOM     46  H   UNL     1      -4.822  -1.130  -1.455  1.00  0.00     0.159 HD
ATOM     47  H   UNL     1      -6.352  -0.862  -2.179  1.00  0.00     0.159 HD
ATOM     48  H   UNL     1      -5.388  -4.245  -0.215  1.00  0.00     0.159 HD
ATOM     49  H   UNL     1      -4.505  -2.769   0.006  1.00  0.00     0.159 HD
ENDBRANCH  41  42
ENDBRANCH  40  41
ENDBRANCH  39  40
ENDBRANCH  38  39
ENDBRANCH  36  38
ENDBRANCH   5  34
BRANCH   8  50
ATOM     50  O   UNL     1      -7.347  -6.587  -0.339  1.00  0.00    -0.245 OA
BRANCH  50  51
ATOM     51  S   UNL     1      -7.193  -7.265  -1.809  1.00  0.00     0.397 S 
ATOM     52  O   UNL     1      -5.860  -6.984  -2.293  1.00  0.00    -0.169 OA
ATOM     53  O   UNL     1      -8.367  -6.973  -2.605  1.00  0.00    -0.169 OA
BRANCH  51  54
ATOM     54  O   UNL     1      -7.211  -8.834  -1.458  1.00  0.00    -0.264 OA
ATOM     55  H   UNL     1      -6.743  -9.306  -2.177  1.00  0.00     0.236 HD
ENDBRANCH  51  54
ENDBRANCH  50  51
ENDBRANCH   8  50
TORSDOF 19
ENDMDL
MODEL 45
REMARK VINA RESULT:    -6.442      7.878     10.914
REMARK INTER + INTRA:         -16.246
REMARK INTER:                 -12.933
REMARK INTRA:                  -3.313
REMARK UNBOUND:                -3.213
REMARK SMILES CC[C@@H](C)[C@@H](NC(=O)[C@@H](O)Cc1ccc(O)c(Cl)c1)C(=O)N1[C@H](C(=O)NCCCCN=C(N)N)C[C@H]2CC[C@H](OS(=O)(=O)O)C[C@@H]21
REMARK SMILES IDX 22 1 36 2 46 3 35 4 23 5 45 6 37 7 39 8 38 9 20 10 21 11
REMARK SMILES IDX 5 12 6 13 7 14 8 15 9 17 11 18 12 19 17 20 19 21 15 22 14 23
REMARK SMILES IDX 13 24 18 25 16 26 10 28 3 30 4 31 2 32 1 33 24 34 25 35
REMARK SMILES IDX 26 36 27 38 28 39 29 40 30 41 31 42 32 43 33 44 34 45 40 50
REMARK SMILES IDX 41 51 42 52 43 53 44 54
REMARK H PARENT 6 16 16 27 10 29 26 37 33 46 33 47 34 48 34 49 44 55
ROOT
ATOM      1  N   UNL     1      -1.223   0.323  -9.812  1.00  0.00    -0.326 N 
ATOM      2  C   UNL     1      -0.066   2.261  -9.142  1.00  0.00     0.014 C 
ATOM      3  C   UNL     1      -0.057   0.734  -9.025  1.00  0.00     0.091 C 
ATOM      4  C   UNL     1      -1.552   2.585  -9.176  1.00  0.00     0.041 C 
ATOM      5  C   UNL     1      -2.043   1.509 -10.162  1.00  0.00     0.175 C 
ATOM      6  C   UNL     1       1.319   0.226  -9.451  1.00  0.00     0.059 C 
ATOM      7  C   UNL     1       0.808   2.891  -8.076  1.00  0.00     0.008 C 
ATOM      8  C   UNL     1       2.470   1.204  -9.130  1.00  0.00     0.143 C 
ATOM      9  C   UNL     1       2.136   2.118  -7.934  1.00  0.00     0.034 C 
ENDROOT
BRANCH   1  10
ATOM     10  C   UNL     1      -1.731  -0.943 -10.052  1.00  0.00     0.246 C 
ATOM     11  O   UNL     1      -1.102  -1.713 -10.786  1.00  0.00    -0.272 OA
BRANCH  10  12
ATOM     12  C   UNL     1      -3.054  -1.382  -9.362  1.00  0.00     0.174 C 
BRANCH  12  13
ATOM     13  N   UNL     1      -2.884  -2.699  -8.750  1.00  0.00    -0.342 N 
ATOM     14  C   UNL     1      -3.006  -2.967  -7.405  1.00  0.00     0.249 C 
ATOM     15  O   UNL     1      -3.303  -2.125  -6.566  1.00  0.00    -0.272 OA
ATOM     16  H   UNL     1      -2.484  -3.460  -9.294  1.00  0.00     0.164 HD
BRANCH  14  17
ATOM     17  C   UNL     1      -2.750  -4.451  -7.067  1.00  0.00     0.207 C 
BRANCH  17  18
ATOM     18  C   UNL     1      -3.917  -5.026  -6.258  1.00  0.00     0.077 C 
BRANCH  18  19
ATOM     19  C   UNL     1      -5.205  -5.022  -7.049  1.00  0.00    -0.043 A 
ATOM     20  C   UNL     1      -6.488  -5.732  -8.981  1.00  0.00     0.083 A 
ATOM     21  C   UNL     1      -5.315  -5.777  -8.227  1.00  0.00     0.028 A 
ATOM     22  C   UNL     1      -7.555  -4.934  -8.567  1.00  0.00     0.134 A 
ATOM     23  C   UNL     1      -7.460  -4.181  -7.402  1.00  0.00     0.048 A 
ATOM     24  C   UNL     1      -6.286  -4.222  -6.646  1.00  0.00     0.008 A 
ATOM     25  Cl  UNL     1      -6.605  -6.667 -10.426  1.00  0.00    -0.080 Cl
BRANCH  22  26
ATOM     26  O   UNL     1      -8.721  -4.849  -9.278  1.00  0.00    -0.506 OA
ATOM     27  H   UNL     1      -8.471  -4.717 -10.211  1.00  0.00     0.293 HD
ENDBRANCH  22  26
ENDBRANCH  18  19
ENDBRANCH  17  18
BRANCH  17  28
ATOM     28  O   UNL     1      -1.531  -4.609  -6.323  1.00  0.00    -0.383 OA
ATOM     29  H   UNL     1      -0.924  -5.125  -6.902  1.00  0.00     0.211 HD
ENDBRANCH  17  28
ENDBRANCH  14  17
ENDBRANCH  12  13
BRANCH  12  30
ATOM     30  C   UNL     1      -4.276  -1.328 -10.318  1.00  0.00     0.018 C 
ATOM     31  C   UNL     1      -5.342  -0.356  -9.788  1.00  0.00     0.010 C 
BRANCH  30  32
ATOM     32  C   UNL     1      -4.910  -2.713 -10.597  1.00  0.00     0.002 C 
ATOM     33  C   UNL     1      -6.348  -2.682 -11.099  1.00  0.00     0.004 C 
ENDBRANCH  30  32
ENDBRANCH  12  30
ENDBRANCH  10  12
ENDBRANCH   1  10
BRANCH   5  34
ATOM     34  C   UNL     1      -1.799   1.930 -11.636  1.00  0.00     0.242 C 
ATOM     35  O   UNL     1      -1.310   1.165 -12.467  1.00  0.00    -0.273 OA
ATOM     36  N   UNL     1      -2.117   3.237 -11.932  1.00  0.00    -0.354 N 
ATOM     37  H   UNL     1      -2.404   3.857 -11.174  1.00  0.00     0.163 HD
BRANCH  36  38
ATOM     38  C   UNL     1      -2.156   3.734 -13.292  1.00  0.00     0.116 C 
BRANCH  38  39
ATOM     39  C   UNL     1      -1.684   5.186 -13.327  1.00  0.00     0.023 C 
BRANCH  39  40
ATOM     40  C   UNL     1      -0.180   5.315 -13.115  1.00  0.00     0.026 C 
BRANCH  40  41
ATOM     41  C   UNL     1       0.135   5.646 -11.656  1.00  0.00     0.146 C 
BRANCH  41  42
ATOM     42  N   UNL     1       1.170   6.670 -11.596  1.00  0.00    -0.254 NA
ATOM     43  C   UNL     1       2.133   6.550 -10.761  1.00  0.00     0.185 C 
ATOM     44  N   UNL     1       2.384   5.579  -9.864  1.00  0.00    -0.370 N 
ATOM     45  N   UNL     1       3.074   7.507 -10.719  1.00  0.00    -0.370 N 
ATOM     46  H   UNL     1       3.033   5.732  -9.111  1.00  0.00     0.159 HD
ATOM     47  H   UNL     1       1.778   4.770  -9.771  1.00  0.00     0.159 HD
ATOM     48  H   UNL     1       2.965   8.273 -11.370  1.00  0.00     0.159 HD
ATOM     49  H   UNL     1       3.965   7.374 -10.275  1.00  0.00     0.159 HD
ENDBRANCH  41  42
ENDBRANCH  40  41
ENDBRANCH  39  40
ENDBRANCH  38  39
ENDBRANCH  36  38
ENDBRANCH   5  34
BRANCH   8  50
ATOM     50  O   UNL     1       2.746   2.025 -10.265  1.00  0.00    -0.245 OA
BRANCH  50  51
ATOM     51  S   UNL     1       4.286   2.251 -10.737  1.00  0.00     0.397 S 
ATOM     52  O   UNL     1       4.314   2.257 -12.182  1.00  0.00    -0.169 OA
ATOM     53  O   UNL     1       5.162   1.395  -9.964  1.00  0.00    -0.169 OA
BRANCH  51  54
ATOM     54  O   UNL     1       4.556   3.771 -10.287  1.00  0.00    -0.264 OA
ATOM     55  H   UNL     1       5.401   3.791  -9.793  1.00  0.00     0.236 HD
ENDBRANCH  51  54
ENDBRANCH  50  51
ENDBRANCH   8  50
TORSDOF 19
ENDMDL
MODEL 46
REMARK VINA RESULT:    -6.403      7.028     11.831
REMARK INTER + INTRA:         -16.167
REMARK INTER:                 -12.333
REMARK INTRA:                  -3.833
REMARK UNBOUND:                -3.213
REMARK SMILES CC[C@@H](C)[C@@H](NC(=O)[C@@H](O)Cc1ccc(O)c(Cl)c1)C(=O)N1[C@H](C(=O)NCCCCN=C(N)N)C[C@H]2CC[C@H](OS(=O)(=O)O)C[C@@H]21
REMARK SMILES IDX 22 1 36 2 46 3 35 4 23 5 45 6 37 7 39 8 38 9 20 10 21 11
REMARK SMILES IDX 5 12 6 13 7 14 8 15 9 17 11 18 12 19 17 20 19 21 15 22 14 23
REMARK SMILES IDX 13 24 18 25 16 26 10 28 3 30 4 31 2 32 1 33 24 34 25 35
REMARK SMILES IDX 26 36 27 38 28 39 29 40 30 41 31 42 32 43 33 44 34 45 40 50
REMARK SMILES IDX 41 51 42 52 43 53 44 54
REMARK H PARENT 6 16 16 27 10 29 26 37 33 46 33 47 34 48 34 49 44 55
ROOT
ATOM      1  N   UNL     1      -7.050  -4.138   2.053  1.00  0.00    -0.326 N 
ATOM      2  C   UNL     1      -8.011  -3.371   0.045  1.00  0.00     0.014 C 
ATOM      3  C   UNL     1      -6.729  -3.970   0.632  1.00  0.00     0.091 C 
ATOM      4  C   UNL     1      -8.521  -2.495   1.179  1.00  0.00     0.041 C 
ATOM      5  C   UNL     1      -8.326  -3.450   2.370  1.00  0.00     0.175 C 
ATOM      6  C   UNL     1      -6.360  -5.210  -0.179  1.00  0.00     0.059 C 
ATOM      7  C   UNL     1      -7.746  -2.750  -1.313  1.00  0.00     0.008 C 
ATOM      8  C   UNL     1      -6.767  -5.124  -1.666  1.00  0.00     0.143 C 
ATOM      9  C   UNL     1      -6.841  -3.666  -2.163  1.00  0.00     0.034 C 
ENDROOT
BRANCH   1  10
ATOM     10  C   UNL     1      -6.267  -4.620   3.088  1.00  0.00     0.246 C 
ATOM     11  O   UNL     1      -5.832  -3.829   3.931  1.00  0.00    -0.272 OA
BRANCH  10  12
ATOM     12  C   UNL     1      -5.989  -6.148   3.192  1.00  0.00     0.174 C 
BRANCH  12  13
ATOM     13  N   UNL     1      -7.047  -6.795   3.967  1.00  0.00    -0.342 N 
ATOM     14  C   UNL     1      -7.990  -7.656   3.452  1.00  0.00     0.249 C 
ATOM     15  O   UNL     1      -8.030  -8.000   2.277  1.00  0.00    -0.272 OA
ATOM     16  H   UNL     1      -7.236  -6.487   4.917  1.00  0.00     0.164 HD
BRANCH  14  17
ATOM     17  C   UNL     1      -8.983  -8.161   4.521  1.00  0.00     0.207 C 
BRANCH  17  18
ATOM     18  C   UNL     1      -8.278  -8.326   5.871  1.00  0.00     0.077 C 
BRANCH  18  19
ATOM     19  C   UNL     1      -9.110  -7.780   7.009  1.00  0.00    -0.043 A 
ATOM     20  C   UNL     1     -10.153  -5.905   8.141  1.00  0.00     0.083 A 
ATOM     21  C   UNL     1      -9.427  -6.414   7.064  1.00  0.00     0.028 A 
ATOM     22  C   UNL     1     -10.565  -6.754   9.169  1.00  0.00     0.134 A 
ATOM     23  C   UNL     1     -10.259  -8.109   9.128  1.00  0.00     0.048 A 
ATOM     24  C   UNL     1      -9.530  -8.621   8.051  1.00  0.00     0.008 A 
ATOM     25  Cl  UNL     1     -10.531  -4.223   8.191  1.00  0.00    -0.080 Cl
BRANCH  22  26
ATOM     26  O   UNL     1     -11.270  -6.299  10.251  1.00  0.00    -0.506 OA
ATOM     27  H   UNL     1     -10.626  -5.871  10.845  1.00  0.00     0.293 HD
ENDBRANCH  22  26
ENDBRANCH  18  19
ENDBRANCH  17  18
BRANCH  17  28
ATOM     28  O   UNL     1      -9.568  -9.414   4.132  1.00  0.00    -0.383 OA
ATOM     29  H   UNL     1      -9.405 -10.033   4.880  1.00  0.00     0.211 HD
ENDBRANCH  17  28
ENDBRANCH  14  17
ENDBRANCH  12  13
BRANCH  12  30
ATOM     30  C   UNL     1      -4.573  -6.464   3.743  1.00  0.00     0.018 C 
ATOM     31  C   UNL     1      -3.916  -7.599   2.942  1.00  0.00     0.010 C 
BRANCH  30  32
ATOM     32  C   UNL     1      -4.554  -6.799   5.254  1.00  0.00     0.002 C 
ATOM     33  C   UNL     1      -3.742  -5.847   6.122  1.00  0.00     0.004 C 
ENDBRANCH  30  32
ENDBRANCH  12  30
ENDBRANCH  10  12
ENDBRANCH   1  10
BRANCH   5  34
ATOM     34  C   UNL     1      -9.489  -4.472   2.481  1.00  0.00     0.242 C 
ATOM     35  O   UNL     1      -9.765  -5.255   1.572  1.00  0.00    -0.273 OA
ATOM     36  N   UNL     1     -10.221  -4.402   3.644  1.00  0.00    -0.354 N 
ATOM     37  H   UNL     1     -10.020  -3.653   4.308  1.00  0.00     0.163 HD
BRANCH  36  38
ATOM     38  C   UNL     1     -11.195  -5.411   4.007  1.00  0.00     0.116 C 
BRANCH  38  39
ATOM     39  C   UNL     1     -12.313  -4.779   4.833  1.00  0.00     0.023 C 
BRANCH  39  40
ATOM     40  C   UNL     1     -12.693  -3.390   4.333  1.00  0.00     0.026 C 
BRANCH  40  41
ATOM     41  C   UNL     1     -12.241  -2.315   5.322  1.00  0.00     0.146 C 
BRANCH  41  42
ATOM     42  N   UNL     1     -11.003  -1.706   4.854  1.00  0.00    -0.254 NA
ATOM     43  C   UNL     1     -10.888  -0.431   4.849  1.00  0.00     0.185 C 
ATOM     44  N   UNL     1     -11.764   0.519   5.224  1.00  0.00    -0.370 N 
ATOM     45  N   UNL     1      -9.740   0.111   4.409  1.00  0.00    -0.370 N 
ATOM     46  H   UNL     1     -11.637   1.475   4.939  1.00  0.00     0.159 HD
ATOM     47  H   UNL     1     -12.679   0.283   5.595  1.00  0.00     0.159 HD
ATOM     48  H   UNL     1      -9.022  -0.536   4.115  1.00  0.00     0.159 HD
ATOM     49  H   UNL     1      -9.484   1.065   4.592  1.00  0.00     0.159 HD
ENDBRANCH  41  42
ENDBRANCH  40  41
ENDBRANCH  39  40
ENDBRANCH  38  39
ENDBRANCH  36  38
ENDBRANCH   5  34
BRANCH   8  50
ATOM     50  O   UNL     1      -8.042  -5.735  -1.862  1.00  0.00    -0.245 OA
BRANCH  50  51
ATOM     51  S   UNL     1      -8.160  -7.357  -1.890  1.00  0.00     0.397 S 
ATOM     52  O   UNL     1      -6.822  -7.901  -1.956  1.00  0.00    -0.169 OA
ATOM     53  O   UNL     1      -9.187  -7.754  -2.830  1.00  0.00    -0.169 OA
BRANCH  51  54
ATOM     54  O   UNL     1      -8.692  -7.681  -0.408  1.00  0.00    -0.264 OA
ATOM     55  H   UNL     1      -9.593  -8.054  -0.489  1.00  0.00     0.236 HD
ENDBRANCH  51  54
ENDBRANCH  50  51
ENDBRANCH   8  50
TORSDOF 19
ENDMDL
MODEL 47
REMARK VINA RESULT:    -6.331      5.123      9.079
REMARK INTER + INTRA:         -16.021
REMARK INTER:                 -13.591
REMARK INTRA:                  -2.430
REMARK UNBOUND:                -3.213
REMARK SMILES CC[C@@H](C)[C@@H](NC(=O)[C@@H](O)Cc1ccc(O)c(Cl)c1)C(=O)N1[C@H](C(=O)NCCCCN=C(N)N)C[C@H]2CC[C@H](OS(=O)(=O)O)C[C@@H]21
REMARK SMILES IDX 22 1 36 2 46 3 35 4 23 5 45 6 37 7 39 8 38 9 20 10 21 11
REMARK SMILES IDX 5 12 6 13 7 14 8 15 9 17 11 18 12 19 17 20 19 21 15 22 14 23
REMARK SMILES IDX 13 24 18 25 16 26 10 28 3 30 4 31 2 32 1 33 24 34 25 35
REMARK SMILES IDX 26 36 27 38 28 39 29 40 30 41 31 42 32 43 33 44 34 45 40 50
REMARK SMILES IDX 41 51 42 52 43 53 44 54
REMARK H PARENT 6 16 16 27 10 29 26 37 33 46 33 47 34 48 34 49 44 55
ROOT
ATOM      1  N   UNL     1      -5.298  -3.696  -8.372  1.00  0.00    -0.326 N 
ATOM      2  C   UNL     1      -6.229  -5.756  -7.715  1.00  0.00     0.014 C 
ATOM      3  C   UNL     1      -5.151  -5.136  -8.607  1.00  0.00     0.091 C 
ATOM      4  C   UNL     1      -7.350  -4.730  -7.781  1.00  0.00     0.041 C 
ATOM      5  C   UNL     1      -6.541  -3.432  -7.606  1.00  0.00     0.175 C 
ATOM      6  C   UNL     1      -3.812  -5.791  -8.273  1.00  0.00     0.059 C 
ATOM      7  C   UNL     1      -6.510  -7.190  -8.120  1.00  0.00     0.008 C 
ATOM      8  C   UNL     1      -3.935  -7.264  -7.826  1.00  0.00     0.143 C 
ATOM      9  C   UNL     1      -5.192  -7.942  -8.406  1.00  0.00     0.034 C 
ENDROOT
BRANCH   1  10
ATOM     10  C   UNL     1      -4.604  -2.632  -8.921  1.00  0.00     0.246 C 
ATOM     11  O   UNL     1      -5.105  -2.010  -9.864  1.00  0.00    -0.272 OA
BRANCH  10  12
ATOM     12  C   UNL     1      -3.233  -2.215  -8.315  1.00  0.00     0.174 C 
BRANCH  12  13
ATOM     13  N   UNL     1      -2.982  -0.798  -8.575  1.00  0.00    -0.342 N 
ATOM     14  C   UNL     1      -2.784   0.160  -7.607  1.00  0.00     0.249 C 
ATOM     15  O   UNL     1      -2.769  -0.077  -6.405  1.00  0.00    -0.272 OA
ATOM     16  H   UNL     1      -3.121  -0.426  -9.511  1.00  0.00     0.164 HD
BRANCH  14  17
ATOM     17  C   UNL     1      -2.562   1.568  -8.199  1.00  0.00     0.207 C 
BRANCH  17  18
ATOM     18  C   UNL     1      -1.789   1.479  -9.519  1.00  0.00     0.077 C 
BRANCH  18  19
ATOM     19  C   UNL     1      -0.295   1.569  -9.302  1.00  0.00    -0.043 A 
ATOM     20  C   UNL     1       1.789   2.792  -9.510  1.00  0.00     0.083 A 
ATOM     21  C   UNL     1       0.404   2.730  -9.665  1.00  0.00     0.028 A 
ATOM     22  C   UNL     1       2.483   1.696  -8.995  1.00  0.00     0.134 A 
ATOM     23  C   UNL     1       1.803   0.540  -8.631  1.00  0.00     0.048 A 
ATOM     24  C   UNL     1       0.417   0.475  -8.787  1.00  0.00     0.008 A 
ATOM     25  Cl  UNL     1       2.631   4.227  -9.962  1.00  0.00    -0.080 Cl
BRANCH  22  26
ATOM     26  O   UNL     1       3.842   1.706  -8.834  1.00  0.00    -0.506 OA
ATOM     27  H   UNL     1       4.133   2.628  -8.960  1.00  0.00     0.293 HD
ENDBRANCH  22  26
ENDBRANCH  18  19
ENDBRANCH  17  18
BRANCH  17  28
ATOM     28  O   UNL     1      -1.843   2.408  -7.281  1.00  0.00    -0.383 OA
ATOM     29  H   UNL     1      -2.257   3.298  -7.345  1.00  0.00     0.211 HD
ENDBRANCH  17  28
ENDBRANCH  14  17
ENDBRANCH  12  13
BRANCH  12  30
ATOM     30  C   UNL     1      -2.066  -3.121  -8.793  1.00  0.00     0.018 C 
ATOM     31  C   UNL     1      -1.145  -3.489  -7.619  1.00  0.00     0.010 C 
BRANCH  30  32
ATOM     32  C   UNL     1      -1.237  -2.508  -9.948  1.00  0.00     0.002 C 
ATOM     33  C   UNL     1      -1.797  -2.739 -11.345  1.00  0.00     0.004 C 
ENDBRANCH  30  32
ENDBRANCH  12  30
ENDBRANCH  10  12
ENDBRANCH   1  10
BRANCH   5  34
ATOM     34  C   UNL     1      -6.219  -3.155  -6.113  1.00  0.00     0.242 C 
ATOM     35  O   UNL     1      -5.119  -3.406  -5.620  1.00  0.00    -0.273 OA
ATOM     36  N   UNL     1      -7.267  -2.661  -5.370  1.00  0.00    -0.354 N 
ATOM     37  H   UNL     1      -8.187  -2.587  -5.806  1.00  0.00     0.163 HD
BRANCH  36  38
ATOM     38  C   UNL     1      -7.088  -2.147  -4.027  1.00  0.00     0.116 C 
BRANCH  38  39
ATOM     39  C   UNL     1      -7.249  -3.278  -3.014  1.00  0.00     0.023 C 
BRANCH  39  40
ATOM     40  C   UNL     1      -7.773  -2.786  -1.669  1.00  0.00     0.026 C 
BRANCH  40  41
ATOM     41  C   UNL     1      -8.171  -1.312  -1.749  1.00  0.00     0.146 C 
BRANCH  41  42
ATOM     42  N   UNL     1      -7.269  -0.513  -0.931  1.00  0.00    -0.254 NA
ATOM     43  C   UNL     1      -6.968   0.676  -1.296  1.00  0.00     0.185 C 
ATOM     44  N   UNL     1      -7.362   1.376  -2.376  1.00  0.00    -0.370 N 
ATOM     45  N   UNL     1      -6.131   1.395  -0.530  1.00  0.00    -0.370 N 
ATOM     46  H   UNL     1      -6.862   2.199  -2.665  1.00  0.00     0.159 HD
ATOM     47  H   UNL     1      -8.008   0.987  -3.056  1.00  0.00     0.159 HD
ATOM     48  H   UNL     1      -5.793   0.944   0.310  1.00  0.00     0.159 HD
ATOM     49  H   UNL     1      -6.036   2.391  -0.615  1.00  0.00     0.159 HD
ENDBRANCH  41  42
ENDBRANCH  40  41
ENDBRANCH  39  40
ENDBRANCH  38  39
ENDBRANCH  36  38
ENDBRANCH   5  34
BRANCH   8  50
ATOM     50  O   UNL     1      -3.995  -7.340  -6.401  1.00  0.00    -0.245 OA
BRANCH  50  51
ATOM     51  S   UNL     1      -2.616  -7.350  -5.539  1.00  0.00     0.397 S 
ATOM     52  O   UNL     1      -2.500  -6.075  -4.868  1.00  0.00    -0.169 OA
ATOM     53  O   UNL     1      -1.540  -7.883  -6.349  1.00  0.00    -0.169 OA
BRANCH  51  54
ATOM     54  O   UNL     1      -2.948  -8.423  -4.388  1.00  0.00    -0.264 OA
ATOM     55  H   UNL     1      -2.626  -9.296  -4.692  1.00  0.00     0.236 HD
ENDBRANCH  51  54
ENDBRANCH  50  51
ENDBRANCH   8  50
TORSDOF 19
ENDMDL
MODEL 48
REMARK VINA RESULT:    -6.325      8.672     11.494
REMARK INTER + INTRA:         -16.009
REMARK INTER:                 -12.343
REMARK INTRA:                  -3.666
REMARK UNBOUND:                -3.213
REMARK SMILES CC[C@@H](C)[C@@H](NC(=O)[C@@H](O)Cc1ccc(O)c(Cl)c1)C(=O)N1[C@H](C(=O)NCCCCN=C(N)N)C[C@H]2CC[C@H](OS(=O)(=O)O)C[C@@H]21
REMARK SMILES IDX 22 1 36 2 46 3 35 4 23 5 45 6 37 7 39 8 38 9 20 10 21 11
REMARK SMILES IDX 5 12 6 13 7 14 8 15 9 17 11 18 12 19 17 20 19 21 15 22 14 23
REMARK SMILES IDX 13 24 18 25 16 26 10 28 3 30 4 31 2 32 1 33 24 34 25 35
REMARK SMILES IDX 26 36 27 38 28 39 29 40 30 41 31 42 32 43 33 44 34 45 40 50
REMARK SMILES IDX 41 51 42 52 43 53 44 54
REMARK H PARENT 6 16 16 27 10 29 26 37 33 46 33 47 34 48 34 49 44 55
ROOT
ATOM      1  N   UNL     1      -1.465   2.277 -10.139  1.00  0.00    -0.326 N 
ATOM      2  C   UNL     1       0.124   3.331  -8.758  1.00  0.00     0.014 C 
ATOM      3  C   UNL     1      -0.255   1.978  -9.367  1.00  0.00     0.091 C 
ATOM      4  C   UNL     1      -1.230   3.971  -8.494  1.00  0.00     0.041 C 
ATOM      5  C   UNL     1      -1.949   3.643  -9.816  1.00  0.00     0.175 C 
ATOM      6  C   UNL     1       0.960   1.426 -10.111  1.00  0.00     0.059 C 
ATOM      7  C   UNL     1       1.099   3.154  -7.611  1.00  0.00     0.008 C 
ATOM      8  C   UNL     1       2.311   1.833  -9.483  1.00  0.00     0.143 C 
ATOM      9  C   UNL     1       2.185   2.119  -7.973  1.00  0.00     0.034 C 
ENDROOT
BRANCH   1  10
ATOM     10  C   UNL     1      -2.268   1.438 -10.891  1.00  0.00     0.246 C 
ATOM     11  O   UNL     1      -1.920   1.142 -12.039  1.00  0.00    -0.272 OA
BRANCH  10  12
ATOM     12  C   UNL     1      -3.566   0.851 -10.263  1.00  0.00     0.174 C 
BRANCH  12  13
ATOM     13  N   UNL     1      -3.230   0.031  -9.099  1.00  0.00    -0.342 N 
ATOM     14  C   UNL     1      -3.287   0.455  -7.791  1.00  0.00     0.249 C 
ATOM     15  O   UNL     1      -3.658   1.572  -7.451  1.00  0.00    -0.272 OA
ATOM     16  H   UNL     1      -2.759  -0.861  -9.231  1.00  0.00     0.164 HD
BRANCH  14  17
ATOM     17  C   UNL     1      -2.854  -0.638  -6.791  1.00  0.00     0.207 C 
BRANCH  17  18
ATOM     18  C   UNL     1      -3.867  -1.787  -6.781  1.00  0.00     0.077 C 
BRANCH  18  19
ATOM     19  C   UNL     1      -3.223  -3.108  -7.138  1.00  0.00    -0.043 A 
ATOM     20  C   UNL     1      -3.413  -5.477  -7.621  1.00  0.00     0.083 A 
ATOM     21  C   UNL     1      -4.014  -4.249  -7.341  1.00  0.00     0.028 A 
ATOM     22  C   UNL     1      -2.023  -5.573  -7.699  1.00  0.00     0.134 A 
ATOM     23  C   UNL     1      -1.228  -4.450  -7.500  1.00  0.00     0.048 A 
ATOM     24  C   UNL     1      -1.826  -3.220  -7.218  1.00  0.00     0.008 A 
ATOM     25  Cl  UNL     1      -4.401  -6.869  -7.868  1.00  0.00    -0.080 Cl
BRANCH  22  26
ATOM     26  O   UNL     1      -1.388  -6.757  -7.961  1.00  0.00    -0.506 OA
ATOM     27  H   UNL     1      -0.538  -6.730  -7.485  1.00  0.00     0.293 HD
ENDBRANCH  22  26
ENDBRANCH  18  19
ENDBRANCH  17  18
BRANCH  17  28
ATOM     28  O   UNL     1      -2.726  -0.104  -5.463  1.00  0.00    -0.383 OA
ATOM     29  H   UNL     1      -3.399  -0.570  -4.917  1.00  0.00     0.211 HD
ENDBRANCH  17  28
ENDBRANCH  14  17
ENDBRANCH  12  13
BRANCH  12  30
ATOM     30  C   UNL     1      -4.439   0.087 -11.294  1.00  0.00     0.018 C 
ATOM     31  C   UNL     1      -5.843   0.704 -11.385  1.00  0.00     0.010 C 
BRANCH  30  32
ATOM     32  C   UNL     1      -4.543  -1.433 -11.015  1.00  0.00     0.002 C 
ATOM     33  C   UNL     1      -5.911  -1.918 -10.554  1.00  0.00     0.004 C 
ENDBRANCH  30  32
ENDBRANCH  12  30
ENDBRANCH  10  12
ENDBRANCH   1  10
BRANCH   5  34
ATOM     34  C   UNL     1      -1.565   4.642 -10.939  1.00  0.00     0.242 C 
ATOM     35  O   UNL     1      -1.390   5.841 -10.722  1.00  0.00    -0.273 OA
ATOM     36  N   UNL     1      -1.487   4.101 -12.203  1.00  0.00    -0.354 N 
ATOM     37  H   UNL     1      -1.760   3.127 -12.338  1.00  0.00     0.163 HD
BRANCH  36  38
ATOM     38  C   UNL     1      -0.937   4.833 -13.325  1.00  0.00     0.116 C 
BRANCH  38  39
ATOM     39  C   UNL     1       0.525   4.443 -13.532  1.00  0.00     0.023 C 
BRANCH  39  40
ATOM     40  C   UNL     1       1.373   5.606 -14.033  1.00  0.00     0.026 C 
BRANCH  40  41
ATOM     41  C   UNL     1       2.635   5.762 -13.184  1.00  0.00     0.146 C 
BRANCH  41  42
ATOM     42  N   UNL     1       2.651   7.081 -12.564  1.00  0.00    -0.254 NA
ATOM     43  C   UNL     1       2.524   7.185 -11.295  1.00  0.00     0.185 C 
ATOM     44  N   UNL     1       2.368   6.231 -10.359  1.00  0.00    -0.370 N 
ATOM     45  N   UNL     1       2.537   8.410 -10.743  1.00  0.00    -0.370 N 
ATOM     46  H   UNL     1       2.037   6.464  -9.439  1.00  0.00     0.159 HD
ATOM     47  H   UNL     1       2.349   5.245 -10.602  1.00  0.00     0.159 HD
ATOM     48  H   UNL     1       2.660   9.186 -11.379  1.00  0.00     0.159 HD
ATOM     49  H   UNL     1       2.681   8.563  -9.761  1.00  0.00     0.159 HD
ENDBRANCH  41  42
ENDBRANCH  40  41
ENDBRANCH  39  40
ENDBRANCH  38  39
ENDBRANCH  36  38
ENDBRANCH   5  34
BRANCH   8  50
ATOM     50  O   UNL     1       2.817   3.004 -10.126  1.00  0.00    -0.245 OA
BRANCH  50  51
ATOM     51  S   UNL     1       4.398   3.097 -10.494  1.00  0.00     0.397 S 
ATOM     52  O   UNL     1       5.110   2.170  -9.644  1.00  0.00    -0.169 OA
ATOM     53  O   UNL     1       4.791   4.487 -10.600  1.00  0.00    -0.169 OA
BRANCH  51  54
ATOM     54  O   UNL     1       4.438   2.457 -11.969  1.00  0.00    -0.264 OA
ATOM     55  H   UNL     1       5.310   2.666 -12.362  1.00  0.00     0.236 HD
ENDBRANCH  51  54
ENDBRANCH  50  51
ENDBRANCH   8  50
TORSDOF 19
ENDMDL
MODEL 49
REMARK VINA RESULT:    -6.296      8.978     12.087
REMARK INTER + INTRA:         -15.951
REMARK INTER:                 -11.549
REMARK INTRA:                  -4.402
REMARK UNBOUND:                -3.213
REMARK SMILES CC[C@@H](C)[C@@H](NC(=O)[C@@H](O)Cc1ccc(O)c(Cl)c1)C(=O)N1[C@H](C(=O)NCCCCN=C(N)N)C[C@H]2CC[C@H](OS(=O)(=O)O)C[C@@H]21
REMARK SMILES IDX 22 1 36 2 46 3 35 4 23 5 45 6 37 7 39 8 38 9 20 10 21 11
REMARK SMILES IDX 5 12 6 13 7 14 8 15 9 17 11 18 12 19 17 20 19 21 15 22 14 23
REMARK SMILES IDX 13 24 18 25 16 26 10 28 3 30 4 31 2 32 1 33 24 34 25 35
REMARK SMILES IDX 26 36 27 38 28 39 29 40 30 41 31 42 32 43 33 44 34 45 40 50
REMARK SMILES IDX 41 51 42 52 43 53 44 54
REMARK H PARENT 6 16 16 27 10 29 26 37 33 46 33 47 34 48 34 49 44 55
ROOT
ATOM      1  N   UNL     1     -10.835   0.653   2.628  1.00  0.00    -0.326 N 
ATOM      2  C   UNL     1     -10.313  -0.084   0.454  1.00  0.00     0.014 C 
ATOM      3  C   UNL     1     -10.570   1.176   1.285  1.00  0.00     0.091 C 
ATOM      4  C   UNL     1     -11.256  -1.098   1.083  1.00  0.00     0.041 C 
ATOM      5  C   UNL     1     -10.996  -0.822   2.576  1.00  0.00     0.175 C 
ATOM      6  C   UNL     1      -9.389   2.127   1.099  1.00  0.00     0.059 C 
ATOM      7  C   UNL     1     -10.423   0.213  -1.029  1.00  0.00     0.008 C 
ATOM      8  C   UNL     1      -8.729   2.033  -0.294  1.00  0.00     0.143 C 
ATOM      9  C   UNL     1      -9.718   1.543  -1.371  1.00  0.00     0.034 C 
ENDROOT
BRANCH   1  10
ATOM     10  C   UNL     1     -11.151   1.325   3.797  1.00  0.00     0.246 C 
ATOM     11  O   UNL     1     -10.301   1.411   4.689  1.00  0.00    -0.272 OA
BRANCH  10  12
ATOM     12  C   UNL     1     -12.550   1.992   3.943  1.00  0.00     0.174 C 
BRANCH  12  13
ATOM     13  N   UNL     1     -13.567   1.164   3.297  1.00  0.00    -0.342 N 
ATOM     14  C   UNL     1     -14.246   0.130   3.901  1.00  0.00     0.249 C 
ATOM     15  O   UNL     1     -14.089  -0.197   5.071  1.00  0.00    -0.272 OA
ATOM     16  H   UNL     1     -13.691   1.215   2.289  1.00  0.00     0.164 HD
BRANCH  14  17
ATOM     17  C   UNL     1     -15.245  -0.563   2.950  1.00  0.00     0.207 C 
BRANCH  17  18
ATOM     18  C   UNL     1     -15.605   0.363   1.784  1.00  0.00     0.077 C 
BRANCH  18  19
ATOM     19  C   UNL     1     -15.019  -0.123   0.478  1.00  0.00    -0.043 A 
ATOM     20  C   UNL     1     -14.003   0.346  -1.674  1.00  0.00     0.083 A 
ATOM     21  C   UNL     1     -14.498   0.794  -0.449  1.00  0.00     0.028 A 
ATOM     22  C   UNL     1     -14.025  -1.015  -1.982  1.00  0.00     0.134 A 
ATOM     23  C   UNL     1     -14.537  -1.933  -1.073  1.00  0.00     0.048 A 
ATOM     24  C   UNL     1     -15.036  -1.488   0.154  1.00  0.00     0.008 A 
ATOM     25  Cl  UNL     1     -13.368   1.487  -2.801  1.00  0.00    -0.080 Cl
BRANCH  22  26
ATOM     26  O   UNL     1     -13.560  -1.500  -3.174  1.00  0.00    -0.506 OA
ATOM     27  H   UNL     1     -14.327  -1.551  -3.774  1.00  0.00     0.293 HD
ENDBRANCH  22  26
ENDBRANCH  18  19
ENDBRANCH  17  18
BRANCH  17  28
ATOM     28  O   UNL     1     -16.443  -0.942   3.645  1.00  0.00    -0.383 OA
ATOM     29  H   UNL     1     -16.835  -1.683   3.129  1.00  0.00     0.211 HD
ENDBRANCH  17  28
ENDBRANCH  14  17
ENDBRANCH  12  13
BRANCH  12  30
ATOM     30  C   UNL     1     -12.570   3.459   3.438  1.00  0.00     0.018 C 
ATOM     31  C   UNL     1     -13.119   3.536   2.004  1.00  0.00     0.010 C 
BRANCH  30  32
ATOM     32  C   UNL     1     -11.194   4.164   3.518  1.00  0.00     0.002 C 
ATOM     33  C   UNL     1     -11.106   5.308   4.519  1.00  0.00     0.004 C 
ENDBRANCH  30  32
ENDBRANCH  12  30
ENDBRANCH  10  12
ENDBRANCH   1  10
BRANCH   5  34
ATOM     34  C   UNL     1      -9.710  -1.534   3.074  1.00  0.00     0.242 C 
ATOM     35  O   UNL     1      -8.898  -2.041   2.301  1.00  0.00    -0.273 OA
ATOM     36  N   UNL     1      -9.572  -1.603   4.442  1.00  0.00    -0.354 N 
ATOM     37  H   UNL     1     -10.337  -1.271   5.031  1.00  0.00     0.163 HD
BRANCH  36  38
ATOM     38  C   UNL     1      -8.343  -2.035   5.075  1.00  0.00     0.116 C 
BRANCH  38  39
ATOM     39  C   UNL     1      -8.561  -3.378   5.768  1.00  0.00     0.023 C 
BRANCH  39  40
ATOM     40  C   UNL     1      -8.502  -4.552   4.797  1.00  0.00     0.026 C 
BRANCH  40  41
ATOM     41  C   UNL     1      -9.873  -5.215   4.663  1.00  0.00     0.146 C 
BRANCH  41  42
ATOM     42  N   UNL     1     -10.241  -5.304   3.256  1.00  0.00    -0.254 NA
ATOM     43  C   UNL     1     -11.335  -4.776   2.853  1.00  0.00     0.185 C 
ATOM     44  N   UNL     1     -12.275  -4.102   3.540  1.00  0.00    -0.370 N 
ATOM     45  N   UNL     1     -11.658  -4.873   1.553  1.00  0.00    -0.370 N 
ATOM     46  H   UNL     1     -13.191  -3.958   3.150  1.00  0.00     0.159 HD
ATOM     47  H   UNL     1     -12.183  -3.925   4.536  1.00  0.00     0.159 HD
ATOM     48  H   UNL     1     -10.998  -5.359   0.962  1.00  0.00     0.159 HD
ATOM     49  H   UNL     1     -12.358  -4.296   1.122  1.00  0.00     0.159 HD
ENDBRANCH  41  42
ENDBRANCH  40  41
ENDBRANCH  39  40
ENDBRANCH  38  39
ENDBRANCH  36  38
ENDBRANCH   5  34
BRANCH   8  50
ATOM     50  O   UNL     1      -7.621   1.134  -0.252  1.00  0.00    -0.245 OA
BRANCH  50  51
ATOM     51  S   UNL     1      -6.357   1.369  -1.249  1.00  0.00     0.397 S 
ATOM     52  O   UNL     1      -5.145   1.208  -0.478  1.00  0.00    -0.169 OA
ATOM     53  O   UNL     1      -6.591   2.546  -2.060  1.00  0.00    -0.169 OA
BRANCH  51  54
ATOM     54  O   UNL     1      -6.442   0.082  -2.208  1.00  0.00    -0.264 OA
ATOM     55  H   UNL     1      -5.742  -0.544  -1.929  1.00  0.00     0.236 HD
ENDBRANCH  51  54
ENDBRANCH  50  51
ENDBRANCH   8  50
TORSDOF 19
ENDMDL
MODEL 50
REMARK VINA RESULT:    -6.266      8.845     12.240
REMARK INTER + INTRA:         -15.890
REMARK INTER:                 -10.816
REMARK INTRA:                  -5.074
REMARK UNBOUND:                -3.213
REMARK SMILES CC[C@@H](C)[C@@H](NC(=O)[C@@H](O)Cc1ccc(O)c(Cl)c1)C(=O)N1[C@H](C(=O)NCCCCN=C(N)N)C[C@H]2CC[C@H](OS(=O)(=O)O)C[C@@H]21
REMARK SMILES IDX 22 1 36 2 46 3 35 4 23 5 45 6 37 7 39 8 38 9 20 10 21 11
REMARK SMILES IDX 5 12 6 13 7 14 8 15 9 17 11 18 12 19 17 20 19 21 15 22 14 23
REMARK SMILES IDX 13 24 18 25 16 26 10 28 3 30 4 31 2 32 1 33 24 34 25 35
REMARK SMILES IDX 26 36 27 38 28 39 29 40 30 41 31 42 32 43 33 44 34 45 40 50
REMARK SMILES IDX 41 51 42 52 43 53 44 54
REMARK H PARENT 6 16 16 27 10 29 26 37 33 46 33 47 34 48 34 49 44 55
ROOT
ATOM      1  N   UNL     1      -9.483   1.729   2.014  1.00  0.00    -0.326 N 
ATOM      2  C   UNL     1      -9.593   2.676  -0.139  1.00  0.00     0.014 C 
ATOM      3  C   UNL     1      -8.712   1.814   0.770  1.00  0.00     0.091 C 
ATOM      4  C   UNL     1     -10.232   3.650   0.840  1.00  0.00     0.041 C 
ATOM      5  C   UNL     1     -10.620   2.682   1.973  1.00  0.00     0.175 C 
ATOM      6  C   UNL     1      -8.381   0.518   0.033  1.00  0.00     0.059 C 
ATOM      7  C   UNL     1      -8.798   3.215  -1.312  1.00  0.00     0.008 C 
ATOM      8  C   UNL     1      -8.280   0.682  -1.499  1.00  0.00     0.143 C 
ATOM      9  C   UNL     1      -7.888   2.118  -1.903  1.00  0.00     0.034 C 
ENDROOT
BRANCH   1  10
ATOM     10  C   UNL     1      -9.179   1.093   3.205  1.00  0.00     0.246 C 
ATOM     11  O   UNL     1      -8.673   1.747   4.124  1.00  0.00    -0.272 OA
BRANCH  10  12
ATOM     12  C   UNL     1      -9.517  -0.416   3.377  1.00  0.00     0.174 C 
BRANCH  12  13
ATOM     13  N   UNL     1     -10.094  -0.942   2.140  1.00  0.00    -0.342 N 
ATOM     14  C   UNL     1      -9.835  -2.187   1.614  1.00  0.00     0.249 C 
ATOM     15  O   UNL     1      -9.104  -3.014   2.146  1.00  0.00    -0.272 OA
ATOM     16  H   UNL     1     -10.593  -0.317   1.511  1.00  0.00     0.164 HD
BRANCH  14  17
ATOM     17  C   UNL     1     -10.583  -2.441   0.287  1.00  0.00     0.207 C 
BRANCH  17  18
ATOM     18  C   UNL     1     -11.963  -3.048   0.559  1.00  0.00     0.077 C 
BRANCH  18  19
ATOM     19  C   UNL     1     -13.075  -2.182   0.011  1.00  0.00    -0.043 A 
ATOM     20  C   UNL     1     -15.272  -1.181   0.250  1.00  0.00     0.083 A 
ATOM     21  C   UNL     1     -14.226  -1.940   0.777  1.00  0.00     0.028 A 
ATOM     22  C   UNL     1     -15.176  -0.662  -1.042  1.00  0.00     0.134 A 
ATOM     23  C   UNL     1     -14.041  -0.895  -1.811  1.00  0.00     0.048 A 
ATOM     24  C   UNL     1     -12.994  -1.655  -1.287  1.00  0.00     0.008 A 
ATOM     25  Cl  UNL     1     -16.678  -0.894   1.206  1.00  0.00    -0.080 Cl
BRANCH  22  26
ATOM     26  O   UNL     1     -16.179   0.078  -1.606  1.00  0.00    -0.506 OA
ATOM     27  H   UNL     1     -15.935   0.216  -2.540  1.00  0.00     0.293 HD
ENDBRANCH  22  26
ENDBRANCH  18  19
ENDBRANCH  17  18
BRANCH  17  28
ATOM     28  O   UNL     1      -9.835  -3.321  -0.568  1.00  0.00    -0.383 OA
ATOM     29  H   UNL     1     -10.300  -3.317  -1.435  1.00  0.00     0.211 HD
ENDBRANCH  17  28
ENDBRANCH  14  17
ENDBRANCH  12  13
BRANCH  12  30
ATOM     30  C   UNL     1     -10.415  -0.693   4.613  1.00  0.00     0.018 C 
ATOM     31  C   UNL     1      -9.951  -1.957   5.353  1.00  0.00     0.010 C 
BRANCH  30  32
ATOM     32  C   UNL     1     -11.922  -0.796   4.276  1.00  0.00     0.002 C 
ATOM     33  C   UNL     1     -12.711  -1.789   5.120  1.00  0.00     0.004 C 
ENDBRANCH  30  32
ENDBRANCH  12  30
ENDBRANCH  10  12
ENDBRANCH   1  10
BRANCH   5  34
ATOM     34  C   UNL     1     -11.948   1.941   1.662  1.00  0.00     0.242 C 
ATOM     35  O   UNL     1     -11.975   0.847   1.100  1.00  0.00    -0.273 OA
ATOM     36  N   UNL     1     -13.093   2.620   2.013  1.00  0.00    -0.354 N 
ATOM     37  H   UNL     1     -13.010   3.575   2.365  1.00  0.00     0.163 HD
BRANCH  36  38
ATOM     38  C   UNL     1     -14.399   1.995   1.995  1.00  0.00     0.116 C 
BRANCH  38  39
ATOM     39  C   UNL     1     -14.730   1.447   3.381  1.00  0.00     0.023 C 
BRANCH  39  40
ATOM     40  C   UNL     1     -15.033   2.552   4.387  1.00  0.00     0.026 C 
BRANCH  40  41
ATOM     41  C   UNL     1     -13.959   2.606   5.474  1.00  0.00     0.146 C 
BRANCH  41  42
ATOM     42  N   UNL     1     -13.002   3.661   5.168  1.00  0.00    -0.254 NA
ATOM     43  C   UNL     1     -11.765   3.496   5.454  1.00  0.00     0.185 C 
ATOM     44  N   UNL     1     -11.141   2.449   6.025  1.00  0.00    -0.370 N 
ATOM     45  N   UNL     1     -10.899   4.482   5.168  1.00  0.00    -0.370 N 
ATOM     46  H   UNL     1     -10.217   2.551   6.410  1.00  0.00     0.159 HD
ATOM     47  H   UNL     1     -11.645   1.610   6.293  1.00  0.00     0.159 HD
ATOM     48  H   UNL     1     -11.287   5.305   4.727  1.00  0.00     0.159 HD
ATOM     49  H   UNL     1      -9.905   4.342   5.139  1.00  0.00     0.159 HD
ENDBRANCH  41  42
ENDBRANCH  40  41
ENDBRANCH  39  40
ENDBRANCH  38  39
ENDBRANCH  36  38
ENDBRANCH   5  34
BRANCH   8  50
ATOM     50  O   UNL     1      -9.532   0.365  -2.109  1.00  0.00    -0.245 OA
BRANCH  50  51
ATOM     51  S   UNL     1      -9.564  -0.583  -3.430  1.00  0.00     0.397 S 
ATOM     52  O   UNL     1      -9.455  -1.958  -2.995  1.00  0.00    -0.169 OA
ATOM     53  O   UNL     1      -8.686  -0.035  -4.443  1.00  0.00    -0.169 OA
BRANCH  51  54
ATOM     54  O   UNL     1     -11.079  -0.403  -3.937  1.00  0.00    -0.264 OA
ATOM     55  H   UNL     1     -11.471   0.346  -3.443  1.00  0.00     0.236 HD
ENDBRANCH  51  54
ENDBRANCH  50  51
ENDBRANCH   8  50
TORSDOF 19
ENDMDL
