MODEL 1
REMARK VINA RESULT:    -6.061      0.000      0.000
REMARK INTER + INTRA:         -20.402
REMARK INTER:                 -15.096
REMARK INTRA:                  -5.307
REMARK UNBOUND:                -5.307
REMARK SMILES CCCCCCC[C@H](N)[C@H](O)C(=O)N[C@H](C)C(=O)N(C)[C@H](CC(C)C)C(=O)N[C@@H](Cc1ccc(O)cc1)C(=O)N[C@@H](Cc1ccc(O)cc1)C(=O)O
REMARK SMILES IDX 18 1 17 2 15 3 16 4 14 5 12 6 13 7 10 9 11 10 8 12 9 13 7 16
REMARK SMILES IDX 6 17 5 18 4 19 3 20 2 21 1 22 19 23 20 24 21 25 22 26 23 27
REMARK SMILES IDX 24 28 25 29 26 30 27 31 28 32 29 34 30 35 31 36 32 37 37 38
REMARK SMILES IDX 33 39 36 40 34 41 35 42 38 44 39 45 40 46 41 48 42 49 43 50
REMARK SMILES IDX 44 51 49 52 45 53 48 54 46 55 47 56 50 58 51 59 52 60
REMARK H PARENT 14 8 11 11 9 14 9 15 28 33 35 43 40 47 47 57 52 61
ROOT
ATOM      1  O   UNL     1      11.373   3.984   0.438  1.00  0.00    -0.272 OA
ATOM      2  C   UNL     1      10.355   3.496   0.951  1.00  0.00     0.245 C 
ENDROOT
BRANCH   2   3
ATOM      3  C   UNL     1       9.793   2.175   0.370  1.00  0.00     0.168 C 
ATOM      4  C   UNL     1       8.271   2.146   0.464  1.00  0.00     0.041 C 
BRANCH   3   5
ATOM      5  N   UNL     1      10.259   1.849  -0.969  1.00  0.00    -0.342 N 
ATOM      6  C   UNL     1      10.836   0.631  -1.262  1.00  0.00     0.251 C 
ATOM      7  O   UNL     1      11.036  -0.242  -0.425  1.00  0.00    -0.272 OA
ATOM      8  H   UNL     1      10.179   2.507  -1.740  1.00  0.00     0.164 HD
BRANCH   6   9
ATOM      9  C   UNL     1      11.120   0.454  -2.763  1.00  0.00     0.219 C 
BRANCH   9  10
ATOM     10  O   UNL     1      11.040  -0.914  -3.183  1.00  0.00    -0.382 OA
ATOM     11  H   UNL     1      11.788  -1.006  -3.814  1.00  0.00     0.211 HD
ENDBRANCH   9  10
BRANCH   9  12
ATOM     12  C   UNL     1      10.236   1.358  -3.661  1.00  0.00     0.089 C 
BRANCH  12  13
ATOM     13  N   UNL     1      10.944   1.579  -4.943  1.00  0.00    -0.325 NA
ATOM     14  H   UNL     1      11.931   1.763  -4.754  1.00  0.00     0.119 HD
ATOM     15  H   UNL     1      10.590   2.437  -5.372  1.00  0.00     0.119 HD
ENDBRANCH  12  13
BRANCH  12  16
ATOM     16  C   UNL     1       8.799   0.850  -3.928  1.00  0.00     0.022 C 
BRANCH  16  17
ATOM     17  C   UNL     1       7.617   1.570  -3.265  1.00  0.00     0.002 C 
BRANCH  17  18
ATOM     18  C   UNL     1       6.240   1.173  -3.795  1.00  0.00     0.000 C 
BRANCH  18  19
ATOM     19  C   UNL     1       5.072   1.663  -2.929  1.00  0.00    -0.000 C 
BRANCH  19  20
ATOM     20  C   UNL     1       5.000   1.049  -1.528  1.00  0.00    -0.000 C 
BRANCH  20  21
ATOM     21  C   UNL     1       3.956   1.721  -0.632  1.00  0.00    -0.003 C 
ATOM     22  C   UNL     1       2.848   0.752  -0.249  1.00  0.00     0.004 C 
ENDBRANCH  20  21
ENDBRANCH  19  20
ENDBRANCH  18  19
ENDBRANCH  17  18
ENDBRANCH  16  17
ENDBRANCH  12  16
ENDBRANCH   9  12
ENDBRANCH   6   9
ENDBRANCH   3   5
ENDBRANCH   2   3
BRANCH   2  23
ATOM     23  N   UNL     1       9.813   4.066   2.097  1.00  0.00    -0.332 N 
ATOM     24  C   UNL     1       9.598   3.357   3.350  1.00  0.00     0.147 C 
BRANCH  23  25
ATOM     25  C   UNL     1       9.526   5.526   2.147  1.00  0.00     0.174 C 
BRANCH  25  26
ATOM     26  C   UNL     1       9.124   6.013   3.559  1.00  0.00     0.038 C 
BRANCH  26  27
ATOM     27  C   UNL     1       9.959   7.161   4.168  1.00  0.00    -0.015 C 
ATOM     28  C   UNL     1      11.460   6.876   4.130  1.00  0.00     0.007 C 
ATOM     29  C   UNL     1       9.656   8.525   3.553  1.00  0.00     0.007 C 
ENDBRANCH  26  27
ENDBRANCH  25  26
BRANCH  25  30
ATOM     30  C   UNL     1       8.510   5.907   1.045  1.00  0.00     0.243 C 
ATOM     31  O   UNL     1       8.835   6.576   0.065  1.00  0.00    -0.273 OA
ATOM     32  N   UNL     1       7.230   5.456   1.238  1.00  0.00    -0.342 N 
ATOM     33  H   UNL     1       7.071   4.791   1.999  1.00  0.00     0.164 HD
BRANCH  32  34
ATOM     34  C   UNL     1       6.131   5.744   0.312  1.00  0.00     0.175 C 
BRANCH  34  35
ATOM     35  C   UNL     1       5.923   4.592  -0.683  1.00  0.00     0.070 C 
BRANCH  35  36
ATOM     36  C   UNL     1       6.306   4.965  -2.098  1.00  0.00    -0.045 A 
ATOM     37  C   UNL     1       7.654   4.950  -2.487  1.00  0.00     0.007 A 
ATOM     38  C   UNL     1       5.332   5.350  -3.028  1.00  0.00     0.007 A 
ATOM     39  C   UNL     1       8.018   5.306  -3.786  1.00  0.00     0.046 A 
ATOM     40  C   UNL     1       5.696   5.707  -4.329  1.00  0.00     0.046 A 
ATOM     41  C   UNL     1       7.037   5.681  -4.696  1.00  0.00     0.115 A 
BRANCH  41  42
ATOM     42  O   UNL     1       7.435   6.024  -5.954  1.00  0.00    -0.508 OA
ATOM     43  H   UNL     1       7.537   5.210  -6.474  1.00  0.00     0.293 HD
ENDBRANCH  41  42
ENDBRANCH  35  36
ENDBRANCH  34  35
BRANCH  34  44
ATOM     44  C   UNL     1       4.861   6.022   1.147  1.00  0.00     0.243 C 
ATOM     45  O   UNL     1       4.493   7.139   1.500  1.00  0.00    -0.273 OA
ATOM     46  N   UNL     1       4.230   4.876   1.584  1.00  0.00    -0.341 N 
ATOM     47  H   UNL     1       4.640   3.972   1.363  1.00  0.00     0.164 HD
BRANCH  46  48
ATOM     48  C   UNL     1       3.047   4.887   2.447  1.00  0.00     0.196 C 
BRANCH  48  49
ATOM     49  C   UNL     1       2.327   3.528   2.427  1.00  0.00     0.072 C 
BRANCH  49  50
ATOM     50  C   UNL     1       0.841   3.660   2.178  1.00  0.00    -0.045 A 
ATOM     51  C   UNL     1       0.162   4.813   2.598  1.00  0.00     0.007 A 
ATOM     52  C   UNL     1       0.122   2.635   1.550  1.00  0.00     0.007 A 
ATOM     53  C   UNL     1      -1.211   4.940   2.386  1.00  0.00     0.046 A 
ATOM     54  C   UNL     1      -1.253   2.762   1.339  1.00  0.00     0.046 A 
ATOM     55  C   UNL     1      -1.907   3.915   1.758  1.00  0.00     0.115 A 
BRANCH  55  56
ATOM     56  O   UNL     1      -3.248   4.077   1.571  1.00  0.00    -0.508 OA
ATOM     57  H   UNL     1      -3.417   5.009   1.360  1.00  0.00     0.293 HD
ENDBRANCH  55  56
ENDBRANCH  49  50
ENDBRANCH  48  49
BRANCH  48  58
ATOM     58  C   UNL     1       3.478   5.221   3.881  1.00  0.00     0.326 C 
ATOM     59  O   UNL     1       3.868   4.442   4.736  1.00  0.00    -0.250 OA
BRANCH  58  60
ATOM     60  O   UNL     1       3.410   6.544   4.173  1.00  0.00    -0.480 OA
ATOM     61  H   UNL     1       3.603   6.574   5.135  1.00  0.00     0.296 HD
ENDBRANCH  58  60
ENDBRANCH  48  58
ENDBRANCH  46  48
ENDBRANCH  34  44
ENDBRANCH  32  34
ENDBRANCH  25  30
ENDBRANCH  23  25
ENDBRANCH   2  23
TORSDOF 28
ENDMDL
MODEL 2
REMARK VINA RESULT:    -6.061      1.624      2.896
REMARK INTER + INTRA:         -20.402
REMARK INTER:                 -14.934
REMARK INTRA:                  -5.468
REMARK UNBOUND:                -5.307
REMARK SMILES CCCCCCC[C@H](N)[C@H](O)C(=O)N[C@H](C)C(=O)N(C)[C@H](CC(C)C)C(=O)N[C@@H](Cc1ccc(O)cc1)C(=O)N[C@@H](Cc1ccc(O)cc1)C(=O)O
REMARK SMILES IDX 18 1 17 2 15 3 16 4 14 5 12 6 13 7 10 9 11 10 8 12 9 13 7 16
REMARK SMILES IDX 6 17 5 18 4 19 3 20 2 21 1 22 19 23 20 24 21 25 22 26 23 27
REMARK SMILES IDX 24 28 25 29 26 30 27 31 28 32 29 34 30 35 31 36 32 37 37 38
REMARK SMILES IDX 33 39 36 40 34 41 35 42 38 44 39 45 40 46 41 48 42 49 43 50
REMARK SMILES IDX 44 51 49 52 45 53 48 54 46 55 47 56 50 58 51 59 52 60
REMARK H PARENT 14 8 11 11 9 14 9 15 28 33 35 43 40 47 47 57 52 61
ROOT
ATOM      1  O   UNL     1      10.800   4.034   0.166  1.00  0.00    -0.272 OA
ATOM      2  C   UNL     1       9.902   3.437   0.778  1.00  0.00     0.245 C 
ENDROOT
BRANCH   2   3
ATOM      3  C   UNL     1       9.487   2.025   0.294  1.00  0.00     0.168 C 
ATOM      4  C   UNL     1       7.984   1.819   0.451  1.00  0.00     0.041 C 
BRANCH   3   5
ATOM      5  N   UNL     1       9.945   1.678  -1.042  1.00  0.00    -0.342 N 
ATOM      6  C   UNL     1      10.736   0.573  -1.276  1.00  0.00     0.251 C 
ATOM      7  O   UNL     1      11.143  -0.168  -0.388  1.00  0.00    -0.272 OA
ATOM      8  H   UNL     1       9.700   2.238  -1.855  1.00  0.00     0.164 HD
BRANCH   6   9
ATOM      9  C   UNL     1      10.978   0.322  -2.773  1.00  0.00     0.219 C 
BRANCH   9  10
ATOM     10  O   UNL     1      12.194  -0.393  -3.024  1.00  0.00    -0.382 OA
ATOM     11  H   UNL     1      11.889  -1.228  -3.442  1.00  0.00     0.211 HD
ENDBRANCH   9  10
BRANCH   9  12
ATOM     12  C   UNL     1       9.780  -0.365  -3.478  1.00  0.00     0.089 C 
BRANCH  12  13
ATOM     13  N   UNL     1       8.923  -0.987  -2.442  1.00  0.00    -0.325 NA
ATOM     14  H   UNL     1       8.243  -0.300  -2.111  1.00  0.00     0.119 HD
ATOM     15  H   UNL     1       9.498  -1.208  -1.626  1.00  0.00     0.119 HD
ENDBRANCH  12  13
BRANCH  12  16
ATOM     16  C   UNL     1       8.927   0.537  -4.401  1.00  0.00     0.022 C 
BRANCH  16  17
ATOM     17  C   UNL     1       8.145   1.707  -3.787  1.00  0.00     0.002 C 
BRANCH  17  18
ATOM     18  C   UNL     1       8.615   3.094  -4.218  1.00  0.00     0.000 C 
BRANCH  18  19
ATOM     19  C   UNL     1       8.544   4.151  -3.108  1.00  0.00    -0.000 C 
BRANCH  19  20
ATOM     20  C   UNL     1       7.770   5.422  -3.469  1.00  0.00    -0.000 C 
BRANCH  20  21
ATOM     21  C   UNL     1       7.193   5.390  -4.887  1.00  0.00    -0.003 C 
ATOM     22  C   UNL     1       5.860   6.118  -4.960  1.00  0.00     0.004 C 
ENDBRANCH  20  21
ENDBRANCH  19  20
ENDBRANCH  18  19
ENDBRANCH  17  18
ENDBRANCH  16  17
ENDBRANCH  12  16
ENDBRANCH   9  12
ENDBRANCH   6   9
ENDBRANCH   3   5
ENDBRANCH   2   3
BRANCH   2  23
ATOM     23  N   UNL     1       9.374   3.982   1.944  1.00  0.00    -0.332 N 
ATOM     24  C   UNL     1       9.383   3.322   3.241  1.00  0.00     0.147 C 
BRANCH  23  25
ATOM     25  C   UNL     1       8.864   5.380   1.956  1.00  0.00     0.174 C 
BRANCH  25  26
ATOM     26  C   UNL     1       8.677   5.941   3.385  1.00  0.00     0.038 C 
BRANCH  26  27
ATOM     27  C   UNL     1       9.566   7.138   3.790  1.00  0.00    -0.015 C 
ATOM     28  C   UNL     1      10.874   7.187   3.001  1.00  0.00     0.007 C 
ATOM     29  C   UNL     1       8.846   8.482   3.719  1.00  0.00     0.007 C 
ENDBRANCH  26  27
ENDBRANCH  25  26
BRANCH  25  30
ATOM     30  C   UNL     1       7.600   5.493   1.073  1.00  0.00     0.243 C 
ATOM     31  O   UNL     1       7.621   6.045  -0.026  1.00  0.00    -0.273 OA
ATOM     32  N   UNL     1       6.459   4.944   1.599  1.00  0.00    -0.342 N 
ATOM     33  H   UNL     1       6.552   4.381   2.449  1.00  0.00     0.164 HD
BRANCH  32  34
ATOM     34  C   UNL     1       5.163   4.981   0.916  1.00  0.00     0.175 C 
BRANCH  34  35
ATOM     35  C   UNL     1       4.495   3.597   0.909  1.00  0.00     0.070 C 
BRANCH  35  36
ATOM     36  C   UNL     1       4.494   2.956  -0.460  1.00  0.00    -0.045 A 
ATOM     37  C   UNL     1       4.035   1.639  -0.618  1.00  0.00     0.007 A 
ATOM     38  C   UNL     1       4.969   3.651  -1.580  1.00  0.00     0.007 A 
ATOM     39  C   UNL     1       4.043   1.034  -1.875  1.00  0.00     0.046 A 
ATOM     40  C   UNL     1       4.979   3.045  -2.839  1.00  0.00     0.046 A 
ATOM     41  C   UNL     1       4.514   1.741  -2.975  1.00  0.00     0.115 A 
BRANCH  41  42
ATOM     42  O   UNL     1       4.508   1.113  -4.185  1.00  0.00    -0.508 OA
ATOM     43  H   UNL     1       4.929   0.243  -4.079  1.00  0.00     0.293 HD
ENDBRANCH  41  42
ENDBRANCH  35  36
ENDBRANCH  34  35
BRANCH  34  44
ATOM     44  C   UNL     1       4.283   6.042   1.615  1.00  0.00     0.243 C 
ATOM     45  O   UNL     1       4.558   7.237   1.680  1.00  0.00    -0.273 OA
ATOM     46  N   UNL     1       3.205   5.506   2.287  1.00  0.00    -0.341 N 
ATOM     47  H   UNL     1       3.085   4.496   2.301  1.00  0.00     0.164 HD
BRANCH  46  48
ATOM     48  C   UNL     1       2.269   6.307   3.078  1.00  0.00     0.196 C 
BRANCH  48  49
ATOM     49  C   UNL     1       0.872   5.665   3.113  1.00  0.00     0.072 C 
BRANCH  49  50
ATOM     50  C   UNL     1       0.785   4.416   2.266  1.00  0.00    -0.045 A 
ATOM     51  C   UNL     1      -0.051   4.391   1.140  1.00  0.00     0.007 A 
ATOM     52  C   UNL     1       1.514   3.267   2.599  1.00  0.00     0.007 A 
ATOM     53  C   UNL     1      -0.149   3.239   0.359  1.00  0.00     0.046 A 
ATOM     54  C   UNL     1       1.415   2.113   1.818  1.00  0.00     0.046 A 
ATOM     55  C   UNL     1       0.584   2.110   0.703  1.00  0.00     0.115 A 
BRANCH  55  56
ATOM     56  O   UNL     1       0.458   1.005  -0.085  1.00  0.00    -0.508 OA
ATOM     57  H   UNL     1      -0.482   0.768  -0.133  1.00  0.00     0.293 HD
ENDBRANCH  55  56
ENDBRANCH  49  50
ENDBRANCH  48  49
BRANCH  48  58
ATOM     58  C   UNL     1       2.810   6.440   4.508  1.00  0.00     0.326 C 
ATOM     59  O   UNL     1       2.566   7.325   5.312  1.00  0.00    -0.250 OA
BRANCH  58  60
ATOM     60  O   UNL     1       3.636   5.426   4.870  1.00  0.00    -0.480 OA
ATOM     61  H   UNL     1       3.990   5.721   5.737  1.00  0.00     0.296 HD
ENDBRANCH  58  60
ENDBRANCH  48  58
ENDBRANCH  46  48
ENDBRANCH  34  44
ENDBRANCH  32  34
ENDBRANCH  25  30
ENDBRANCH  23  25
ENDBRANCH   2  23
TORSDOF 28
ENDMDL
MODEL 3
REMARK VINA RESULT:    -6.059      2.441      5.906
REMARK INTER + INTRA:         -20.399
REMARK INTER:                 -13.864
REMARK INTRA:                  -6.535
REMARK UNBOUND:                -5.307
REMARK SMILES CCCCCCC[C@H](N)[C@H](O)C(=O)N[C@H](C)C(=O)N(C)[C@H](CC(C)C)C(=O)N[C@@H](Cc1ccc(O)cc1)C(=O)N[C@@H](Cc1ccc(O)cc1)C(=O)O
REMARK SMILES IDX 18 1 17 2 15 3 16 4 14 5 12 6 13 7 10 9 11 10 8 12 9 13 7 16
REMARK SMILES IDX 6 17 5 18 4 19 3 20 2 21 1 22 19 23 20 24 21 25 22 26 23 27
REMARK SMILES IDX 24 28 25 29 26 30 27 31 28 32 29 34 30 35 31 36 32 37 37 38
REMARK SMILES IDX 33 39 36 40 34 41 35 42 38 44 39 45 40 46 41 48 42 49 43 50
REMARK SMILES IDX 44 51 49 52 45 53 48 54 46 55 47 56 50 58 51 59 52 60
REMARK H PARENT 14 8 11 11 9 14 9 15 28 33 35 43 40 47 47 57 52 61
ROOT
ATOM      1  O   UNL     1       7.164   3.410  -6.968  1.00  0.00    -0.272 OA
ATOM      2  C   UNL     1       7.213   2.904  -5.838  1.00  0.00     0.245 C 
ENDROOT
BRANCH   2   3
ATOM      3  C   UNL     1       8.592   2.473  -5.279  1.00  0.00     0.168 C 
ATOM      4  C   UNL     1       9.525   3.672  -5.155  1.00  0.00     0.041 C 
BRANCH   3   5
ATOM      5  N   UNL     1       8.538   1.699  -4.048  1.00  0.00    -0.342 N 
ATOM      6  C   UNL     1       9.208   0.501  -3.911  1.00  0.00     0.251 C 
ATOM      7  O   UNL     1       9.857  -0.018  -4.814  1.00  0.00    -0.272 OA
ATOM      8  H   UNL     1       8.003   2.011  -3.241  1.00  0.00     0.164 HD
BRANCH   6   9
ATOM      9  C   UNL     1       9.125  -0.066  -2.485  1.00  0.00     0.219 C 
BRANCH   9  10
ATOM     10  O   UNL     1       8.790  -1.459  -2.464  1.00  0.00    -0.382 OA
ATOM     11  H   UNL     1       9.552  -1.887  -2.911  1.00  0.00     0.211 HD
ENDBRANCH   9  10
BRANCH   9  12
ATOM     12  C   UNL     1      10.401   0.206  -1.646  1.00  0.00     0.089 C 
BRANCH  12  13
ATOM     13  N   UNL     1      11.565   0.234  -2.562  1.00  0.00    -0.325 NA
ATOM     14  H   UNL     1      11.378  -0.373  -3.362  1.00  0.00     0.119 HD
ATOM     15  H   UNL     1      12.369  -0.186  -2.089  1.00  0.00     0.119 HD
ENDBRANCH  12  13
BRANCH  12  16
ATOM     16  C   UNL     1      10.380   1.484  -0.774  1.00  0.00     0.022 C 
BRANCH  16  17
ATOM     17  C   UNL     1      11.236   2.687  -1.191  1.00  0.00     0.002 C 
BRANCH  17  18
ATOM     18  C   UNL     1      10.447   3.928  -1.604  1.00  0.00     0.000 C 
BRANCH  18  19
ATOM     19  C   UNL     1       9.991   4.799  -0.427  1.00  0.00    -0.000 C 
BRANCH  19  20
ATOM     20  C   UNL     1       8.891   5.813  -0.755  1.00  0.00    -0.000 C 
BRANCH  20  21
ATOM     21  C   UNL     1       9.234   7.236  -0.308  1.00  0.00    -0.003 C 
ATOM     22  C   UNL     1      10.456   7.253   0.598  1.00  0.00     0.004 C 
ENDBRANCH  20  21
ENDBRANCH  19  20
ENDBRANCH  18  19
ENDBRANCH  17  18
ENDBRANCH  16  17
ENDBRANCH  12  16
ENDBRANCH   9  12
ENDBRANCH   6   9
ENDBRANCH   3   5
ENDBRANCH   2   3
BRANCH   2  23
ATOM     23  N   UNL     1       6.068   2.844  -5.051  1.00  0.00    -0.332 N 
ATOM     24  C   UNL     1       5.258   1.649  -4.861  1.00  0.00     0.147 C 
BRANCH  23  25
ATOM     25  C   UNL     1       5.661   4.014  -4.227  1.00  0.00     0.174 C 
BRANCH  25  26
ATOM     26  C   UNL     1       6.268   5.345  -4.729  1.00  0.00     0.038 C 
BRANCH  26  27
ATOM     27  C   UNL     1       6.707   6.364  -3.653  1.00  0.00    -0.015 C 
ATOM     28  C   UNL     1       7.963   7.135  -4.056  1.00  0.00     0.007 C 
ATOM     29  C   UNL     1       5.596   7.326  -3.240  1.00  0.00     0.007 C 
ENDBRANCH  26  27
ENDBRANCH  25  26
BRANCH  25  30
ATOM     30  C   UNL     1       5.932   3.732  -2.731  1.00  0.00     0.243 C 
ATOM     31  O   UNL     1       7.015   3.302  -2.337  1.00  0.00    -0.273 OA
ATOM     32  N   UNL     1       4.888   3.985  -1.880  1.00  0.00    -0.342 N 
ATOM     33  H   UNL     1       4.073   4.472  -2.262  1.00  0.00     0.164 HD
BRANCH  32  34
ATOM     34  C   UNL     1       4.955   3.751  -0.435  1.00  0.00     0.175 C 
BRANCH  34  35
ATOM     35  C   UNL     1       4.537   5.001   0.354  1.00  0.00     0.070 C 
BRANCH  35  36
ATOM     36  C   UNL     1       5.625   5.502   1.276  1.00  0.00    -0.045 A 
ATOM     37  C   UNL     1       5.706   6.867   1.590  1.00  0.00     0.007 A 
ATOM     38  C   UNL     1       6.577   4.623   1.809  1.00  0.00     0.007 A 
ATOM     39  C   UNL     1       6.715   7.341   2.429  1.00  0.00     0.046 A 
ATOM     40  C   UNL     1       7.589   5.096   2.648  1.00  0.00     0.046 A 
ATOM     41  C   UNL     1       7.647   6.452   2.952  1.00  0.00     0.115 A 
BRANCH  41  42
ATOM     42  O   UNL     1       8.619   6.956   3.765  1.00  0.00    -0.508 OA
ATOM     43  H   UNL     1       8.657   7.918   3.635  1.00  0.00     0.293 HD
ENDBRANCH  41  42
ENDBRANCH  35  36
ENDBRANCH  34  35
BRANCH  34  44
ATOM     44  C   UNL     1       4.062   2.534  -0.105  1.00  0.00     0.243 C 
ATOM     45  O   UNL     1       4.333   1.374  -0.402  1.00  0.00    -0.273 OA
ATOM     46  N   UNL     1       2.847   2.879   0.448  1.00  0.00    -0.341 N 
ATOM     47  H   UNL     1       2.620   3.863   0.568  1.00  0.00     0.164 HD
BRANCH  46  48
ATOM     48  C   UNL     1       1.808   1.903   0.782  1.00  0.00     0.196 C 
BRANCH  48  49
ATOM     49  C   UNL     1       1.004   2.342   2.018  1.00  0.00     0.072 C 
BRANCH  49  50
ATOM     50  C   UNL     1       1.570   3.583   2.670  1.00  0.00    -0.045 A 
ATOM     51  C   UNL     1       0.919   4.815   2.512  1.00  0.00     0.007 A 
ATOM     52  C   UNL     1       2.754   3.529   3.417  1.00  0.00     0.007 A 
ATOM     53  C   UNL     1       1.439   5.969   3.097  1.00  0.00     0.046 A 
ATOM     54  C   UNL     1       3.275   4.684   4.003  1.00  0.00     0.046 A 
ATOM     55  C   UNL     1       2.612   5.896   3.838  1.00  0.00     0.115 A 
BRANCH  55  56
ATOM     56  O   UNL     1       3.089   7.047   4.392  1.00  0.00    -0.508 OA
ATOM     57  H   UNL     1       2.383   7.713   4.368  1.00  0.00     0.293 HD
ENDBRANCH  55  56
ENDBRANCH  49  50
ENDBRANCH  48  49
BRANCH  48  58
ATOM     58  C   UNL     1       0.863   1.749  -0.418  1.00  0.00     0.326 C 
ATOM     59  O   UNL     1       0.835   0.833  -1.223  1.00  0.00    -0.250 OA
BRANCH  58  60
ATOM     60  O   UNL     1      -0.027   2.766  -0.540  1.00  0.00    -0.480 OA
ATOM     61  H   UNL     1      -0.605   2.656   0.245  1.00  0.00     0.296 HD
ENDBRANCH  58  60
ENDBRANCH  48  58
ENDBRANCH  46  48
ENDBRANCH  34  44
ENDBRANCH  32  34
ENDBRANCH  25  30
ENDBRANCH  23  25
ENDBRANCH   2  23
TORSDOF 28
ENDMDL
MODEL 4
REMARK VINA RESULT:    -6.052      2.610      5.487
REMARK INTER + INTRA:         -20.380
REMARK INTER:                 -14.298
REMARK INTRA:                  -6.082
REMARK UNBOUND:                -5.307
REMARK SMILES CCCCCCC[C@H](N)[C@H](O)C(=O)N[C@H](C)C(=O)N(C)[C@H](CC(C)C)C(=O)N[C@@H](Cc1ccc(O)cc1)C(=O)N[C@@H](Cc1ccc(O)cc1)C(=O)O
REMARK SMILES IDX 18 1 17 2 15 3 16 4 14 5 12 6 13 7 10 9 11 10 8 12 9 13 7 16
REMARK SMILES IDX 6 17 5 18 4 19 3 20 2 21 1 22 19 23 20 24 21 25 22 26 23 27
REMARK SMILES IDX 24 28 25 29 26 30 27 31 28 32 29 34 30 35 31 36 32 37 37 38
REMARK SMILES IDX 33 39 36 40 34 41 35 42 38 44 39 45 40 46 41 48 42 49 43 50
REMARK SMILES IDX 44 51 49 52 45 53 48 54 46 55 47 56 50 58 51 59 52 60
REMARK H PARENT 14 8 11 11 9 14 9 15 28 33 35 43 40 47 47 57 52 61
ROOT
ATOM      1  O   UNL     1       9.385   4.377  -1.754  1.00  0.00    -0.272 OA
ATOM      2  C   UNL     1      10.586   4.509  -2.031  1.00  0.00     0.245 C 
ENDROOT
BRANCH   2   3
ATOM      3  C   UNL     1      11.375   3.268  -2.519  1.00  0.00     0.168 C 
ATOM      4  C   UNL     1      12.761   3.224  -1.886  1.00  0.00     0.041 C 
BRANCH   3   5
ATOM      5  N   UNL     1      10.672   2.002  -2.375  1.00  0.00    -0.342 N 
ATOM      6  C   UNL     1      10.589   1.094  -3.409  1.00  0.00     0.251 C 
ATOM      7  O   UNL     1      11.055   1.296  -4.526  1.00  0.00    -0.272 OA
ATOM      8  H   UNL     1      10.215   1.739  -1.505  1.00  0.00     0.164 HD
BRANCH   6   9
ATOM      9  C   UNL     1       9.927  -0.227  -2.988  1.00  0.00     0.219 C 
BRANCH   9  10
ATOM     10  O   UNL     1      10.235  -0.594  -1.638  1.00  0.00    -0.382 OA
ATOM     11  H   UNL     1      10.399   0.268  -1.196  1.00  0.00     0.211 HD
ENDBRANCH   9  10
BRANCH   9  12
ATOM     12  C   UNL     1       8.395  -0.244  -3.228  1.00  0.00     0.089 C 
BRANCH  12  13
ATOM     13  N   UNL     1       7.754  -0.972  -2.108  1.00  0.00    -0.325 NA
ATOM     14  H   UNL     1       7.572  -1.936  -2.394  1.00  0.00     0.119 HD
ATOM     15  H   UNL     1       6.832  -0.566  -1.934  1.00  0.00     0.119 HD
ENDBRANCH  12  13
BRANCH  12  16
ATOM     16  C   UNL     1       7.723   1.137  -3.417  1.00  0.00     0.022 C 
BRANCH  16  17
ATOM     17  C   UNL     1       7.409   1.626  -4.838  1.00  0.00     0.002 C 
BRANCH  17  18
ATOM     18  C   UNL     1       6.123   2.438  -4.971  1.00  0.00     0.000 C 
BRANCH  18  19
ATOM     19  C   UNL     1       6.247   3.658  -5.894  1.00  0.00    -0.000 C 
BRANCH  19  20
ATOM     20  C   UNL     1       6.367   5.006  -5.177  1.00  0.00    -0.000 C 
BRANCH  20  21
ATOM     21  C   UNL     1       5.167   5.316  -4.278  1.00  0.00    -0.003 C 
ATOM     22  C   UNL     1       5.588   5.472  -2.825  1.00  0.00     0.004 C 
ENDBRANCH  20  21
ENDBRANCH  19  20
ENDBRANCH  18  19
ENDBRANCH  17  18
ENDBRANCH  16  17
ENDBRANCH  12  16
ENDBRANCH   9  12
ENDBRANCH   6   9
ENDBRANCH   3   5
ENDBRANCH   2   3
BRANCH   2  23
ATOM     23  N   UNL     1      11.168   5.772  -2.019  1.00  0.00    -0.332 N 
ATOM     24  C   UNL     1      11.764   6.418  -3.179  1.00  0.00     0.147 C 
BRANCH  23  25
ATOM     25  C   UNL     1      11.098   6.619  -0.797  1.00  0.00     0.174 C 
BRANCH  25  26
ATOM     26  C   UNL     1      11.980   7.887  -0.892  1.00  0.00     0.038 C 
BRANCH  26  27
ATOM     27  C   UNL     1      11.396   9.192  -0.307  1.00  0.00    -0.015 C 
ATOM     28  C   UNL     1      12.014  10.441  -0.934  1.00  0.00     0.007 C 
ATOM     29  C   UNL     1       9.872   9.257  -0.372  1.00  0.00     0.007 C 
ENDBRANCH  26  27
ENDBRANCH  25  26
BRANCH  25  30
ATOM     30  C   UNL     1      11.373   5.763   0.460  1.00  0.00     0.243 C 
ATOM     31  O   UNL     1      12.489   5.306   0.704  1.00  0.00    -0.273 OA
ATOM     32  N   UNL     1      10.294   5.544   1.277  1.00  0.00    -0.342 N 
ATOM     33  H   UNL     1       9.439   6.072   1.083  1.00  0.00     0.164 HD
BRANCH  32  34
ATOM     34  C   UNL     1      10.362   4.735   2.496  1.00  0.00     0.175 C 
BRANCH  34  35
ATOM     35  C   UNL     1      10.378   5.618   3.753  1.00  0.00     0.070 C 
BRANCH  35  36
ATOM     36  C   UNL     1       9.720   6.961   3.533  1.00  0.00    -0.045 A 
ATOM     37  C   UNL     1       8.332   7.039   3.342  1.00  0.00     0.007 A 
ATOM     38  C   UNL     1      10.480   8.137   3.494  1.00  0.00     0.007 A 
ATOM     39  C   UNL     1       7.717   8.272   3.125  1.00  0.00     0.046 A 
ATOM     40  C   UNL     1       9.865   9.372   3.274  1.00  0.00     0.046 A 
ATOM     41  C   UNL     1       8.487   9.428   3.093  1.00  0.00     0.115 A 
BRANCH  41  42
ATOM     42  O   UNL     1       7.848  10.613   2.875  1.00  0.00    -0.508 OA
ATOM     43  H   UNL     1       7.749  11.067   3.728  1.00  0.00     0.293 HD
ENDBRANCH  41  42
ENDBRANCH  35  36
ENDBRANCH  34  35
BRANCH  34  44
ATOM     44  C   UNL     1       9.162   3.760   2.491  1.00  0.00     0.243 C 
ATOM     45  O   UNL     1       8.900   2.978   3.401  1.00  0.00    -0.273 OA
ATOM     46  N   UNL     1       8.469   3.749   1.300  1.00  0.00    -0.341 N 
ATOM     47  H   UNL     1       8.796   4.332   0.533  1.00  0.00     0.164 HD
BRANCH  46  48
ATOM     48  C   UNL     1       7.337   2.859   1.034  1.00  0.00     0.196 C 
BRANCH  48  49
ATOM     49  C   UNL     1       6.302   3.529   0.115  1.00  0.00     0.072 C 
BRANCH  49  50
ATOM     50  C   UNL     1       5.420   4.513   0.850  1.00  0.00    -0.045 A 
ATOM     51  C   UNL     1       4.215   4.081   1.421  1.00  0.00     0.007 A 
ATOM     52  C   UNL     1       5.779   5.863   0.954  1.00  0.00     0.007 A 
ATOM     53  C   UNL     1       3.387   4.982   2.090  1.00  0.00     0.046 A 
ATOM     54  C   UNL     1       4.950   6.766   1.623  1.00  0.00     0.046 A 
ATOM     55  C   UNL     1       3.760   6.317   2.187  1.00  0.00     0.115 A 
BRANCH  55  56
ATOM     56  O   UNL     1       2.923   7.166   2.848  1.00  0.00    -0.508 OA
ATOM     57  H   UNL     1       2.511   6.681   3.580  1.00  0.00     0.293 HD
ENDBRANCH  55  56
ENDBRANCH  49  50
ENDBRANCH  48  49
BRANCH  48  58
ATOM     58  C   UNL     1       7.856   1.574   0.375  1.00  0.00     0.326 C 
ATOM     59  O   UNL     1       7.274   0.506   0.278  1.00  0.00    -0.250 OA
BRANCH  58  60
ATOM     60  O   UNL     1       9.099   1.701  -0.153  1.00  0.00    -0.480 OA
ATOM     61  H   UNL     1       9.226   0.856  -0.638  1.00  0.00     0.296 HD
ENDBRANCH  58  60
ENDBRANCH  48  58
ENDBRANCH  46  48
ENDBRANCH  34  44
ENDBRANCH  32  34
ENDBRANCH  25  30
ENDBRANCH  23  25
ENDBRANCH   2  23
TORSDOF 28
ENDMDL
MODEL 5
REMARK VINA RESULT:    -5.995      2.360      4.302
REMARK INTER + INTRA:         -20.239
REMARK INTER:                 -15.070
REMARK INTRA:                  -5.169
REMARK UNBOUND:                -5.307
REMARK SMILES CCCCCCC[C@H](N)[C@H](O)C(=O)N[C@H](C)C(=O)N(C)[C@H](CC(C)C)C(=O)N[C@@H](Cc1ccc(O)cc1)C(=O)N[C@@H](Cc1ccc(O)cc1)C(=O)O
REMARK SMILES IDX 18 1 17 2 15 3 16 4 14 5 12 6 13 7 10 9 11 10 8 12 9 13 7 16
REMARK SMILES IDX 6 17 5 18 4 19 3 20 2 21 1 22 19 23 20 24 21 25 22 26 23 27
REMARK SMILES IDX 24 28 25 29 26 30 27 31 28 32 29 34 30 35 31 36 32 37 37 38
REMARK SMILES IDX 33 39 36 40 34 41 35 42 38 44 39 45 40 46 41 48 42 49 43 50
REMARK SMILES IDX 44 51 49 52 45 53 48 54 46 55 47 56 50 58 51 59 52 60
REMARK H PARENT 14 8 11 11 9 14 9 15 28 33 35 43 40 47 47 57 52 61
ROOT
ATOM      1  O   UNL     1       8.132   4.591   3.698  1.00  0.00    -0.272 OA
ATOM      2  C   UNL     1       9.017   5.119   3.009  1.00  0.00     0.245 C 
ENDROOT
BRANCH   2   3
ATOM      3  C   UNL     1      10.164   4.229   2.467  1.00  0.00     0.168 C 
ATOM      4  C   UNL     1      11.283   4.101   3.495  1.00  0.00     0.041 C 
BRANCH   3   5
ATOM      5  N   UNL     1       9.744   2.932   1.959  1.00  0.00    -0.342 N 
ATOM      6  C   UNL     1       9.275   2.771   0.673  1.00  0.00     0.251 C 
ATOM      7  O   UNL     1       9.139   3.699  -0.119  1.00  0.00    -0.272 OA
ATOM      8  H   UNL     1       9.778   2.094   2.535  1.00  0.00     0.164 HD
BRANCH   6   9
ATOM      9  C   UNL     1       9.026   1.298   0.311  1.00  0.00     0.219 C 
BRANCH   9  10
ATOM     10  O   UNL     1       7.684   1.057  -0.130  1.00  0.00    -0.382 OA
ATOM     11  H   UNL     1       7.629   0.077  -0.178  1.00  0.00     0.211 HD
ENDBRANCH   9  10
BRANCH   9  12
ATOM     12  C   UNL     1      10.050   0.741  -0.712  1.00  0.00     0.089 C 
BRANCH  12  13
ATOM     13  N   UNL     1      10.954  -0.196  -0.004  1.00  0.00    -0.325 NA
ATOM     14  H   UNL     1      11.646  -0.557  -0.664  1.00  0.00     0.119 HD
ATOM     15  H   UNL     1      10.416  -1.014   0.293  1.00  0.00     0.119 HD
ENDBRANCH  12  13
BRANCH  12  16
ATOM     16  C   UNL     1       9.454   0.059  -1.966  1.00  0.00     0.022 C 
BRANCH  16  17
ATOM     17  C   UNL     1      10.360  -0.199  -3.178  1.00  0.00     0.002 C 
BRANCH  17  18
ATOM     18  C   UNL     1      10.322   0.885  -4.253  1.00  0.00     0.000 C 
BRANCH  18  19
ATOM     19  C   UNL     1      11.301   2.041  -4.009  1.00  0.00    -0.000 C 
BRANCH  19  20
ATOM     20  C   UNL     1      10.751   3.436  -4.319  1.00  0.00    -0.000 C 
BRANCH  20  21
ATOM     21  C   UNL     1      11.124   4.477  -3.260  1.00  0.00    -0.003 C 
ATOM     22  C   UNL     1      12.014   3.877  -2.183  1.00  0.00     0.004 C 
ENDBRANCH  20  21
ENDBRANCH  19  20
ENDBRANCH  18  19
ENDBRANCH  17  18
ENDBRANCH  16  17
ENDBRANCH  12  16
ENDBRANCH   9  12
ENDBRANCH   6   9
ENDBRANCH   3   5
ENDBRANCH   2   3
BRANCH   2  23
ATOM     23  N   UNL     1       8.905   6.454   2.636  1.00  0.00    -0.332 N 
ATOM     24  C   UNL     1       9.217   7.582   3.500  1.00  0.00     0.147 C 
BRANCH  23  25
ATOM     25  C   UNL     1       8.566   6.815   1.232  1.00  0.00     0.174 C 
BRANCH  25  26
ATOM     26  C   UNL     1       9.053   8.230   0.840  1.00  0.00     0.038 C 
BRANCH  26  27
ATOM     27  C   UNL     1      10.222   8.314  -0.166  1.00  0.00    -0.015 C 
ATOM     28  C   UNL     1      11.145   9.502   0.108  1.00  0.00     0.007 C 
ATOM     29  C   UNL     1      11.027   7.022  -0.272  1.00  0.00     0.007 C 
ENDBRANCH  26  27
ENDBRANCH  25  26
BRANCH  25  30
ATOM     30  C   UNL     1       7.060   6.582   0.971  1.00  0.00     0.243 C 
ATOM     31  O   UNL     1       6.191   7.121   1.655  1.00  0.00    -0.273 OA
ATOM     32  N   UNL     1       6.761   5.733  -0.063  1.00  0.00    -0.342 N 
ATOM     33  H   UNL     1       7.530   5.437  -0.670  1.00  0.00     0.164 HD
BRANCH  32  34
ATOM     34  C   UNL     1       5.390   5.374  -0.436  1.00  0.00     0.175 C 
BRANCH  34  35
ATOM     35  C   UNL     1       5.227   5.301  -1.962  1.00  0.00     0.070 C 
BRANCH  35  36
ATOM     36  C   UNL     1       5.612   3.952  -2.527  1.00  0.00    -0.045 A 
ATOM     37  C   UNL     1       6.961   3.652  -2.771  1.00  0.00     0.007 A 
ATOM     38  C   UNL     1       4.635   2.997  -2.836  1.00  0.00     0.007 A 
ATOM     39  C   UNL     1       7.324   2.416  -3.305  1.00  0.00     0.046 A 
ATOM     40  C   UNL     1       4.998   1.759  -3.372  1.00  0.00     0.046 A 
ATOM     41  C   UNL     1       6.341   1.480  -3.601  1.00  0.00     0.115 A 
BRANCH  41  42
ATOM     42  O   UNL     1       6.738   0.285  -4.125  1.00  0.00    -0.508 OA
ATOM     43  H   UNL     1       6.012  -0.066  -4.667  1.00  0.00     0.293 HD
ENDBRANCH  41  42
ENDBRANCH  35  36
ENDBRANCH  34  35
BRANCH  34  44
ATOM     44  C   UNL     1       5.044   4.032   0.247  1.00  0.00     0.243 C 
ATOM     45  O   UNL     1       5.854   3.134   0.463  1.00  0.00    -0.273 OA
ATOM     46  N   UNL     1       3.695   3.868   0.483  1.00  0.00    -0.341 N 
ATOM     47  H   UNL     1       3.049   4.592   0.179  1.00  0.00     0.164 HD
BRANCH  46  48
ATOM     48  C   UNL     1       3.120   2.650   1.058  1.00  0.00     0.196 C 
BRANCH  48  49
ATOM     49  C   UNL     1       1.833   2.955   1.842  1.00  0.00     0.072 C 
BRANCH  49  50
ATOM     50  C   UNL     1       1.889   4.285   2.558  1.00  0.00    -0.045 A 
ATOM     51  C   UNL     1       0.837   5.201   2.415  1.00  0.00     0.007 A 
ATOM     52  C   UNL     1       2.990   4.630   3.351  1.00  0.00     0.007 A 
ATOM     53  C   UNL     1       0.883   6.437   3.061  1.00  0.00     0.046 A 
ATOM     54  C   UNL     1       3.038   5.868   3.997  1.00  0.00     0.046 A 
ATOM     55  C   UNL     1       1.982   6.761   3.846  1.00  0.00     0.115 A 
BRANCH  55  56
ATOM     56  O   UNL     1       1.991   7.979   4.459  1.00  0.00    -0.508 OA
ATOM     57  H   UNL     1       2.856   8.391   4.309  1.00  0.00     0.293 HD
ENDBRANCH  55  56
ENDBRANCH  49  50
ENDBRANCH  48  49
BRANCH  48  58
ATOM     58  C   UNL     1       2.812   1.660  -0.074  1.00  0.00     0.326 C 
ATOM     59  O   UNL     1       3.397   0.620  -0.326  1.00  0.00    -0.250 OA
BRANCH  58  60
ATOM     60  O   UNL     1       1.753   2.026  -0.840  1.00  0.00    -0.480 OA
ATOM     61  H   UNL     1       1.023   2.114  -0.189  1.00  0.00     0.296 HD
ENDBRANCH  58  60
ENDBRANCH  48  58
ENDBRANCH  46  48
ENDBRANCH  34  44
ENDBRANCH  32  34
ENDBRANCH  25  30
ENDBRANCH  23  25
ENDBRANCH   2  23
TORSDOF 28
ENDMDL
MODEL 6
REMARK VINA RESULT:    -5.984      2.000      3.247
REMARK INTER + INTRA:         -20.211
REMARK INTER:                 -14.974
REMARK INTRA:                  -5.237
REMARK UNBOUND:                -5.307
REMARK SMILES CCCCCCC[C@H](N)[C@H](O)C(=O)N[C@H](C)C(=O)N(C)[C@H](CC(C)C)C(=O)N[C@@H](Cc1ccc(O)cc1)C(=O)N[C@@H](Cc1ccc(O)cc1)C(=O)O
REMARK SMILES IDX 18 1 17 2 15 3 16 4 14 5 12 6 13 7 10 9 11 10 8 12 9 13 7 16
REMARK SMILES IDX 6 17 5 18 4 19 3 20 2 21 1 22 19 23 20 24 21 25 22 26 23 27
REMARK SMILES IDX 24 28 25 29 26 30 27 31 28 32 29 34 30 35 31 36 32 37 37 38
REMARK SMILES IDX 33 39 36 40 34 41 35 42 38 44 39 45 40 46 41 48 42 49 43 50
REMARK SMILES IDX 44 51 49 52 45 53 48 54 46 55 47 56 50 58 51 59 52 60
REMARK H PARENT 14 8 11 11 9 14 9 15 28 33 35 43 40 47 47 57 52 61
ROOT
ATOM      1  O   UNL     1      12.083   4.655   1.755  1.00  0.00    -0.272 OA
ATOM      2  C   UNL     1      10.960   4.553   1.239  1.00  0.00     0.245 C 
ENDROOT
BRANCH   2   3
ATOM      3  C   UNL     1      10.867   4.247  -0.276  1.00  0.00     0.168 C 
ATOM      4  C   UNL     1      11.590   5.315  -1.090  1.00  0.00     0.041 C 
BRANCH   3   5
ATOM      5  N   UNL     1      11.279   2.905  -0.656  1.00  0.00    -0.342 N 
ATOM      6  C   UNL     1      10.438   1.820  -0.524  1.00  0.00     0.251 C 
ATOM      7  O   UNL     1       9.311   1.893  -0.046  1.00  0.00    -0.272 OA
ATOM      8  H   UNL     1      12.205   2.715  -1.033  1.00  0.00     0.164 HD
BRANCH   6   9
ATOM      9  C   UNL     1      11.031   0.532  -1.118  1.00  0.00     0.219 C 
BRANCH   9  10
ATOM     10  O   UNL     1      10.918  -0.588  -0.232  1.00  0.00    -0.382 OA
ATOM     11  H   UNL     1       9.950  -0.663  -0.077  1.00  0.00     0.211 HD
ENDBRANCH   9  10
BRANCH   9  12
ATOM     12  C   UNL     1      10.458   0.188  -2.518  1.00  0.00     0.089 C 
BRANCH  12  13
ATOM     13  N   UNL     1      11.489  -0.561  -3.273  1.00  0.00    -0.325 NA
ATOM     14  H   UNL     1      11.384  -1.559  -3.085  1.00  0.00     0.119 HD
ATOM     15  H   UNL     1      12.412  -0.316  -2.905  1.00  0.00     0.119 HD
ENDBRANCH  12  13
BRANCH  12  16
ATOM     16  C   UNL     1       9.121  -0.590  -2.530  1.00  0.00     0.022 C 
BRANCH  16  17
ATOM     17  C   UNL     1       7.829   0.151  -2.901  1.00  0.00     0.002 C 
BRANCH  17  18
ATOM     18  C   UNL     1       7.769   0.664  -4.338  1.00  0.00     0.000 C 
BRANCH  18  19
ATOM     19  C   UNL     1       7.842   2.192  -4.459  1.00  0.00    -0.000 C 
BRANCH  19  20
ATOM     20  C   UNL     1       8.211   2.930  -3.169  1.00  0.00    -0.000 C 
BRANCH  20  21
ATOM     21  C   UNL     1       8.785   4.327  -3.420  1.00  0.00    -0.003 C 
ATOM     22  C   UNL     1       8.235   4.929  -4.704  1.00  0.00     0.004 C 
ENDBRANCH  20  21
ENDBRANCH  19  20
ENDBRANCH  18  19
ENDBRANCH  17  18
ENDBRANCH  16  17
ENDBRANCH  12  16
ENDBRANCH   9  12
ENDBRANCH   6   9
ENDBRANCH   3   5
ENDBRANCH   2   3
BRANCH   2  23
ATOM     23  N   UNL     1       9.822   4.591   2.037  1.00  0.00    -0.332 N 
ATOM     24  C   UNL     1       9.492   3.602   3.053  1.00  0.00     0.147 C 
BRANCH  23  25
ATOM     25  C   UNL     1       8.904   5.762   1.980  1.00  0.00     0.174 C 
BRANCH  25  26
ATOM     26  C   UNL     1       8.497   6.276   3.381  1.00  0.00     0.038 C 
BRANCH  26  27
ATOM     27  C   UNL     1       8.994   7.683   3.781  1.00  0.00    -0.015 C 
ATOM     28  C   UNL     1      10.463   7.908   3.424  1.00  0.00     0.007 C 
ATOM     29  C   UNL     1       8.128   8.813   3.230  1.00  0.00     0.007 C 
ENDBRANCH  26  27
ENDBRANCH  25  26
BRANCH  25  30
ATOM     30  C   UNL     1       7.702   5.451   1.059  1.00  0.00     0.243 C 
ATOM     31  O   UNL     1       7.752   5.629  -0.157  1.00  0.00    -0.273 OA
ATOM     32  N   UNL     1       6.581   4.972   1.687  1.00  0.00    -0.342 N 
ATOM     33  H   UNL     1       6.664   4.717   2.675  1.00  0.00     0.164 HD
BRANCH  32  34
ATOM     34  C   UNL     1       5.340   4.649   0.978  1.00  0.00     0.175 C 
BRANCH  34  35
ATOM     35  C   UNL     1       5.415   3.260   0.325  1.00  0.00     0.070 C 
BRANCH  35  36
ATOM     36  C   UNL     1       5.072   3.287  -1.148  1.00  0.00    -0.045 A 
ATOM     37  C   UNL     1       4.665   2.111  -1.795  1.00  0.00     0.007 A 
ATOM     38  C   UNL     1       5.176   4.472  -1.889  1.00  0.00     0.007 A 
ATOM     39  C   UNL     1       4.360   2.122  -3.156  1.00  0.00     0.046 A 
ATOM     40  C   UNL     1       4.872   4.484  -3.252  1.00  0.00     0.046 A 
ATOM     41  C   UNL     1       4.465   3.308  -3.873  1.00  0.00     0.115 A 
BRANCH  41  42
ATOM     42  O   UNL     1       4.161   3.276  -5.202  1.00  0.00    -0.508 OA
ATOM     43  H   UNL     1       3.989   4.186  -5.497  1.00  0.00     0.293 HD
ENDBRANCH  41  42
ENDBRANCH  35  36
ENDBRANCH  34  35
BRANCH  34  44
ATOM     44  C   UNL     1       4.172   4.752   1.985  1.00  0.00     0.243 C 
ATOM     45  O   UNL     1       4.266   5.237   3.109  1.00  0.00    -0.273 OA
ATOM     46  N   UNL     1       3.022   4.124   1.556  1.00  0.00    -0.341 N 
ATOM     47  H   UNL     1       3.029   3.635   0.665  1.00  0.00     0.164 HD
BRANCH  46  48
ATOM     48  C   UNL     1       1.806   4.031   2.367  1.00  0.00     0.196 C 
BRANCH  48  49
ATOM     49  C   UNL     1       0.737   5.029   1.890  1.00  0.00     0.072 C 
BRANCH  49  50
ATOM     50  C   UNL     1       0.405   6.070   2.935  1.00  0.00    -0.045 A 
ATOM     51  C   UNL     1       1.400   6.951   3.384  1.00  0.00     0.007 A 
ATOM     52  C   UNL     1      -0.881   6.157   3.483  1.00  0.00     0.007 A 
ATOM     53  C   UNL     1       1.109   7.907   4.358  1.00  0.00     0.046 A 
ATOM     54  C   UNL     1      -1.172   7.113   4.459  1.00  0.00     0.046 A 
ATOM     55  C   UNL     1      -0.173   7.981   4.887  1.00  0.00     0.115 A 
BRANCH  55  56
ATOM     56  O   UNL     1      -0.416   8.928   5.838  1.00  0.00    -0.508 OA
ATOM     57  H   UNL     1      -0.663   8.478   6.662  1.00  0.00     0.293 HD
ENDBRANCH  55  56
ENDBRANCH  49  50
ENDBRANCH  48  49
BRANCH  48  58
ATOM     58  C   UNL     1       1.253   2.602   2.275  1.00  0.00     0.326 C 
ATOM     59  O   UNL     1       1.893   1.566   2.197  1.00  0.00    -0.250 OA
BRANCH  58  60
ATOM     60  O   UNL     1      -0.102   2.543   2.301  1.00  0.00    -0.480 OA
ATOM     61  H   UNL     1      -0.305   1.755   1.752  1.00  0.00     0.296 HD
ENDBRANCH  58  60
ENDBRANCH  48  58
ENDBRANCH  46  48
ENDBRANCH  34  44
ENDBRANCH  32  34
ENDBRANCH  25  30
ENDBRANCH  23  25
ENDBRANCH   2  23
TORSDOF 28
ENDMDL
MODEL 7
REMARK VINA RESULT:    -5.964      3.367      7.221
REMARK INTER + INTRA:         -20.162
REMARK INTER:                 -13.393
REMARK INTRA:                  -6.769
REMARK UNBOUND:                -5.307
REMARK SMILES CCCCCCC[C@H](N)[C@H](O)C(=O)N[C@H](C)C(=O)N(C)[C@H](CC(C)C)C(=O)N[C@@H](Cc1ccc(O)cc1)C(=O)N[C@@H](Cc1ccc(O)cc1)C(=O)O
REMARK SMILES IDX 18 1 17 2 15 3 16 4 14 5 12 6 13 7 10 9 11 10 8 12 9 13 7 16
REMARK SMILES IDX 6 17 5 18 4 19 3 20 2 21 1 22 19 23 20 24 21 25 22 26 23 27
REMARK SMILES IDX 24 28 25 29 26 30 27 31 28 32 29 34 30 35 31 36 32 37 37 38
REMARK SMILES IDX 33 39 36 40 34 41 35 42 38 44 39 45 40 46 41 48 42 49 43 50
REMARK SMILES IDX 44 51 49 52 45 53 48 54 46 55 47 56 50 58 51 59 52 60
REMARK H PARENT 14 8 11 11 9 14 9 15 28 33 35 43 40 47 47 57 52 61
ROOT
ATOM      1  O   UNL     1      11.976   2.062  -2.586  1.00  0.00    -0.272 OA
ATOM      2  C   UNL     1      10.808   1.688  -2.767  1.00  0.00     0.245 C 
ENDROOT
BRANCH   2   3
ATOM      3  C   UNL     1      10.249   0.545  -1.882  1.00  0.00     0.168 C 
ATOM      4  C   UNL     1      11.324   0.017  -0.938  1.00  0.00     0.041 C 
BRANCH   3   5
ATOM      5  N   UNL     1       9.018   0.865  -1.177  1.00  0.00    -0.342 N 
ATOM      6  C   UNL     1       7.897   0.068  -1.271  1.00  0.00     0.251 C 
ATOM      7  O   UNL     1       7.836  -0.933  -1.978  1.00  0.00    -0.272 OA
ATOM      8  H   UNL     1       8.937   1.690  -0.587  1.00  0.00     0.164 HD
BRANCH   6   9
ATOM      9  C   UNL     1       6.766   0.519  -0.333  1.00  0.00     0.219 C 
BRANCH   9  10
ATOM     10  O   UNL     1       7.231   1.365   0.725  1.00  0.00    -0.382 OA
ATOM     11  H   UNL     1       6.590   1.199   1.452  1.00  0.00     0.211 HD
ENDBRANCH   9  10
BRANCH   9  12
ATOM     12  C   UNL     1       5.578   1.176  -1.083  1.00  0.00     0.089 C 
BRANCH  12  13
ATOM     13  N   UNL     1       4.323   0.545  -0.614  1.00  0.00    -0.325 NA
ATOM     14  H   UNL     1       3.998  -0.120  -1.318  1.00  0.00     0.119 HD
ATOM     15  H   UNL     1       3.592   1.259  -0.564  1.00  0.00     0.119 HD
ENDBRANCH  12  13
BRANCH  12  16
ATOM     16  C   UNL     1       5.474   2.716  -0.970  1.00  0.00     0.022 C 
BRANCH  16  17
ATOM     17  C   UNL     1       4.296   3.330  -0.201  1.00  0.00     0.002 C 
BRANCH  17  18
ATOM     18  C   UNL     1       4.690   4.239   0.961  1.00  0.00     0.000 C 
BRANCH  18  19
ATOM     19  C   UNL     1       5.902   5.134   0.672  1.00  0.00    -0.000 C 
BRANCH  19  20
ATOM     20  C   UNL     1       5.567   6.546   0.185  1.00  0.00    -0.000 C 
BRANCH  20  21
ATOM     21  C   UNL     1       6.145   6.857  -1.198  1.00  0.00    -0.003 C 
ATOM     22  C   UNL     1       5.190   7.707  -2.020  1.00  0.00     0.004 C 
ENDBRANCH  20  21
ENDBRANCH  19  20
ENDBRANCH  18  19
ENDBRANCH  17  18
ENDBRANCH  16  17
ENDBRANCH  12  16
ENDBRANCH   9  12
ENDBRANCH   6   9
ENDBRANCH   3   5
ENDBRANCH   2   3
BRANCH   2  23
ATOM     23  N   UNL     1       9.990   2.369  -3.662  1.00  0.00    -0.332 N 
ATOM     24  C   UNL     1      10.109   2.295  -5.111  1.00  0.00     0.147 C 
BRANCH  23  25
ATOM     25  C   UNL     1       8.819   3.146  -3.169  1.00  0.00     0.174 C 
BRANCH  25  26
ATOM     26  C   UNL     1       8.155   4.001  -4.274  1.00  0.00     0.038 C 
BRANCH  26  27
ATOM     27  C   UNL     1       6.642   3.792  -4.506  1.00  0.00    -0.015 C 
ATOM     28  C   UNL     1       6.109   4.627  -5.669  1.00  0.00     0.007 C 
ATOM     29  C   UNL     1       6.250   2.326  -4.673  1.00  0.00     0.007 C 
ENDBRANCH  26  27
ENDBRANCH  25  26
BRANCH  25  30
ATOM     30  C   UNL     1       9.209   3.952  -1.909  1.00  0.00     0.243 C 
ATOM     31  O   UNL     1       8.667   3.760  -0.821  1.00  0.00    -0.273 OA
ATOM     32  N   UNL     1      10.189   4.894  -2.086  1.00  0.00    -0.342 N 
ATOM     33  H   UNL     1      10.687   4.896  -2.980  1.00  0.00     0.164 HD
BRANCH  32  34
ATOM     34  C   UNL     1      10.665   5.768  -1.011  1.00  0.00     0.175 C 
BRANCH  34  35
ATOM     35  C   UNL     1       9.562   6.730  -0.543  1.00  0.00     0.070 C 
BRANCH  35  36
ATOM     36  C   UNL     1      10.028   8.167  -0.475  1.00  0.00    -0.045 A 
ATOM     37  C   UNL     1      11.390   8.455  -0.296  1.00  0.00     0.007 A 
ATOM     38  C   UNL     1       9.114   9.224  -0.566  1.00  0.00     0.007 A 
ATOM     39  C   UNL     1      11.828   9.777  -0.218  1.00  0.00     0.046 A 
ATOM     40  C   UNL     1       9.552  10.549  -0.487  1.00  0.00     0.046 A 
ATOM     41  C   UNL     1      10.907  10.813  -0.315  1.00  0.00     0.115 A 
BRANCH  41  42
ATOM     42  O   UNL     1      11.376  12.090  -0.231  1.00  0.00    -0.508 OA
ATOM     43  H   UNL     1      12.029  12.129   0.487  1.00  0.00     0.293 HD
ENDBRANCH  41  42
ENDBRANCH  35  36
ENDBRANCH  34  35
BRANCH  34  44
ATOM     44  C   UNL     1      11.179   4.875   0.140  1.00  0.00     0.243 C 
ATOM     45  O   UNL     1      12.016   3.987   0.008  1.00  0.00    -0.273 OA
ATOM     46  N   UNL     1      10.511   5.075   1.330  1.00  0.00    -0.341 N 
ATOM     47  H   UNL     1       9.744   5.742   1.360  1.00  0.00     0.164 HD
BRANCH  46  48
ATOM     48  C   UNL     1      10.776   4.298   2.543  1.00  0.00     0.196 C 
BRANCH  48  49
ATOM     49  C   UNL     1      10.649   5.169   3.804  1.00  0.00     0.072 C 
BRANCH  49  50
ATOM     50  C   UNL     1       9.904   6.460   3.548  1.00  0.00    -0.045 A 
ATOM     51  C   UNL     1       8.511   6.444   3.394  1.00  0.00     0.007 A 
ATOM     52  C   UNL     1      10.588   7.677   3.439  1.00  0.00     0.007 A 
ATOM     53  C   UNL     1       7.814   7.626   3.144  1.00  0.00     0.046 A 
ATOM     54  C   UNL     1       9.891   8.861   3.187  1.00  0.00     0.046 A 
ATOM     55  C   UNL     1       8.509   8.825   3.043  1.00  0.00     0.115 A 
BRANCH  55  56
ATOM     56  O   UNL     1       7.792   9.958   2.795  1.00  0.00    -0.508 OA
ATOM     57  H   UNL     1       6.900   9.700   2.511  1.00  0.00     0.293 HD
ENDBRANCH  55  56
ENDBRANCH  49  50
ENDBRANCH  48  49
BRANCH  48  58
ATOM     58  C   UNL     1       9.779   3.134   2.618  1.00  0.00     0.326 C 
ATOM     59  O   UNL     1       8.995   2.890   3.521  1.00  0.00    -0.250 OA
BRANCH  58  60
ATOM     60  O   UNL     1       9.806   2.327   1.528  1.00  0.00    -0.480 OA
ATOM     61  H   UNL     1      10.746   2.361   1.245  1.00  0.00     0.296 HD
ENDBRANCH  58  60
ENDBRANCH  48  58
ENDBRANCH  46  48
ENDBRANCH  34  44
ENDBRANCH  32  34
ENDBRANCH  25  30
ENDBRANCH  23  25
ENDBRANCH   2  23
TORSDOF 28
ENDMDL
MODEL 8
REMARK VINA RESULT:    -5.962      3.432      7.679
REMARK INTER + INTRA:         -20.157
REMARK INTER:                 -13.165
REMARK INTRA:                  -6.992
REMARK UNBOUND:                -5.307
REMARK SMILES CCCCCCC[C@H](N)[C@H](O)C(=O)N[C@H](C)C(=O)N(C)[C@H](CC(C)C)C(=O)N[C@@H](Cc1ccc(O)cc1)C(=O)N[C@@H](Cc1ccc(O)cc1)C(=O)O
REMARK SMILES IDX 18 1 17 2 15 3 16 4 14 5 12 6 13 7 10 9 11 10 8 12 9 13 7 16
REMARK SMILES IDX 6 17 5 18 4 19 3 20 2 21 1 22 19 23 20 24 21 25 22 26 23 27
REMARK SMILES IDX 24 28 25 29 26 30 27 31 28 32 29 34 30 35 31 36 32 37 37 38
REMARK SMILES IDX 33 39 36 40 34 41 35 42 38 44 39 45 40 46 41 48 42 49 43 50
REMARK SMILES IDX 44 51 49 52 45 53 48 54 46 55 47 56 50 58 51 59 52 60
REMARK H PARENT 14 8 11 11 9 14 9 15 28 33 35 43 40 47 47 57 52 61
ROOT
ATOM      1  O   UNL     1      12.719   3.760  -2.571  1.00  0.00    -0.272 OA
ATOM      2  C   UNL     1      11.530   3.431  -2.700  1.00  0.00     0.245 C 
ENDROOT
BRANCH   2   3
ATOM      3  C   UNL     1      11.004   2.222  -1.888  1.00  0.00     0.168 C 
ATOM      4  C   UNL     1      12.051   1.114  -1.825  1.00  0.00     0.041 C 
BRANCH   3   5
ATOM      5  N   UNL     1      10.483   2.551  -0.570  1.00  0.00    -0.342 N 
ATOM      6  C   UNL     1       9.135   2.497  -0.286  1.00  0.00     0.251 C 
ATOM      7  O   UNL     1       8.279   2.213  -1.117  1.00  0.00    -0.272 OA
ATOM      8  H   UNL     1      11.094   2.834   0.192  1.00  0.00     0.164 HD
BRANCH   6   9
ATOM      9  C   UNL     1       8.831   2.745   1.201  1.00  0.00     0.219 C 
BRANCH   9  10
ATOM     10  O   UNL     1       9.971   2.530   2.041  1.00  0.00    -0.382 OA
ATOM     11  H   UNL     1      10.127   1.562   1.976  1.00  0.00     0.211 HD
ENDBRANCH   9  10
BRANCH   9  12
ATOM     12  C   UNL     1       8.203   4.138   1.469  1.00  0.00     0.089 C 
BRANCH  12  13
ATOM     13  N   UNL     1       8.858   5.125   0.581  1.00  0.00    -0.325 NA
ATOM     14  H   UNL     1       9.500   5.699   1.132  1.00  0.00     0.119 HD
ATOM     15  H   UNL     1       8.151   5.776   0.231  1.00  0.00     0.119 HD
ENDBRANCH  12  13
BRANCH  12  16
ATOM     16  C   UNL     1       6.665   4.228   1.322  1.00  0.00     0.022 C 
BRANCH  16  17
ATOM     17  C   UNL     1       6.040   5.531   0.804  1.00  0.00     0.002 C 
BRANCH  17  18
ATOM     18  C   UNL     1       4.725   5.925   1.473  1.00  0.00     0.000 C 
BRANCH  18  19
ATOM     19  C   UNL     1       4.563   5.383   2.899  1.00  0.00    -0.000 C 
BRANCH  19  20
ATOM     20  C   UNL     1       3.120   5.313   3.407  1.00  0.00    -0.000 C 
BRANCH  20  21
ATOM     21  C   UNL     1       2.509   6.692   3.671  1.00  0.00    -0.003 C 
ATOM     22  C   UNL     1       1.085   6.777   3.146  1.00  0.00     0.004 C 
ENDBRANCH  20  21
ENDBRANCH  19  20
ENDBRANCH  18  19
ENDBRANCH  17  18
ENDBRANCH  16  17
ENDBRANCH  12  16
ENDBRANCH   9  12
ENDBRANCH   6   9
ENDBRANCH   3   5
ENDBRANCH   2   3
BRANCH   2  23
ATOM     23  N   UNL     1      10.671   4.213  -3.464  1.00  0.00    -0.332 N 
ATOM     24  C   UNL     1      10.555   4.140  -4.913  1.00  0.00     0.147 C 
BRANCH  23  25
ATOM     25  C   UNL     1       9.691   5.118  -2.803  1.00  0.00     0.174 C 
BRANCH  25  26
ATOM     26  C   UNL     1       8.375   5.267  -3.601  1.00  0.00     0.038 C 
BRANCH  26  27
ATOM     27  C   UNL     1       7.069   5.376  -2.783  1.00  0.00    -0.015 C 
ATOM     28  C   UNL     1       6.568   6.816  -2.670  1.00  0.00     0.007 C 
ATOM     29  C   UNL     1       5.957   4.459  -3.288  1.00  0.00     0.007 C 
ENDBRANCH  26  27
ENDBRANCH  25  26
BRANCH  25  30
ATOM     30  C   UNL     1      10.363   6.467  -2.455  1.00  0.00     0.243 C 
ATOM     31  O   UNL     1      11.228   6.966  -3.173  1.00  0.00    -0.273 OA
ATOM     32  N   UNL     1       9.936   7.061  -1.296  1.00  0.00    -0.342 N 
ATOM     33  H   UNL     1       9.118   6.658  -0.831  1.00  0.00     0.164 HD
BRANCH  32  34
ATOM     34  C   UNL     1      10.479   8.326  -0.796  1.00  0.00     0.175 C 
BRANCH  34  35
ATOM     35  C   UNL     1       9.358   9.291  -0.381  1.00  0.00     0.070 C 
BRANCH  35  36
ATOM     36  C   UNL     1       9.769  10.743  -0.481  1.00  0.00    -0.045 A 
ATOM     37  C   UNL     1       9.877  11.524   0.680  1.00  0.00     0.007 A 
ATOM     38  C   UNL     1      10.023  11.334  -1.726  1.00  0.00     0.007 A 
ATOM     39  C   UNL     1      10.242  12.868   0.596  1.00  0.00     0.046 A 
ATOM     40  C   UNL     1      10.387  12.680  -1.810  1.00  0.00     0.046 A 
ATOM     41  C   UNL     1      10.495  13.435  -0.647  1.00  0.00     0.115 A 
BRANCH  41  42
ATOM     42  O   UNL     1      10.845  14.752  -0.685  1.00  0.00    -0.508 OA
ATOM     43  H   UNL     1      10.443  15.196   0.080  1.00  0.00     0.293 HD
ENDBRANCH  41  42
ENDBRANCH  35  36
ENDBRANCH  34  35
BRANCH  34  44
ATOM     44  C   UNL     1      11.431   8.008   0.380  1.00  0.00     0.243 C 
ATOM     45  O   UNL     1      12.557   8.479   0.508  1.00  0.00    -0.273 OA
ATOM     46  N   UNL     1      10.951   7.029   1.224  1.00  0.00    -0.341 N 
ATOM     47  H   UNL     1      10.062   6.584   1.010  1.00  0.00     0.164 HD
BRANCH  46  48
ATOM     48  C   UNL     1      11.705   6.512   2.368  1.00  0.00     0.196 C 
BRANCH  48  49
ATOM     49  C   UNL     1      10.887   6.608   3.667  1.00  0.00     0.072 C 
BRANCH  49  50
ATOM     50  C   UNL     1       9.971   7.811   3.690  1.00  0.00    -0.045 A 
ATOM     51  C   UNL     1       8.652   7.693   3.227  1.00  0.00     0.007 A 
ATOM     52  C   UNL     1      10.424   9.054   4.148  1.00  0.00     0.007 A 
ATOM     53  C   UNL     1       7.801   8.799   3.231  1.00  0.00     0.046 A 
ATOM     54  C   UNL     1       9.573  10.162   4.151  1.00  0.00     0.046 A 
ATOM     55  C   UNL     1       8.268  10.024   3.693  1.00  0.00     0.115 A 
BRANCH  55  56
ATOM     56  O   UNL     1       7.405  11.080   3.678  1.00  0.00    -0.508 OA
ATOM     57  H   UNL     1       7.925  11.898   3.621  1.00  0.00     0.293 HD
ENDBRANCH  55  56
ENDBRANCH  49  50
ENDBRANCH  48  49
BRANCH  48  58
ATOM     58  C   UNL     1      12.075   5.046   2.101  1.00  0.00     0.326 C 
ATOM     59  O   UNL     1      12.512   4.236   2.903  1.00  0.00    -0.250 OA
BRANCH  58  60
ATOM     60  O   UNL     1      11.861   4.659   0.819  1.00  0.00    -0.480 OA
ATOM     61  H   UNL     1      11.194   3.943   0.907  1.00  0.00     0.296 HD
ENDBRANCH  58  60
ENDBRANCH  48  58
ENDBRANCH  46  48
ENDBRANCH  34  44
ENDBRANCH  32  34
ENDBRANCH  25  30
ENDBRANCH  23  25
ENDBRANCH   2  23
TORSDOF 28
ENDMDL
MODEL 9
REMARK VINA RESULT:    -5.926      3.876      6.450
REMARK INTER + INTRA:         -20.066
REMARK INTER:                 -14.386
REMARK INTRA:                  -5.680
REMARK UNBOUND:                -5.307
REMARK SMILES CCCCCCC[C@H](N)[C@H](O)C(=O)N[C@H](C)C(=O)N(C)[C@H](CC(C)C)C(=O)N[C@@H](Cc1ccc(O)cc1)C(=O)N[C@@H](Cc1ccc(O)cc1)C(=O)O
REMARK SMILES IDX 18 1 17 2 15 3 16 4 14 5 12 6 13 7 10 9 11 10 8 12 9 13 7 16
REMARK SMILES IDX 6 17 5 18 4 19 3 20 2 21 1 22 19 23 20 24 21 25 22 26 23 27
REMARK SMILES IDX 24 28 25 29 26 30 27 31 28 32 29 34 30 35 31 36 32 37 37 38
REMARK SMILES IDX 33 39 36 40 34 41 35 42 38 44 39 45 40 46 41 48 42 49 43 50
REMARK SMILES IDX 44 51 49 52 45 53 48 54 46 55 47 56 50 58 51 59 52 60
REMARK H PARENT 14 8 11 11 9 14 9 15 28 33 35 43 40 47 47 57 52 61
ROOT
ATOM      1  O   UNL     1       8.567  -0.925  -2.809  1.00  0.00    -0.272 OA
ATOM      2  C   UNL     1       9.252   0.109  -2.807  1.00  0.00     0.245 C 
ENDROOT
BRANCH   2   3
ATOM      3  C   UNL     1       9.460   0.861  -4.145  1.00  0.00     0.168 C 
ATOM      4  C   UNL     1      10.901   1.343  -4.277  1.00  0.00     0.041 C 
BRANCH   3   5
ATOM      5  N   UNL     1       9.021   0.137  -5.328  1.00  0.00    -0.342 N 
ATOM      6  C   UNL     1       8.001   0.603  -6.130  1.00  0.00     0.251 C 
ATOM      7  O   UNL     1       7.365   1.624  -5.891  1.00  0.00    -0.272 OA
ATOM      8  H   UNL     1       9.450  -0.742  -5.609  1.00  0.00     0.164 HD
BRANCH   6   9
ATOM      9  C   UNL     1       7.805  -0.247  -7.396  1.00  0.00     0.219 C 
BRANCH   9  10
ATOM     10  O   UNL     1       8.943  -1.064  -7.695  1.00  0.00    -0.382 OA
ATOM     11  H   UNL     1       9.103  -1.552  -6.857  1.00  0.00     0.211 HD
ENDBRANCH   9  10
BRANCH   9  12
ATOM     12  C   UNL     1       6.508  -1.097  -7.364  1.00  0.00     0.089 C 
BRANCH  12  13
ATOM     13  N   UNL     1       6.140  -1.335  -5.950  1.00  0.00    -0.325 NA
ATOM     14  H   UNL     1       5.250  -0.875  -5.752  1.00  0.00     0.119 HD
ATOM     15  H   UNL     1       6.822  -0.868  -5.347  1.00  0.00     0.119 HD
ENDBRANCH  12  13
BRANCH  12  16
ATOM     16  C   UNL     1       5.299  -0.520  -8.138  1.00  0.00     0.022 C 
BRANCH  16  17
ATOM     17  C   UNL     1       4.372  -1.479  -8.898  1.00  0.00     0.002 C 
BRANCH  17  18
ATOM     18  C   UNL     1       2.912  -1.038  -8.973  1.00  0.00     0.000 C 
BRANCH  18  19
ATOM     19  C   UNL     1       2.489  -0.081  -7.851  1.00  0.00    -0.000 C 
BRANCH  19  20
ATOM     20  C   UNL     1       1.693  -0.724  -6.712  1.00  0.00    -0.000 C 
BRANCH  20  21
ATOM     21  C   UNL     1       2.580  -1.432  -5.685  1.00  0.00    -0.003 C 
ATOM     22  C   UNL     1       2.371  -2.938  -5.716  1.00  0.00     0.004 C 
ENDBRANCH  20  21
ENDBRANCH  19  20
ENDBRANCH  18  19
ENDBRANCH  17  18
ENDBRANCH  16  17
ENDBRANCH  12  16
ENDBRANCH   9  12
ENDBRANCH   6   9
ENDBRANCH   3   5
ENDBRANCH   2   3
BRANCH   2  23
ATOM     23  N   UNL     1       9.711   0.638  -1.606  1.00  0.00    -0.332 N 
ATOM     24  C   UNL     1      10.799   0.076  -0.819  1.00  0.00     0.147 C 
BRANCH  23  25
ATOM     25  C   UNL     1       9.176   1.932  -1.101  1.00  0.00     0.174 C 
BRANCH  25  26
ATOM     26  C   UNL     1      10.106   2.605  -0.065  1.00  0.00     0.038 C 
BRANCH  26  27
ATOM     27  C   UNL     1      10.252   4.141  -0.149  1.00  0.00    -0.015 C 
ATOM     28  C   UNL     1      10.274   4.648  -1.591  1.00  0.00     0.007 C 
ATOM     29  C   UNL     1       9.209   4.896   0.670  1.00  0.00     0.007 C 
ENDBRANCH  26  27
ENDBRANCH  25  26
BRANCH  25  30
ATOM     30  C   UNL     1       7.723   1.751  -0.607  1.00  0.00     0.243 C 
ATOM     31  O   UNL     1       7.417   0.880   0.207  1.00  0.00    -0.273 OA
ATOM     32  N   UNL     1       6.803   2.618  -1.138  1.00  0.00    -0.342 N 
ATOM     33  H   UNL     1       7.155   3.400  -1.696  1.00  0.00     0.164 HD
BRANCH  32  34
ATOM     34  C   UNL     1       5.376   2.575  -0.805  1.00  0.00     0.175 C 
BRANCH  34  35
ATOM     35  C   UNL     1       4.801   3.989  -0.630  1.00  0.00     0.070 C 
BRANCH  35  36
ATOM     36  C   UNL     1       4.551   4.344   0.818  1.00  0.00    -0.045 A 
ATOM     37  C   UNL     1       3.353   3.957   1.439  1.00  0.00     0.007 A 
ATOM     38  C   UNL     1       5.492   5.078   1.552  1.00  0.00     0.007 A 
ATOM     39  C   UNL     1       3.107   4.291   2.771  1.00  0.00     0.046 A 
ATOM     40  C   UNL     1       5.246   5.414   2.885  1.00  0.00     0.046 A 
ATOM     41  C   UNL     1       4.055   5.015   3.483  1.00  0.00     0.115 A 
BRANCH  41  42
ATOM     42  O   UNL     1       3.775   5.324   4.781  1.00  0.00    -0.508 OA
ATOM     43  H   UNL     1       3.064   4.736   5.088  1.00  0.00     0.293 HD
ENDBRANCH  41  42
ENDBRANCH  35  36
ENDBRANCH  34  35
BRANCH  34  44
ATOM     44  C   UNL     1       4.648   1.790  -1.919  1.00  0.00     0.243 C 
ATOM     45  O   UNL     1       5.155   0.884  -2.575  1.00  0.00    -0.273 OA
ATOM     46  N   UNL     1       3.395   2.286  -2.212  1.00  0.00    -0.341 N 
ATOM     47  H   UNL     1       3.064   3.113  -1.720  1.00  0.00     0.164 HD
BRANCH  46  48
ATOM     48  C   UNL     1       2.544   1.749  -3.276  1.00  0.00     0.196 C 
BRANCH  48  49
ATOM     49  C   UNL     1       1.113   1.492  -2.772  1.00  0.00     0.072 C 
BRANCH  49  50
ATOM     50  C   UNL     1       0.730   0.031  -2.831  1.00  0.00    -0.045 A 
ATOM     51  C   UNL     1      -0.385  -0.369  -3.583  1.00  0.00     0.007 A 
ATOM     52  C   UNL     1       1.460  -0.935  -2.127  1.00  0.00     0.007 A 
ATOM     53  C   UNL     1      -0.756  -1.713  -3.634  1.00  0.00     0.046 A 
ATOM     54  C   UNL     1       1.087  -2.280  -2.177  1.00  0.00     0.046 A 
ATOM     55  C   UNL     1      -0.018  -2.658  -2.932  1.00  0.00     0.115 A 
BRANCH  55  56
ATOM     56  O   UNL     1      -0.416  -3.960  -3.006  1.00  0.00    -0.508 OA
ATOM     57  H   UNL     1      -0.598  -4.171  -3.936  1.00  0.00     0.293 HD
ENDBRANCH  55  56
ENDBRANCH  49  50
ENDBRANCH  48  49
BRANCH  48  58
ATOM     58  C   UNL     1       2.508   2.750  -4.439  1.00  0.00     0.326 C 
ATOM     59  O   UNL     1       1.946   2.614  -5.514  1.00  0.00    -0.250 OA
BRANCH  58  60
ATOM     60  O   UNL     1       3.181   3.900  -4.185  1.00  0.00    -0.480 OA
ATOM     61  H   UNL     1       3.218   3.928  -3.204  1.00  0.00     0.296 HD
ENDBRANCH  58  60
ENDBRANCH  48  58
ENDBRANCH  46  48
ENDBRANCH  34  44
ENDBRANCH  32  34
ENDBRANCH  25  30
ENDBRANCH  23  25
ENDBRANCH   2  23
TORSDOF 28
ENDMDL
MODEL 10
REMARK VINA RESULT:    -5.888      2.512      7.527
REMARK INTER + INTRA:         -19.973
REMARK INTER:                 -14.528
REMARK INTRA:                  -5.445
REMARK UNBOUND:                -5.307
REMARK SMILES CCCCCCC[C@H](N)[C@H](O)C(=O)N[C@H](C)C(=O)N(C)[C@H](CC(C)C)C(=O)N[C@@H](Cc1ccc(O)cc1)C(=O)N[C@@H](Cc1ccc(O)cc1)C(=O)O
REMARK SMILES IDX 18 1 17 2 15 3 16 4 14 5 12 6 13 7 10 9 11 10 8 12 9 13 7 16
REMARK SMILES IDX 6 17 5 18 4 19 3 20 2 21 1 22 19 23 20 24 21 25 22 26 23 27
REMARK SMILES IDX 24 28 25 29 26 30 27 31 28 32 29 34 30 35 31 36 32 37 37 38
REMARK SMILES IDX 33 39 36 40 34 41 35 42 38 44 39 45 40 46 41 48 42 49 43 50
REMARK SMILES IDX 44 51 49 52 45 53 48 54 46 55 47 56 50 58 51 59 52 60
REMARK H PARENT 14 8 11 11 9 14 9 15 28 33 35 43 40 47 47 57 52 61
ROOT
ATOM      1  O   UNL     1       8.390   6.591   0.395  1.00  0.00    -0.272 OA
ATOM      2  C   UNL     1       8.799   7.244   1.367  1.00  0.00     0.245 C 
ENDROOT
BRANCH   2   3
ATOM      3  C   UNL     1       7.837   7.482   2.557  1.00  0.00     0.168 C 
ATOM      4  C   UNL     1       7.903   8.931   3.027  1.00  0.00     0.041 C 
BRANCH   3   5
ATOM      5  N   UNL     1       6.467   7.048   2.332  1.00  0.00    -0.342 N 
ATOM      6  C   UNL     1       5.981   5.868   2.856  1.00  0.00     0.251 C 
ATOM      7  O   UNL     1       6.665   5.085   3.507  1.00  0.00    -0.272 OA
ATOM      8  H   UNL     1       5.814   7.598   1.778  1.00  0.00     0.164 HD
BRANCH   6   9
ATOM      9  C   UNL     1       4.475   5.684   2.611  1.00  0.00     0.219 C 
BRANCH   9  10
ATOM     10  O   UNL     1       3.754   6.922   2.651  1.00  0.00    -0.382 OA
ATOM     11  H   UNL     1       3.871   7.228   3.577  1.00  0.00     0.211 HD
ENDBRANCH   9  10
BRANCH   9  12
ATOM     12  C   UNL     1       4.161   4.906   1.307  1.00  0.00     0.089 C 
BRANCH  12  13
ATOM     13  N   UNL     1       5.411   4.273   0.828  1.00  0.00    -0.325 NA
ATOM     14  H   UNL     1       5.378   3.271   1.027  1.00  0.00     0.119 HD
ATOM     15  H   UNL     1       6.195   4.628   1.380  1.00  0.00     0.119 HD
ENDBRANCH  12  13
BRANCH  12  16
ATOM     16  C   UNL     1       3.033   3.850   1.403  1.00  0.00     0.022 C 
BRANCH  16  17
ATOM     17  C   UNL     1       2.402   3.553   2.770  1.00  0.00     0.002 C 
BRANCH  17  18
ATOM     18  C   UNL     1       1.513   2.312   2.814  1.00  0.00     0.000 C 
BRANCH  18  19
ATOM     19  C   UNL     1       0.097   2.539   2.267  1.00  0.00    -0.000 C 
BRANCH  19  20
ATOM     20  C   UNL     1      -0.520   3.899   2.604  1.00  0.00    -0.000 C 
BRANCH  20  21
ATOM     21  C   UNL     1      -0.673   4.808   1.382  1.00  0.00    -0.003 C 
ATOM     22  C   UNL     1      -1.414   4.104   0.257  1.00  0.00     0.004 C 
ENDBRANCH  20  21
ENDBRANCH  19  20
ENDBRANCH  18  19
ENDBRANCH  17  18
ENDBRANCH  16  17
ENDBRANCH  12  16
ENDBRANCH   9  12
ENDBRANCH   6   9
ENDBRANCH   3   5
ENDBRANCH   2   3
BRANCH   2  23
ATOM     23  N   UNL     1      10.130   7.642   1.427  1.00  0.00    -0.332 N 
ATOM     24  C   UNL     1      11.117   7.086   2.341  1.00  0.00     0.147 C 
BRANCH  23  25
ATOM     25  C   UNL     1      10.671   8.610   0.434  1.00  0.00     0.174 C 
BRANCH  25  26
ATOM     26  C   UNL     1       9.579   9.523  -0.172  1.00  0.00     0.038 C 
BRANCH  26  27
ATOM     27  C   UNL     1       9.780  11.048  -0.023  1.00  0.00    -0.015 C 
ATOM     28  C   UNL     1       9.722  11.506   1.434  1.00  0.00     0.007 C 
ATOM     29  C   UNL     1      11.050  11.562  -0.697  1.00  0.00     0.007 C 
ENDBRANCH  26  27
ENDBRANCH  25  26
BRANCH  25  30
ATOM     30  C   UNL     1      11.519   7.869  -0.625  1.00  0.00     0.243 C 
ATOM     31  O   UNL     1      12.650   8.243  -0.930  1.00  0.00    -0.273 OA
ATOM     32  N   UNL     1      10.925   6.775  -1.201  1.00  0.00    -0.342 N 
ATOM     33  H   UNL     1      10.046   6.445  -0.795  1.00  0.00     0.164 HD
BRANCH  32  34
ATOM     34  C   UNL     1      11.569   5.969  -2.241  1.00  0.00     0.175 C 
BRANCH  34  35
ATOM     35  C   UNL     1      12.512   4.920  -1.632  1.00  0.00     0.070 C 
BRANCH  35  36
ATOM     36  C   UNL     1      11.794   3.652  -1.229  1.00  0.00    -0.045 A 
ATOM     37  C   UNL     1      12.111   2.437  -1.855  1.00  0.00     0.007 A 
ATOM     38  C   UNL     1      10.793   3.673  -0.249  1.00  0.00     0.007 A 
ATOM     39  C   UNL     1      11.444   1.264  -1.500  1.00  0.00     0.046 A 
ATOM     40  C   UNL     1      10.124   2.499   0.106  1.00  0.00     0.046 A 
ATOM     41  C   UNL     1      10.457   1.304  -0.523  1.00  0.00     0.115 A 
BRANCH  41  42
ATOM     42  O   UNL     1       9.828   0.136  -0.207  1.00  0.00    -0.508 OA
ATOM     43  H   UNL     1      10.309  -0.594  -0.631  1.00  0.00     0.293 HD
ENDBRANCH  41  42
ENDBRANCH  35  36
ENDBRANCH  34  35
BRANCH  34  44
ATOM     44  C   UNL     1      10.459   5.319  -3.098  1.00  0.00     0.243 C 
ATOM     45  O   UNL     1      10.651   4.762  -4.176  1.00  0.00    -0.273 OA
ATOM     46  N   UNL     1       9.189   5.533  -2.606  1.00  0.00    -0.341 N 
ATOM     47  H   UNL     1       9.073   6.101  -1.771  1.00  0.00     0.164 HD
BRANCH  46  48
ATOM     48  C   UNL     1       7.974   5.072  -3.282  1.00  0.00     0.196 C 
BRANCH  48  49
ATOM     49  C   UNL     1       7.091   4.239  -2.338  1.00  0.00     0.072 C 
BRANCH  49  50
ATOM     50  C   UNL     1       7.314   2.752  -2.493  1.00  0.00    -0.045 A 
ATOM     51  C   UNL     1       6.665   1.854  -1.633  1.00  0.00     0.007 A 
ATOM     52  C   UNL     1       8.180   2.251  -3.474  1.00  0.00     0.007 A 
ATOM     53  C   UNL     1       6.874   0.480  -1.758  1.00  0.00     0.046 A 
ATOM     54  C   UNL     1       8.391   0.876  -3.598  1.00  0.00     0.046 A 
ATOM     55  C   UNL     1       7.734   0.002  -2.739  1.00  0.00     0.115 A 
BRANCH  55  56
ATOM     56  O   UNL     1       7.912  -1.347  -2.827  1.00  0.00    -0.508 OA
ATOM     57  H   UNL     1       8.812  -1.517  -3.149  1.00  0.00     0.293 HD
ENDBRANCH  55  56
ENDBRANCH  49  50
ENDBRANCH  48  49
BRANCH  48  58
ATOM     58  C   UNL     1       7.187   6.291  -3.781  1.00  0.00     0.326 C 
ATOM     59  O   UNL     1       7.619   7.239  -4.418  1.00  0.00    -0.250 OA
BRANCH  58  60
ATOM     60  O   UNL     1       5.869   6.252  -3.463  1.00  0.00    -0.480 OA
ATOM     61  H   UNL     1       5.616   7.200  -3.429  1.00  0.00     0.296 HD
ENDBRANCH  58  60
ENDBRANCH  48  58
ENDBRANCH  46  48
ENDBRANCH  34  44
ENDBRANCH  32  34
ENDBRANCH  25  30
ENDBRANCH  23  25
ENDBRANCH   2  23
TORSDOF 28
ENDMDL
MODEL 11
REMARK VINA RESULT:    -5.885      2.484      6.998
REMARK INTER + INTRA:         -19.965
REMARK INTER:                 -13.902
REMARK INTRA:                  -6.063
REMARK UNBOUND:                -5.307
REMARK SMILES CCCCCCC[C@H](N)[C@H](O)C(=O)N[C@H](C)C(=O)N(C)[C@H](CC(C)C)C(=O)N[C@@H](Cc1ccc(O)cc1)C(=O)N[C@@H](Cc1ccc(O)cc1)C(=O)O
REMARK SMILES IDX 18 1 17 2 15 3 16 4 14 5 12 6 13 7 10 9 11 10 8 12 9 13 7 16
REMARK SMILES IDX 6 17 5 18 4 19 3 20 2 21 1 22 19 23 20 24 21 25 22 26 23 27
REMARK SMILES IDX 24 28 25 29 26 30 27 31 28 32 29 34 30 35 31 36 32 37 37 38
REMARK SMILES IDX 33 39 36 40 34 41 35 42 38 44 39 45 40 46 41 48 42 49 43 50
REMARK SMILES IDX 44 51 49 52 45 53 48 54 46 55 47 56 50 58 51 59 52 60
REMARK H PARENT 14 8 11 11 9 14 9 15 28 33 35 43 40 47 47 57 52 61
ROOT
ATOM      1  O   UNL     1       8.345   7.501   0.342  1.00  0.00    -0.272 OA
ATOM      2  C   UNL     1       8.979   7.321   1.393  1.00  0.00     0.245 C 
ENDROOT
BRANCH   2   3
ATOM      3  C   UNL     1       8.241   7.499   2.743  1.00  0.00     0.168 C 
ATOM      4  C   UNL     1       8.705   8.768   3.450  1.00  0.00     0.041 C 
BRANCH   3   5
ATOM      5  N   UNL     1       6.791   7.423   2.662  1.00  0.00    -0.342 N 
ATOM      6  C   UNL     1       6.119   6.222   2.749  1.00  0.00     0.251 C 
ATOM      7  O   UNL     1       6.682   5.138   2.857  1.00  0.00    -0.272 OA
ATOM      8  H   UNL     1       6.216   8.253   2.537  1.00  0.00     0.164 HD
BRANCH   6   9
ATOM      9  C   UNL     1       4.592   6.396   2.782  1.00  0.00     0.219 C 
BRANCH   9  10
ATOM     10  O   UNL     1       4.065   6.892   1.545  1.00  0.00    -0.382 OA
ATOM     11  H   UNL     1       4.711   6.576   0.876  1.00  0.00     0.211 HD
ENDBRANCH   9  10
BRANCH   9  12
ATOM     12  C   UNL     1       3.842   5.113   3.225  1.00  0.00     0.089 C 
BRANCH  12  13
ATOM     13  N   UNL     1       4.169   4.847   4.644  1.00  0.00    -0.325 NA
ATOM     14  H   UNL     1       3.323   4.949   5.209  1.00  0.00     0.119 HD
ATOM     15  H   UNL     1       4.803   5.576   4.980  1.00  0.00     0.119 HD
ENDBRANCH  12  13
BRANCH  12  16
ATOM     16  C   UNL     1       2.307   5.122   3.025  1.00  0.00     0.022 C 
BRANCH  16  17
ATOM     17  C   UNL     1       1.683   4.175   1.990  1.00  0.00     0.002 C 
BRANCH  17  18
ATOM     18  C   UNL     1       2.676   3.270   1.264  1.00  0.00     0.000 C 
BRANCH  18  19
ATOM     19  C   UNL     1       2.246   1.798   1.199  1.00  0.00    -0.000 C 
BRANCH  19  20
ATOM     20  C   UNL     1       2.011   1.251  -0.212  1.00  0.00    -0.000 C 
BRANCH  20  21
ATOM     21  C   UNL     1       3.259   0.606  -0.820  1.00  0.00    -0.003 C 
ATOM     22  C   UNL     1       3.497   1.091  -2.242  1.00  0.00     0.004 C 
ENDBRANCH  20  21
ENDBRANCH  19  20
ENDBRANCH  18  19
ENDBRANCH  17  18
ENDBRANCH  16  17
ENDBRANCH  12  16
ENDBRANCH   9  12
ENDBRANCH   6   9
ENDBRANCH   3   5
ENDBRANCH   2   3
BRANCH   2  23
ATOM     23  N   UNL     1      10.287   6.850   1.344  1.00  0.00    -0.332 N 
ATOM     24  C   UNL     1      10.711   5.541   1.819  1.00  0.00     0.147 C 
BRANCH  23  25
ATOM     25  C   UNL     1      11.345   7.642   0.660  1.00  0.00     0.174 C 
BRANCH  25  26
ATOM     26  C   UNL     1      11.136   9.169   0.793  1.00  0.00     0.038 C 
BRANCH  26  27
ATOM     27  C   UNL     1      10.796   9.944  -0.499  1.00  0.00    -0.015 C 
ATOM     28  C   UNL     1       9.500  10.745  -0.377  1.00  0.00     0.007 C 
ATOM     29  C   UNL     1      11.934  10.836  -0.989  1.00  0.00     0.007 C 
ENDBRANCH  26  27
ENDBRANCH  25  26
BRANCH  25  30
ATOM     30  C   UNL     1      11.509   7.162  -0.800  1.00  0.00     0.243 C 
ATOM     31  O   UNL     1      12.487   7.469  -1.480  1.00  0.00    -0.273 OA
ATOM     32  N   UNL     1      10.491   6.382  -1.286  1.00  0.00    -0.342 N 
ATOM     33  H   UNL     1       9.786   6.054  -0.620  1.00  0.00     0.164 HD
BRANCH  32  34
ATOM     34  C   UNL     1      10.464   5.860  -2.655  1.00  0.00     0.175 C 
BRANCH  34  35
ATOM     35  C   UNL     1      11.532   4.775  -2.861  1.00  0.00     0.070 C 
BRANCH  35  36
ATOM     36  C   UNL     1      11.177   3.470  -2.185  1.00  0.00    -0.045 A 
ATOM     37  C   UNL     1      10.679   3.472  -0.873  1.00  0.00     0.007 A 
ATOM     38  C   UNL     1      11.361   2.246  -2.843  1.00  0.00     0.007 A 
ATOM     39  C   UNL     1      10.362   2.272  -0.236  1.00  0.00     0.046 A 
ATOM     40  C   UNL     1      11.045   1.044  -2.205  1.00  0.00     0.046 A 
ATOM     41  C   UNL     1      10.547   1.068  -0.907  1.00  0.00     0.115 A 
BRANCH  41  42
ATOM     42  O   UNL     1      10.228  -0.082  -0.247  1.00  0.00    -0.508 OA
ATOM     43  H   UNL     1      11.051  -0.563  -0.058  1.00  0.00     0.293 HD
ENDBRANCH  41  42
ENDBRANCH  35  36
ENDBRANCH  34  35
BRANCH  34  44
ATOM     44  C   UNL     1       9.040   5.330  -2.937  1.00  0.00     0.243 C 
ATOM     45  O   UNL     1       8.700   4.774  -3.978  1.00  0.00    -0.273 OA
ATOM     46  N   UNL     1       8.129   5.655  -1.955  1.00  0.00    -0.341 N 
ATOM     47  H   UNL     1       8.434   6.220  -1.166  1.00  0.00     0.164 HD
BRANCH  46  48
ATOM     48  C   UNL     1       6.705   5.320  -2.033  1.00  0.00     0.196 C 
BRANCH  48  49
ATOM     49  C   UNL     1       6.270   4.445  -0.846  1.00  0.00     0.072 C 
BRANCH  49  50
ATOM     50  C   UNL     1       6.608   2.985  -1.044  1.00  0.00    -0.045 A 
ATOM     51  C   UNL     1       6.900   2.503  -2.329  1.00  0.00     0.007 A 
ATOM     52  C   UNL     1       6.615   2.094   0.036  1.00  0.00     0.007 A 
ATOM     53  C   UNL     1       7.201   1.156  -2.526  1.00  0.00     0.046 A 
ATOM     54  C   UNL     1       6.915   0.744  -0.161  1.00  0.00     0.046 A 
ATOM     55  C   UNL     1       7.207   0.287  -1.442  1.00  0.00     0.115 A 
BRANCH  55  56
ATOM     56  O   UNL     1       7.504  -1.023  -1.677  1.00  0.00    -0.508 OA
ATOM     57  H   UNL     1       6.695  -1.547  -1.556  1.00  0.00     0.293 HD
ENDBRANCH  55  56
ENDBRANCH  49  50
ENDBRANCH  48  49
BRANCH  48  58
ATOM     58  C   UNL     1       5.887   6.619  -2.044  1.00  0.00     0.326 C 
ATOM     59  O   UNL     1       5.363   7.155  -3.007  1.00  0.00    -0.250 OA
BRANCH  58  60
ATOM     60  O   UNL     1       5.751   7.183  -0.817  1.00  0.00    -0.480 OA
ATOM     61  H   UNL     1       4.780   7.305  -0.731  1.00  0.00     0.296 HD
ENDBRANCH  58  60
ENDBRANCH  48  58
ENDBRANCH  46  48
ENDBRANCH  34  44
ENDBRANCH  32  34
ENDBRANCH  25  30
ENDBRANCH  23  25
ENDBRANCH   2  23
TORSDOF 28
ENDMDL
MODEL 12
REMARK VINA RESULT:    -5.860      2.328      7.528
REMARK INTER + INTRA:         -19.902
REMARK INTER:                 -13.323
REMARK INTRA:                  -6.579
REMARK UNBOUND:                -5.307
REMARK SMILES CCCCCCC[C@H](N)[C@H](O)C(=O)N[C@H](C)C(=O)N(C)[C@H](CC(C)C)C(=O)N[C@@H](Cc1ccc(O)cc1)C(=O)N[C@@H](Cc1ccc(O)cc1)C(=O)O
REMARK SMILES IDX 18 1 17 2 15 3 16 4 14 5 12 6 13 7 10 9 11 10 8 12 9 13 7 16
REMARK SMILES IDX 6 17 5 18 4 19 3 20 2 21 1 22 19 23 20 24 21 25 22 26 23 27
REMARK SMILES IDX 24 28 25 29 26 30 27 31 28 32 29 34 30 35 31 36 32 37 37 38
REMARK SMILES IDX 33 39 36 40 34 41 35 42 38 44 39 45 40 46 41 48 42 49 43 50
REMARK SMILES IDX 44 51 49 52 45 53 48 54 46 55 47 56 50 58 51 59 52 60
REMARK H PARENT 14 8 11 11 9 14 9 15 28 33 35 43 40 47 47 57 52 61
ROOT
ATOM      1  O   UNL     1       7.887  -1.093  -3.063  1.00  0.00    -0.272 OA
ATOM      2  C   UNL     1       8.591  -0.079  -3.181  1.00  0.00     0.245 C 
ENDROOT
BRANCH   2   3
ATOM      3  C   UNL     1       9.852   0.055  -2.292  1.00  0.00     0.168 C 
ATOM      4  C   UNL     1      11.120  -0.097  -3.124  1.00  0.00     0.041 C 
BRANCH   3   5
ATOM      5  N   UNL     1       9.889   1.248  -1.460  1.00  0.00    -0.342 N 
ATOM      6  C   UNL     1       9.116   1.368  -0.325  1.00  0.00     0.251 C 
ATOM      7  O   UNL     1       8.319   0.513   0.045  1.00  0.00    -0.272 OA
ATOM      8  H   UNL     1      10.487   2.040  -1.685  1.00  0.00     0.164 HD
BRANCH   6   9
ATOM      9  C   UNL     1       9.424   2.647   0.471  1.00  0.00     0.219 C 
BRANCH   9  10
ATOM     10  O   UNL     1       9.873   2.374   1.804  1.00  0.00    -0.382 OA
ATOM     11  H   UNL     1       9.161   1.809   2.176  1.00  0.00     0.211 HD
ENDBRANCH   9  10
BRANCH   9  12
ATOM     12  C   UNL     1      10.410   3.596  -0.259  1.00  0.00     0.089 C 
BRANCH  12  13
ATOM     13  N   UNL     1       9.673   4.297  -1.335  1.00  0.00    -0.325 NA
ATOM     14  H   UNL     1       9.488   3.643  -2.097  1.00  0.00     0.119 HD
ATOM     15  H   UNL     1      10.281   5.013  -1.740  1.00  0.00     0.119 HD
ENDBRANCH  12  13
BRANCH  12  16
ATOM     16  C   UNL     1      11.150   4.621   0.633  1.00  0.00     0.022 C 
BRANCH  16  17
ATOM     17  C   UNL     1      11.435   6.024   0.081  1.00  0.00     0.002 C 
BRANCH  17  18
ATOM     18  C   UNL     1      11.006   7.174   0.989  1.00  0.00     0.000 C 
BRANCH  18  19
ATOM     19  C   UNL     1      11.114   6.861   2.487  1.00  0.00    -0.000 C 
BRANCH  19  20
ATOM     20  C   UNL     1      10.083   7.565   3.374  1.00  0.00    -0.000 C 
BRANCH  20  21
ATOM     21  C   UNL     1       9.420   8.762   2.689  1.00  0.00    -0.003 C 
ATOM     22  C   UNL     1       8.068   9.078   3.309  1.00  0.00     0.004 C 
ENDBRANCH  20  21
ENDBRANCH  19  20
ENDBRANCH  18  19
ENDBRANCH  17  18
ENDBRANCH  16  17
ENDBRANCH  12  16
ENDBRANCH   9  12
ENDBRANCH   6   9
ENDBRANCH   3   5
ENDBRANCH   2   3
BRANCH   2  23
ATOM     23  N   UNL     1       8.312   0.849  -4.179  1.00  0.00    -0.332 N 
ATOM     24  C   UNL     1       9.281   1.784  -4.731  1.00  0.00     0.147 C 
BRANCH  23  25
ATOM     25  C   UNL     1       6.984   0.851  -4.853  1.00  0.00     0.174 C 
BRANCH  25  26
ATOM     26  C   UNL     1       7.018   1.519  -6.247  1.00  0.00     0.038 C 
BRANCH  26  27
ATOM     27  C   UNL     1       5.899   2.537  -6.563  1.00  0.00    -0.015 C 
ATOM     28  C   UNL     1       6.440   3.829  -7.175  1.00  0.00     0.007 C 
ATOM     29  C   UNL     1       4.781   1.960  -7.428  1.00  0.00     0.007 C 
ENDBRANCH  26  27
ENDBRANCH  25  26
BRANCH  25  30
ATOM     30  C   UNL     1       5.910   1.437  -3.909  1.00  0.00     0.243 C 
ATOM     31  O   UNL     1       4.815   0.897  -3.755  1.00  0.00    -0.273 OA
ATOM     32  N   UNL     1       6.255   2.597  -3.263  1.00  0.00    -0.342 N 
ATOM     33  H   UNL     1       7.228   2.905  -3.332  1.00  0.00     0.164 HD
BRANCH  32  34
ATOM     34  C   UNL     1       5.353   3.307  -2.353  1.00  0.00     0.175 C 
BRANCH  34  35
ATOM     35  C   UNL     1       5.585   2.885  -0.894  1.00  0.00     0.070 C 
BRANCH  35  36
ATOM     36  C   UNL     1       4.297   2.718  -0.121  1.00  0.00    -0.045 A 
ATOM     37  C   UNL     1       3.480   1.601  -0.351  1.00  0.00     0.007 A 
ATOM     38  C   UNL     1       3.888   3.680   0.813  1.00  0.00     0.007 A 
ATOM     39  C   UNL     1       2.282   1.445   0.348  1.00  0.00     0.046 A 
ATOM     40  C   UNL     1       2.689   3.526   1.511  1.00  0.00     0.046 A 
ATOM     41  C   UNL     1       1.896   2.408   1.273  1.00  0.00     0.115 A 
BRANCH  41  42
ATOM     42  O   UNL     1       0.718   2.219   1.932  1.00  0.00    -0.508 OA
ATOM     43  H   UNL     1       0.689   1.302   2.250  1.00  0.00     0.293 HD
ENDBRANCH  41  42
ENDBRANCH  35  36
ENDBRANCH  34  35
BRANCH  34  44
ATOM     44  C   UNL     1       5.565   4.824  -2.556  1.00  0.00     0.243 C 
ATOM     45  O   UNL     1       5.006   5.493  -3.421  1.00  0.00    -0.273 OA
ATOM     46  N   UNL     1       6.552   5.353  -1.751  1.00  0.00    -0.341 N 
ATOM     47  H   UNL     1       7.068   4.734  -1.131  1.00  0.00     0.164 HD
BRANCH  46  48
ATOM     48  C   UNL     1       6.977   6.753  -1.812  1.00  0.00     0.196 C 
BRANCH  48  49
ATOM     49  C   UNL     1       7.679   7.182  -0.513  1.00  0.00     0.072 C 
BRANCH  49  50
ATOM     50  C   UNL     1       7.036   6.586   0.720  1.00  0.00    -0.045 A 
ATOM     51  C   UNL     1       5.783   7.048   1.147  1.00  0.00     0.007 A 
ATOM     52  C   UNL     1       7.684   5.589   1.459  1.00  0.00     0.007 A 
ATOM     53  C   UNL     1       5.186   6.515   2.290  1.00  0.00     0.046 A 
ATOM     54  C   UNL     1       7.087   5.056   2.604  1.00  0.00     0.046 A 
ATOM     55  C   UNL     1       5.842   5.523   3.009  1.00  0.00     0.115 A 
BRANCH  55  56
ATOM     56  O   UNL     1       5.226   5.030   4.121  1.00  0.00    -0.508 OA
ATOM     57  H   UNL     1       5.348   4.068   4.137  1.00  0.00     0.293 HD
ENDBRANCH  55  56
ENDBRANCH  49  50
ENDBRANCH  48  49
BRANCH  48  58
ATOM     58  C   UNL     1       7.936   6.932  -2.998  1.00  0.00     0.326 C 
ATOM     59  O   UNL     1       9.135   6.707  -3.019  1.00  0.00    -0.250 OA
BRANCH  58  60
ATOM     60  O   UNL     1       7.325   7.380  -4.124  1.00  0.00    -0.480 OA
ATOM     61  H   UNL     1       7.417   8.355  -4.058  1.00  0.00     0.296 HD
ENDBRANCH  58  60
ENDBRANCH  48  58
ENDBRANCH  46  48
ENDBRANCH  34  44
ENDBRANCH  32  34
ENDBRANCH  25  30
ENDBRANCH  23  25
ENDBRANCH   2  23
TORSDOF 28
ENDMDL
MODEL 13
REMARK VINA RESULT:    -5.827      2.880      7.073
REMARK INTER + INTRA:         -19.821
REMARK INTER:                 -14.208
REMARK INTRA:                  -5.613
REMARK UNBOUND:                -5.307
REMARK SMILES CCCCCCC[C@H](N)[C@H](O)C(=O)N[C@H](C)C(=O)N(C)[C@H](CC(C)C)C(=O)N[C@@H](Cc1ccc(O)cc1)C(=O)N[C@@H](Cc1ccc(O)cc1)C(=O)O
REMARK SMILES IDX 18 1 17 2 15 3 16 4 14 5 12 6 13 7 10 9 11 10 8 12 9 13 7 16
REMARK SMILES IDX 6 17 5 18 4 19 3 20 2 21 1 22 19 23 20 24 21 25 22 26 23 27
REMARK SMILES IDX 24 28 25 29 26 30 27 31 28 32 29 34 30 35 31 36 32 37 37 38
REMARK SMILES IDX 33 39 36 40 34 41 35 42 38 44 39 45 40 46 41 48 42 49 43 50
REMARK SMILES IDX 44 51 49 52 45 53 48 54 46 55 47 56 50 58 51 59 52 60
REMARK H PARENT 14 8 11 11 9 14 9 15 28 33 35 43 40 47 47 57 52 61
ROOT
ATOM      1  O   UNL     1       7.549  -0.022   0.760  1.00  0.00    -0.272 OA
ATOM      2  C   UNL     1       7.825   0.623  -0.262  1.00  0.00     0.245 C 
ENDROOT
BRANCH   2   3
ATOM      3  C   UNL     1       6.765   0.719  -1.387  1.00  0.00     0.168 C 
ATOM      4  C   UNL     1       5.592   1.591  -0.953  1.00  0.00     0.041 C 
BRANCH   3   5
ATOM      5  N   UNL     1       7.285   1.118  -2.686  1.00  0.00    -0.342 N 
ATOM      6  C   UNL     1       7.777   0.197  -3.587  1.00  0.00     0.251 C 
ATOM      7  O   UNL     1       7.852  -1.004  -3.353  1.00  0.00    -0.272 OA
ATOM      8  H   UNL     1       7.307   2.092  -2.978  1.00  0.00     0.164 HD
BRANCH   6   9
ATOM      9  C   UNL     1       8.138   0.827  -4.942  1.00  0.00     0.219 C 
BRANCH   9  10
ATOM     10  O   UNL     1       9.198   0.131  -5.609  1.00  0.00    -0.382 OA
ATOM     11  H   UNL     1       8.788  -0.724  -5.866  1.00  0.00     0.211 HD
ENDBRANCH   9  10
BRANCH   9  12
ATOM     12  C   UNL     1       6.915   0.997  -5.880  1.00  0.00     0.089 C 
BRANCH  12  13
ATOM     13  N   UNL     1       5.794   0.197  -5.336  1.00  0.00    -0.325 NA
ATOM     14  H   UNL     1       5.797  -0.726  -5.774  1.00  0.00     0.119 HD
ATOM     15  H   UNL     1       4.911   0.626  -5.623  1.00  0.00     0.119 HD
ENDBRANCH  12  13
BRANCH  12  16
ATOM     16  C   UNL     1       6.454   2.453  -6.135  1.00  0.00     0.022 C 
BRANCH  16  17
ATOM     17  C   UNL     1       6.581   3.485  -5.007  1.00  0.00     0.002 C 
BRANCH  17  18
ATOM     18  C   UNL     1       6.874   4.911  -5.468  1.00  0.00     0.000 C 
BRANCH  18  19
ATOM     19  C   UNL     1       7.479   5.000  -6.876  1.00  0.00    -0.000 C 
BRANCH  19  20
ATOM     20  C   UNL     1       8.983   5.287  -6.920  1.00  0.00    -0.000 C 
BRANCH  20  21
ATOM     21  C   UNL     1       9.834   4.098  -6.466  1.00  0.00    -0.003 C 
ATOM     22  C   UNL     1      10.524   4.384  -5.141  1.00  0.00     0.004 C 
ENDBRANCH  20  21
ENDBRANCH  19  20
ENDBRANCH  18  19
ENDBRANCH  17  18
ENDBRANCH  16  17
ENDBRANCH  12  16
ENDBRANCH   9  12
ENDBRANCH   6   9
ENDBRANCH   3   5
ENDBRANCH   2   3
BRANCH   2  23
ATOM     23  N   UNL     1       9.014   1.341  -0.331  1.00  0.00    -0.332 N 
ATOM     24  C   UNL     1      10.252   0.836  -0.906  1.00  0.00     0.147 C 
BRANCH  23  25
ATOM     25  C   UNL     1       9.053   2.771   0.082  1.00  0.00     0.174 C 
BRANCH  25  26
ATOM     26  C   UNL     1       8.319   3.031   1.418  1.00  0.00     0.038 C 
BRANCH  26  27
ATOM     27  C   UNL     1       9.036   3.934   2.447  1.00  0.00    -0.015 C 
ATOM     28  C   UNL     1      10.456   4.299   2.015  1.00  0.00     0.007 C 
ATOM     29  C   UNL     1       8.245   5.190   2.808  1.00  0.00     0.007 C 
ENDBRANCH  26  27
ENDBRANCH  25  26
BRANCH  25  30
ATOM     30  C   UNL     1       8.573   3.673  -1.077  1.00  0.00     0.243 C 
ATOM     31  O   UNL     1       8.971   3.517  -2.231  1.00  0.00    -0.273 OA
ATOM     32  N   UNL     1       7.683   4.658  -0.733  1.00  0.00    -0.342 N 
ATOM     33  H   UNL     1       7.293   4.634   0.212  1.00  0.00     0.164 HD
BRANCH  32  34
ATOM     34  C   UNL     1       7.142   5.622  -1.695  1.00  0.00     0.175 C 
BRANCH  34  35
ATOM     35  C   UNL     1       5.624   5.788  -1.528  1.00  0.00     0.070 C 
BRANCH  35  36
ATOM     36  C   UNL     1       5.187   5.739  -0.081  1.00  0.00    -0.045 A 
ATOM     37  C   UNL     1       5.398   6.847   0.754  1.00  0.00     0.007 A 
ATOM     38  C   UNL     1       4.590   4.589   0.451  1.00  0.00     0.007 A 
ATOM     39  C   UNL     1       5.011   6.807   2.093  1.00  0.00     0.046 A 
ATOM     40  C   UNL     1       4.203   4.547   1.793  1.00  0.00     0.046 A 
ATOM     41  C   UNL     1       4.416   5.658   2.602  1.00  0.00     0.115 A 
BRANCH  41  42
ATOM     42  O   UNL     1       4.055   5.659   3.917  1.00  0.00    -0.508 OA
ATOM     43  H   UNL     1       3.602   6.497   4.108  1.00  0.00     0.293 HD
ENDBRANCH  41  42
ENDBRANCH  35  36
ENDBRANCH  34  35
BRANCH  34  44
ATOM     44  C   UNL     1       7.894   6.959  -1.506  1.00  0.00     0.243 C 
ATOM     45  O   UNL     1       7.660   7.982  -2.144  1.00  0.00    -0.273 OA
ATOM     46  N   UNL     1       8.958   6.872  -0.634  1.00  0.00    -0.341 N 
ATOM     47  H   UNL     1       9.183   5.972  -0.218  1.00  0.00     0.164 HD
BRANCH  46  48
ATOM     48  C   UNL     1       9.858   7.991  -0.347  1.00  0.00     0.196 C 
BRANCH  48  49
ATOM     49  C   UNL     1      10.399   7.920   1.091  1.00  0.00     0.072 C 
BRANCH  49  50
ATOM     50  C   UNL     1      10.073   9.158   1.897  1.00  0.00    -0.045 A 
ATOM     51  C   UNL     1       9.910   9.064   3.286  1.00  0.00     0.007 A 
ATOM     52  C   UNL     1       9.911  10.402   1.273  1.00  0.00     0.007 A 
ATOM     53  C   UNL     1       9.596  10.196   4.038  1.00  0.00     0.046 A 
ATOM     54  C   UNL     1       9.596  11.535   2.026  1.00  0.00     0.046 A 
ATOM     55  C   UNL     1       9.442  11.423   3.403  1.00  0.00     0.115 A 
BRANCH  55  56
ATOM     56  O   UNL     1       9.134  12.505   4.174  1.00  0.00    -0.508 OA
ATOM     57  H   UNL     1       8.172  12.529   4.296  1.00  0.00     0.293 HD
ENDBRANCH  55  56
ENDBRANCH  49  50
ENDBRANCH  48  49
BRANCH  48  58
ATOM     58  C   UNL     1      11.028   7.957  -1.339  1.00  0.00     0.326 C 
ATOM     59  O   UNL     1      12.182   7.629  -1.111  1.00  0.00    -0.250 OA
BRANCH  58  60
ATOM     60  O   UNL     1      10.682   8.330  -2.597  1.00  0.00    -0.480 OA
ATOM     61  H   UNL     1      11.518   8.225  -3.102  1.00  0.00     0.296 HD
ENDBRANCH  58  60
ENDBRANCH  48  58
ENDBRANCH  46  48
ENDBRANCH  34  44
ENDBRANCH  32  34
ENDBRANCH  25  30
ENDBRANCH  23  25
ENDBRANCH   2  23
TORSDOF 28
ENDMDL
MODEL 14
REMARK VINA RESULT:    -5.811      3.453      8.119
REMARK INTER + INTRA:         -19.779
REMARK INTER:                 -13.424
REMARK INTRA:                  -6.356
REMARK UNBOUND:                -5.307
REMARK SMILES CCCCCCC[C@H](N)[C@H](O)C(=O)N[C@H](C)C(=O)N(C)[C@H](CC(C)C)C(=O)N[C@@H](Cc1ccc(O)cc1)C(=O)N[C@@H](Cc1ccc(O)cc1)C(=O)O
REMARK SMILES IDX 18 1 17 2 15 3 16 4 14 5 12 6 13 7 10 9 11 10 8 12 9 13 7 16
REMARK SMILES IDX 6 17 5 18 4 19 3 20 2 21 1 22 19 23 20 24 21 25 22 26 23 27
REMARK SMILES IDX 24 28 25 29 26 30 27 31 28 32 29 34 30 35 31 36 32 37 37 38
REMARK SMILES IDX 33 39 36 40 34 41 35 42 38 44 39 45 40 46 41 48 42 49 43 50
REMARK SMILES IDX 44 51 49 52 45 53 48 54 46 55 47 56 50 58 51 59 52 60
REMARK H PARENT 14 8 11 11 9 14 9 15 28 33 35 43 40 47 47 57 52 61
ROOT
ATOM      1  O   UNL     1       7.343  -0.310  -3.968  1.00  0.00    -0.272 OA
ATOM      2  C   UNL     1       7.664   0.346  -4.970  1.00  0.00     0.245 C 
ENDROOT
BRANCH   2   3
ATOM      3  C   UNL     1       8.829   1.361  -4.849  1.00  0.00     0.168 C 
ATOM      4  C   UNL     1       8.405   2.734  -5.357  1.00  0.00     0.041 C 
BRANCH   3   5
ATOM      5  N   UNL     1       9.441   1.435  -3.532  1.00  0.00    -0.342 N 
ATOM      6  C   UNL     1      10.633   0.803  -3.246  1.00  0.00     0.251 C 
ATOM      7  O   UNL     1      11.239   0.106  -4.053  1.00  0.00    -0.272 OA
ATOM      8  H   UNL     1       9.013   1.956  -2.770  1.00  0.00     0.164 HD
BRANCH   6   9
ATOM      9  C   UNL     1      11.160   1.135  -1.841  1.00  0.00     0.219 C 
BRANCH   9  10
ATOM     10  O   UNL     1      11.995   0.102  -1.305  1.00  0.00    -0.382 OA
ATOM     11  H   UNL     1      12.884   0.517  -1.271  1.00  0.00     0.211 HD
ENDBRANCH   9  10
BRANCH   9  12
ATOM     12  C   UNL     1      11.872   2.511  -1.768  1.00  0.00     0.089 C 
BRANCH  12  13
ATOM     13  N   UNL     1      12.208   2.938  -3.146  1.00  0.00    -0.325 NA
ATOM     14  H   UNL     1      12.620   2.150  -3.650  1.00  0.00     0.119 HD
ATOM     15  H   UNL     1      12.947   3.643  -3.103  1.00  0.00     0.119 HD
ENDBRANCH  12  13
BRANCH  12  16
ATOM     16  C   UNL     1      11.101   3.636  -1.037  1.00  0.00     0.022 C 
BRANCH  16  17
ATOM     17  C   UNL     1       9.938   4.334  -1.756  1.00  0.00     0.002 C 
BRANCH  17  18
ATOM     18  C   UNL     1       9.325   5.511  -0.999  1.00  0.00     0.000 C 
BRANCH  18  19
ATOM     19  C   UNL     1       8.122   6.149  -1.706  1.00  0.00    -0.000 C 
BRANCH  19  20
ATOM     20  C   UNL     1       7.601   5.381  -2.924  1.00  0.00    -0.000 C 
BRANCH  20  21
ATOM     21  C   UNL     1       6.088   5.150  -2.885  1.00  0.00    -0.003 C 
ATOM     22  C   UNL     1       5.476   5.247  -4.274  1.00  0.00     0.004 C 
ENDBRANCH  20  21
ENDBRANCH  19  20
ENDBRANCH  18  19
ENDBRANCH  17  18
ENDBRANCH  16  17
ENDBRANCH  12  16
ENDBRANCH   9  12
ENDBRANCH   6   9
ENDBRANCH   3   5
ENDBRANCH   2   3
BRANCH   2  23
ATOM     23  N   UNL     1       7.067   0.078  -6.197  1.00  0.00    -0.332 N 
ATOM     24  C   UNL     1       7.795  -0.180  -7.430  1.00  0.00     0.147 C 
BRANCH  23  25
ATOM     25  C   UNL     1       5.591  -0.090  -6.293  1.00  0.00     0.174 C 
BRANCH  25  26
ATOM     26  C   UNL     1       5.105  -0.323  -7.743  1.00  0.00     0.038 C 
BRANCH  26  27
ATOM     27  C   UNL     1       4.009  -1.392  -7.951  1.00  0.00    -0.015 C 
ATOM     28  C   UNL     1       4.090  -2.519  -6.922  1.00  0.00     0.007 C 
ATOM     29  C   UNL     1       2.598  -0.813  -8.004  1.00  0.00     0.007 C 
ENDBRANCH  26  27
ENDBRANCH  25  26
BRANCH  25  30
ATOM     30  C   UNL     1       4.875   1.078  -5.578  1.00  0.00     0.243 C 
ATOM     31  O   UNL     1       4.886   2.222  -6.029  1.00  0.00    -0.273 OA
ATOM     32  N   UNL     1       4.235   0.755  -4.409  1.00  0.00    -0.342 N 
ATOM     33  H   UNL     1       4.150  -0.238  -4.174  1.00  0.00     0.164 HD
BRANCH  32  34
ATOM     34  C   UNL     1       3.528   1.737  -3.583  1.00  0.00     0.175 C 
BRANCH  34  35
ATOM     35  C   UNL     1       2.020   1.446  -3.536  1.00  0.00     0.070 C 
BRANCH  35  36
ATOM     36  C   UNL     1       1.714  -0.016  -3.296  1.00  0.00    -0.045 A 
ATOM     37  C   UNL     1       1.762  -0.927  -4.362  1.00  0.00     0.007 A 
ATOM     38  C   UNL     1       1.359  -0.476  -2.021  1.00  0.00     0.007 A 
ATOM     39  C   UNL     1       1.468  -2.274  -4.153  1.00  0.00     0.046 A 
ATOM     40  C   UNL     1       1.063  -1.825  -1.812  1.00  0.00     0.046 A 
ATOM     41  C   UNL     1       1.122  -2.713  -2.881  1.00  0.00     0.115 A 
BRANCH  41  42
ATOM     42  O   UNL     1       0.839  -4.037  -2.720  1.00  0.00    -0.508 OA
ATOM     43  H   UNL     1       0.107  -4.117  -2.085  1.00  0.00     0.293 HD
ENDBRANCH  41  42
ENDBRANCH  35  36
ENDBRANCH  34  35
BRANCH  34  44
ATOM     44  C   UNL     1       4.163   1.725  -2.175  1.00  0.00     0.243 C 
ATOM     45  O   UNL     1       4.857   0.813  -1.734  1.00  0.00    -0.273 OA
ATOM     46  N   UNL     1       3.772   2.787  -1.387  1.00  0.00    -0.341 N 
ATOM     47  H   UNL     1       3.102   3.457  -1.758  1.00  0.00     0.164 HD
BRANCH  46  48
ATOM     48  C   UNL     1       4.189   2.953   0.007  1.00  0.00     0.196 C 
BRANCH  48  49
ATOM     49  C   UNL     1       5.140   4.151   0.168  1.00  0.00     0.072 C 
BRANCH  49  50
ATOM     50  C   UNL     1       6.477   3.758   0.755  1.00  0.00    -0.045 A 
ATOM     51  C   UNL     1       7.081   4.572   1.725  1.00  0.00     0.007 A 
ATOM     52  C   UNL     1       7.137   2.598   0.332  1.00  0.00     0.007 A 
ATOM     53  C   UNL     1       8.320   4.227   2.264  1.00  0.00     0.046 A 
ATOM     54  C   UNL     1       8.379   2.253   0.871  1.00  0.00     0.046 A 
ATOM     55  C   UNL     1       8.959   3.070   1.835  1.00  0.00     0.115 A 
BRANCH  55  56
ATOM     56  O   UNL     1      10.169   2.769   2.386  1.00  0.00    -0.508 OA
ATOM     57  H   UNL     1      10.515   1.975   1.949  1.00  0.00     0.293 HD
ENDBRANCH  55  56
ENDBRANCH  49  50
ENDBRANCH  48  49
BRANCH  48  58
ATOM     58  C   UNL     1       2.944   3.164   0.879  1.00  0.00     0.326 C 
ATOM     59  O   UNL     1       2.850   3.858   1.878  1.00  0.00    -0.250 OA
BRANCH  58  60
ATOM     60  O   UNL     1       1.852   2.491   0.436  1.00  0.00    -0.480 OA
ATOM     61  H   UNL     1       1.335   2.335   1.256  1.00  0.00     0.296 HD
ENDBRANCH  58  60
ENDBRANCH  48  58
ENDBRANCH  46  48
ENDBRANCH  34  44
ENDBRANCH  32  34
ENDBRANCH  25  30
ENDBRANCH  23  25
ENDBRANCH   2  23
TORSDOF 28
ENDMDL
MODEL 15
REMARK VINA RESULT:    -5.757      3.543      7.957
REMARK INTER + INTRA:         -19.645
REMARK INTER:                 -13.285
REMARK INTRA:                  -6.360
REMARK UNBOUND:                -5.307
REMARK SMILES CCCCCCC[C@H](N)[C@H](O)C(=O)N[C@H](C)C(=O)N(C)[C@H](CC(C)C)C(=O)N[C@@H](Cc1ccc(O)cc1)C(=O)N[C@@H](Cc1ccc(O)cc1)C(=O)O
REMARK SMILES IDX 18 1 17 2 15 3 16 4 14 5 12 6 13 7 10 9 11 10 8 12 9 13 7 16
REMARK SMILES IDX 6 17 5 18 4 19 3 20 2 21 1 22 19 23 20 24 21 25 22 26 23 27
REMARK SMILES IDX 24 28 25 29 26 30 27 31 28 32 29 34 30 35 31 36 32 37 37 38
REMARK SMILES IDX 33 39 36 40 34 41 35 42 38 44 39 45 40 46 41 48 42 49 43 50
REMARK SMILES IDX 44 51 49 52 45 53 48 54 46 55 47 56 50 58 51 59 52 60
REMARK H PARENT 14 8 11 11 9 14 9 15 28 33 35 43 40 47 47 57 52 61
ROOT
ATOM      1  O   UNL     1      10.379   3.496  -1.659  1.00  0.00    -0.272 OA
ATOM      2  C   UNL     1       9.588   2.554  -1.501  1.00  0.00     0.245 C 
ENDROOT
BRANCH   2   3
ATOM      3  C   UNL     1       9.814   1.589  -0.310  1.00  0.00     0.168 C 
ATOM      4  C   UNL     1      10.784   0.476  -0.693  1.00  0.00     0.041 C 
BRANCH   3   5
ATOM      5  N   UNL     1      10.194   2.235   0.936  1.00  0.00    -0.342 N 
ATOM      6  C   UNL     1       9.274   2.886   1.729  1.00  0.00     0.251 C 
ATOM      7  O   UNL     1       8.090   3.007   1.431  1.00  0.00    -0.272 OA
ATOM      8  H   UNL     1      11.155   2.231   1.271  1.00  0.00     0.164 HD
BRANCH   6   9
ATOM      9  C   UNL     1       9.871   3.367   3.062  1.00  0.00     0.219 C 
BRANCH   9  10
ATOM     10  O   UNL     1      10.679   2.369   3.696  1.00  0.00    -0.382 OA
ATOM     11  H   UNL     1      11.387   2.890   4.136  1.00  0.00     0.211 HD
ENDBRANCH   9  10
BRANCH   9  12
ATOM     12  C   UNL     1      10.645   4.704   2.935  1.00  0.00     0.089 C 
BRANCH  12  13
ATOM     13  N   UNL     1      11.747   4.516   1.963  1.00  0.00    -0.325 NA
ATOM     14  H   UNL     1      12.207   5.413   1.800  1.00  0.00     0.119 HD
ATOM     15  H   UNL     1      11.349   4.252   1.059  1.00  0.00     0.119 HD
ENDBRANCH  12  13
BRANCH  12  16
ATOM     16  C   UNL     1       9.801   5.942   2.548  1.00  0.00     0.022 C 
BRANCH  16  17
ATOM     17  C   UNL     1       9.050   6.707   3.647  1.00  0.00     0.002 C 
BRANCH  17  18
ATOM     18  C   UNL     1       8.171   7.852   3.149  1.00  0.00     0.000 C 
BRANCH  18  19
ATOM     19  C   UNL     1       7.220   7.460   2.010  1.00  0.00    -0.000 C 
BRANCH  19  20
ATOM     20  C   UNL     1       5.873   6.883   2.456  1.00  0.00    -0.000 C 
BRANCH  20  21
ATOM     21  C   UNL     1       4.887   6.700   1.300  1.00  0.00    -0.003 C 
ATOM     22  C   UNL     1       5.164   5.416   0.534  1.00  0.00     0.004 C 
ENDBRANCH  20  21
ENDBRANCH  19  20
ENDBRANCH  18  19
ENDBRANCH  17  18
ENDBRANCH  16  17
ENDBRANCH  12  16
ENDBRANCH   9  12
ENDBRANCH   6   9
ENDBRANCH   3   5
ENDBRANCH   2   3
BRANCH   2  23
ATOM     23  N   UNL     1       8.458   2.451  -2.306  1.00  0.00    -0.332 N 
ATOM     24  C   UNL     1       8.382   1.661  -3.525  1.00  0.00     0.147 C 
BRANCH  23  25
ATOM     25  C   UNL     1       7.173   3.069  -1.878  1.00  0.00     0.174 C 
BRANCH  25  26
ATOM     26  C   UNL     1       5.963   2.121  -2.050  1.00  0.00     0.038 C 
BRANCH  26  27
ATOM     27  C   UNL     1       5.551   1.281  -0.821  1.00  0.00    -0.015 C 
ATOM     28  C   UNL     1       4.087   0.845  -0.875  1.00  0.00     0.007 C 
ATOM     29  C   UNL     1       6.460   0.081  -0.573  1.00  0.00     0.007 C 
ENDBRANCH  26  27
ENDBRANCH  25  26
BRANCH  25  30
ATOM     30  C   UNL     1       6.989   4.443  -2.564  1.00  0.00     0.243 C 
ATOM     31  O   UNL     1       6.205   4.603  -3.498  1.00  0.00    -0.273 OA
ATOM     32  N   UNL     1       7.759   5.462  -2.066  1.00  0.00    -0.342 N 
ATOM     33  H   UNL     1       8.277   5.285  -1.201  1.00  0.00     0.164 HD
BRANCH  32  34
ATOM     34  C   UNL     1       7.736   6.823  -2.609  1.00  0.00     0.175 C 
BRANCH  34  35
ATOM     35  C   UNL     1       6.870   7.754  -1.747  1.00  0.00     0.070 C 
BRANCH  35  36
ATOM     36  C   UNL     1       6.104   8.767  -2.569  1.00  0.00    -0.045 A 
ATOM     37  C   UNL     1       6.785   9.820  -3.197  1.00  0.00     0.007 A 
ATOM     38  C   UNL     1       4.711   8.684  -2.697  1.00  0.00     0.007 A 
ATOM     39  C   UNL     1       6.086  10.767  -3.946  1.00  0.00     0.046 A 
ATOM     40  C   UNL     1       4.010   9.632  -3.446  1.00  0.00     0.046 A 
ATOM     41  C   UNL     1       4.705  10.665  -4.065  1.00  0.00     0.115 A 
BRANCH  41  42
ATOM     42  O   UNL     1       4.060  11.613  -4.803  1.00  0.00    -0.508 OA
ATOM     43  H   UNL     1       4.695  11.995  -5.431  1.00  0.00     0.293 HD
ENDBRANCH  41  42
ENDBRANCH  35  36
ENDBRANCH  34  35
BRANCH  34  44
ATOM     44  C   UNL     1       9.195   7.322  -2.710  1.00  0.00     0.243 C 
ATOM     45  O   UNL     1       9.779   7.548  -3.766  1.00  0.00    -0.273 OA
ATOM     46  N   UNL     1       9.844   7.371  -1.495  1.00  0.00    -0.341 N 
ATOM     47  H   UNL     1       9.353   7.062  -0.660  1.00  0.00     0.164 HD
BRANCH  46  48
ATOM     48  C   UNL     1      11.252   7.748  -1.348  1.00  0.00     0.196 C 
BRANCH  48  49
ATOM     49  C   UNL     1      11.479   8.578  -0.073  1.00  0.00     0.072 C 
BRANCH  49  50
ATOM     50  C   UNL     1      10.646   9.840  -0.044  1.00  0.00    -0.045 A 
ATOM     51  C   UNL     1      10.138  10.314   1.174  1.00  0.00     0.007 A 
ATOM     52  C   UNL     1      10.355  10.538  -1.223  1.00  0.00     0.007 A 
ATOM     53  C   UNL     1       9.357  11.470   1.211  1.00  0.00     0.046 A 
ATOM     54  C   UNL     1       9.572  11.695  -1.186  1.00  0.00     0.046 A 
ATOM     55  C   UNL     1       9.081  12.152   0.032  1.00  0.00     0.115 A 
BRANCH  55  56
ATOM     56  O   UNL     1       8.313  13.276   0.111  1.00  0.00    -0.508 OA
ATOM     57  H   UNL     1       7.400  13.009   0.302  1.00  0.00     0.293 HD
ENDBRANCH  55  56
ENDBRANCH  49  50
ENDBRANCH  48  49
BRANCH  48  58
ATOM     58  C   UNL     1      12.107   6.475  -1.292  1.00  0.00     0.326 C 
ATOM     59  O   UNL     1      12.707   6.029  -0.327  1.00  0.00    -0.250 OA
BRANCH  58  60
ATOM     60  O   UNL     1      12.154   5.803  -2.470  1.00  0.00    -0.480 OA
ATOM     61  H   UNL     1      12.401   4.891  -2.200  1.00  0.00     0.296 HD
ENDBRANCH  58  60
ENDBRANCH  48  58
ENDBRANCH  46  48
ENDBRANCH  34  44
ENDBRANCH  32  34
ENDBRANCH  25  30
ENDBRANCH  23  25
ENDBRANCH   2  23
TORSDOF 28
ENDMDL
MODEL 16
REMARK VINA RESULT:    -5.739      2.733      7.040
REMARK INTER + INTRA:         -19.601
REMARK INTER:                 -13.296
REMARK INTRA:                  -6.304
REMARK UNBOUND:                -5.307
REMARK SMILES CCCCCCC[C@H](N)[C@H](O)C(=O)N[C@H](C)C(=O)N(C)[C@H](CC(C)C)C(=O)N[C@@H](Cc1ccc(O)cc1)C(=O)N[C@@H](Cc1ccc(O)cc1)C(=O)O
REMARK SMILES IDX 18 1 17 2 15 3 16 4 14 5 12 6 13 7 10 9 11 10 8 12 9 13 7 16
REMARK SMILES IDX 6 17 5 18 4 19 3 20 2 21 1 22 19 23 20 24 21 25 22 26 23 27
REMARK SMILES IDX 24 28 25 29 26 30 27 31 28 32 29 34 30 35 31 36 32 37 37 38
REMARK SMILES IDX 33 39 36 40 34 41 35 42 38 44 39 45 40 46 41 48 42 49 43 50
REMARK SMILES IDX 44 51 49 52 45 53 48 54 46 55 47 56 50 58 51 59 52 60
REMARK H PARENT 14 8 11 11 9 14 9 15 28 33 35 43 40 47 47 57 52 61
ROOT
ATOM      1  O   UNL     1       9.600   4.994  -3.523  1.00  0.00    -0.272 OA
ATOM      2  C   UNL     1       9.737   6.077  -2.936  1.00  0.00     0.245 C 
ENDROOT
BRANCH   2   3
ATOM      3  C   UNL     1       8.591   7.116  -3.018  1.00  0.00     0.168 C 
ATOM      4  C   UNL     1       8.561   7.781  -4.390  1.00  0.00     0.041 C 
BRANCH   3   5
ATOM      5  N   UNL     1       7.282   6.613  -2.631  1.00  0.00    -0.342 N 
ATOM      6  C   UNL     1       6.794   6.766  -1.350  1.00  0.00     0.251 C 
ATOM      7  O   UNL     1       7.431   7.289  -0.441  1.00  0.00    -0.272 OA
ATOM      8  H   UNL     1       6.677   6.130  -3.290  1.00  0.00     0.164 HD
BRANCH   6   9
ATOM      9  C   UNL     1       5.341   6.288  -1.207  1.00  0.00     0.219 C 
BRANCH   9  10
ATOM     10  O   UNL     1       4.890   5.540  -2.343  1.00  0.00    -0.382 OA
ATOM     11  H   UNL     1       5.571   4.839  -2.443  1.00  0.00     0.211 HD
ENDBRANCH   9  10
BRANCH   9  12
ATOM     12  C   UNL     1       5.084   5.502   0.106  1.00  0.00     0.089 C 
BRANCH  12  13
ATOM     13  N   UNL     1       6.234   4.600   0.343  1.00  0.00    -0.325 NA
ATOM     14  H   UNL     1       6.588   4.750   1.290  1.00  0.00     0.119 HD
ATOM     15  H   UNL     1       7.002   4.874  -0.275  1.00  0.00     0.119 HD
ENDBRANCH  12  13
BRANCH  12  16
ATOM     16  C   UNL     1       4.810   6.358   1.365  1.00  0.00     0.022 C 
BRANCH  16  17
ATOM     17  C   UNL     1       4.868   5.693   2.747  1.00  0.00     0.002 C 
BRANCH  17  18
ATOM     18  C   UNL     1       3.548   5.684   3.514  1.00  0.00     0.000 C 
BRANCH  18  19
ATOM     19  C   UNL     1       2.765   4.369   3.394  1.00  0.00    -0.000 C 
BRANCH  19  20
ATOM     20  C   UNL     1       1.849   4.268   2.171  1.00  0.00    -0.000 C 
BRANCH  20  21
ATOM     21  C   UNL     1       2.146   3.045   1.300  1.00  0.00    -0.003 C 
ATOM     22  C   UNL     1       1.785   1.753   2.016  1.00  0.00     0.004 C 
ENDBRANCH  20  21
ENDBRANCH  19  20
ENDBRANCH  18  19
ENDBRANCH  17  18
ENDBRANCH  16  17
ENDBRANCH  12  16
ENDBRANCH   9  12
ENDBRANCH   6   9
ENDBRANCH   3   5
ENDBRANCH   2   3
BRANCH   2  23
ATOM     23  N   UNL     1      10.846   6.292  -2.124  1.00  0.00    -0.332 N 
ATOM     24  C   UNL     1      12.162   5.713  -2.352  1.00  0.00     0.147 C 
BRANCH  23  25
ATOM     25  C   UNL     1      10.777   7.267  -1.001  1.00  0.00     0.174 C 
BRANCH  25  26
ATOM     26  C   UNL     1      11.818   8.404  -1.127  1.00  0.00     0.038 C 
BRANCH  26  27
ATOM     27  C   UNL     1      11.306   9.848  -0.922  1.00  0.00    -0.015 C 
ATOM     28  C   UNL     1      10.580  10.027   0.411  1.00  0.00     0.007 C 
ATOM     29  C   UNL     1      12.392  10.907  -1.089  1.00  0.00     0.007 C 
ENDBRANCH  26  27
ENDBRANCH  25  26
BRANCH  25  30
ATOM     30  C   UNL     1      10.829   6.523   0.353  1.00  0.00     0.243 C 
ATOM     31  O   UNL     1      11.850   6.492   1.039  1.00  0.00    -0.273 OA
ATOM     32  N   UNL     1       9.668   5.900   0.732  1.00  0.00    -0.342 N 
ATOM     33  H   UNL     1       8.827   6.089   0.181  1.00  0.00     0.164 HD
BRANCH  32  34
ATOM     34  C   UNL     1       9.541   5.126   1.970  1.00  0.00     0.175 C 
BRANCH  34  35
ATOM     35  C   UNL     1       8.446   5.703   2.880  1.00  0.00     0.070 C 
BRANCH  35  36
ATOM     36  C   UNL     1       8.676   7.158   3.222  1.00  0.00    -0.045 A 
ATOM     37  C   UNL     1       9.875   7.554   3.835  1.00  0.00     0.007 A 
ATOM     38  C   UNL     1       7.696   8.123   2.956  1.00  0.00     0.007 A 
ATOM     39  C   UNL     1      10.091   8.892   4.166  1.00  0.00     0.046 A 
ATOM     40  C   UNL     1       7.911   9.462   3.289  1.00  0.00     0.046 A 
ATOM     41  C   UNL     1       9.108   9.835   3.890  1.00  0.00     0.115 A 
BRANCH  41  42
ATOM     42  O   UNL     1       9.357  11.131   4.233  1.00  0.00    -0.508 OA
ATOM     43  H   UNL     1       9.438  11.180   5.200  1.00  0.00     0.293 HD
ENDBRANCH  41  42
ENDBRANCH  35  36
ENDBRANCH  34  35
BRANCH  34  44
ATOM     44  C   UNL     1       9.259   3.655   1.589  1.00  0.00     0.243 C 
ATOM     45  O   UNL     1       9.117   2.743   2.399  1.00  0.00    -0.273 OA
ATOM     46  N   UNL     1       9.310   3.421   0.231  1.00  0.00    -0.341 N 
ATOM     47  H   UNL     1       9.548   4.187  -0.394  1.00  0.00     0.164 HD
BRANCH  46  48
ATOM     48  C   UNL     1       9.143   2.093  -0.365  1.00  0.00     0.196 C 
BRANCH  48  49
ATOM     49  C   UNL     1       8.473   2.180  -1.746  1.00  0.00     0.072 C 
BRANCH  49  50
ATOM     50  C   UNL     1       7.001   1.840  -1.702  1.00  0.00    -0.045 A 
ATOM     51  C   UNL     1       6.144   2.309  -2.708  1.00  0.00     0.007 A 
ATOM     52  C   UNL     1       6.469   1.076  -0.655  1.00  0.00     0.007 A 
ATOM     53  C   UNL     1       4.781   2.013  -2.671  1.00  0.00     0.046 A 
ATOM     54  C   UNL     1       5.104   0.781  -0.617  1.00  0.00     0.046 A 
ATOM     55  C   UNL     1       4.272   1.251  -1.626  1.00  0.00     0.115 A 
BRANCH  55  56
ATOM     56  O   UNL     1       2.935   0.985  -1.625  1.00  0.00    -0.508 OA
ATOM     57  H   UNL     1       2.733   0.433  -0.853  1.00  0.00     0.293 HD
ENDBRANCH  55  56
ENDBRANCH  49  50
ENDBRANCH  48  49
BRANCH  48  58
ATOM     58  C   UNL     1      10.520   1.430  -0.501  1.00  0.00     0.326 C 
ATOM     59  O   UNL     1      11.508   1.885  -1.053  1.00  0.00    -0.250 OA
BRANCH  58  60
ATOM     60  O   UNL     1      10.593   0.209   0.088  1.00  0.00    -0.480 OA
ATOM     61  H   UNL     1       9.672  -0.124   0.032  1.00  0.00     0.296 HD
ENDBRANCH  58  60
ENDBRANCH  48  58
ENDBRANCH  46  48
ENDBRANCH  34  44
ENDBRANCH  32  34
ENDBRANCH  25  30
ENDBRANCH  23  25
ENDBRANCH   2  23
TORSDOF 28
ENDMDL
MODEL 17
REMARK VINA RESULT:    -5.728      2.640      6.008
REMARK INTER + INTRA:         -19.574
REMARK INTER:                 -13.553
REMARK INTRA:                  -6.021
REMARK UNBOUND:                -5.307
REMARK SMILES CCCCCCC[C@H](N)[C@H](O)C(=O)N[C@H](C)C(=O)N(C)[C@H](CC(C)C)C(=O)N[C@@H](Cc1ccc(O)cc1)C(=O)N[C@@H](Cc1ccc(O)cc1)C(=O)O
REMARK SMILES IDX 18 1 17 2 15 3 16 4 14 5 12 6 13 7 10 9 11 10 8 12 9 13 7 16
REMARK SMILES IDX 6 17 5 18 4 19 3 20 2 21 1 22 19 23 20 24 21 25 22 26 23 27
REMARK SMILES IDX 24 28 25 29 26 30 27 31 28 32 29 34 30 35 31 36 32 37 37 38
REMARK SMILES IDX 33 39 36 40 34 41 35 42 38 44 39 45 40 46 41 48 42 49 43 50
REMARK SMILES IDX 44 51 49 52 45 53 48 54 46 55 47 56 50 58 51 59 52 60
REMARK H PARENT 14 8 11 11 9 14 9 15 28 33 35 43 40 47 47 57 52 61
ROOT
ATOM      1  O   UNL     1      10.230   1.823  -6.016  1.00  0.00    -0.272 OA
ATOM      2  C   UNL     1      10.124   2.019  -4.796  1.00  0.00     0.245 C 
ENDROOT
BRANCH   2   3
ATOM      3  C   UNL     1      10.051   0.793  -3.852  1.00  0.00     0.168 C 
ATOM      4  C   UNL     1      11.426   0.466  -3.281  1.00  0.00     0.041 C 
BRANCH   3   5
ATOM      5  N   UNL     1       9.039   0.882  -2.811  1.00  0.00    -0.342 N 
ATOM      6  C   UNL     1       8.497  -0.242  -2.224  1.00  0.00     0.251 C 
ATOM      7  O   UNL     1       8.788  -1.386  -2.557  1.00  0.00    -0.272 OA
ATOM      8  H   UNL     1       8.692   1.778  -2.477  1.00  0.00     0.164 HD
BRANCH   6   9
ATOM      9  C   UNL     1       7.556   0.093  -1.055  1.00  0.00     0.219 C 
BRANCH   9  10
ATOM     10  O   UNL     1       6.704  -1.003  -0.701  1.00  0.00    -0.382 OA
ATOM     11  H   UNL     1       6.784  -1.051   0.277  1.00  0.00     0.211 HD
ENDBRANCH   9  10
BRANCH   9  12
ATOM     12  C   UNL     1       8.303   0.635   0.191  1.00  0.00     0.089 C 
BRANCH  12  13
ATOM     13  N   UNL     1       9.759   0.480  -0.033  1.00  0.00    -0.325 NA
ATOM     14  H   UNL     1      10.241   0.500   0.868  1.00  0.00     0.119 HD
ATOM     15  H   UNL     1      10.105   1.299  -0.538  1.00  0.00     0.119 HD
ENDBRANCH  12  13
BRANCH  12  16
ATOM     16  C   UNL     1       7.979   2.094   0.594  1.00  0.00     0.022 C 
BRANCH  16  17
ATOM     17  C   UNL     1       9.066   2.940   1.272  1.00  0.00     0.002 C 
BRANCH  17  18
ATOM     18  C   UNL     1       8.544   4.059   2.171  1.00  0.00     0.000 C 
BRANCH  18  19
ATOM     19  C   UNL     1       9.150   5.436   1.870  1.00  0.00    -0.000 C 
BRANCH  19  20
ATOM     20  C   UNL     1      10.267   5.440   0.822  1.00  0.00    -0.000 C 
BRANCH  20  21
ATOM     21  C   UNL     1      10.531   6.828   0.232  1.00  0.00    -0.003 C 
ATOM     22  C   UNL     1       9.390   7.274  -0.667  1.00  0.00     0.004 C 
ENDBRANCH  20  21
ENDBRANCH  19  20
ENDBRANCH  18  19
ENDBRANCH  17  18
ENDBRANCH  16  17
ENDBRANCH  12  16
ENDBRANCH   9  12
ENDBRANCH   6   9
ENDBRANCH   3   5
ENDBRANCH   2   3
BRANCH   2  23
ATOM     23  N   UNL     1      10.195   3.313  -4.290  1.00  0.00    -0.332 N 
ATOM     24  C   UNL     1      11.416   3.949  -3.819  1.00  0.00     0.147 C 
BRANCH  23  25
ATOM     25  C   UNL     1       8.998   4.198  -4.322  1.00  0.00     0.174 C 
BRANCH  25  26
ATOM     26  C   UNL     1       9.357   5.689  -4.523  1.00  0.00     0.038 C 
BRANCH  26  27
ATOM     27  C   UNL     1       8.241   6.611  -5.063  1.00  0.00    -0.015 C 
ATOM     28  C   UNL     1       7.344   5.908  -6.081  1.00  0.00     0.007 C 
ATOM     29  C   UNL     1       7.403   7.257  -3.963  1.00  0.00     0.007 C 
ENDBRANCH  26  27
ENDBRANCH  25  26
BRANCH  25  30
ATOM     30  C   UNL     1       8.109   3.934  -3.085  1.00  0.00     0.243 C 
ATOM     31  O   UNL     1       8.528   4.084  -1.939  1.00  0.00    -0.273 OA
ATOM     32  N   UNL     1       6.830   3.518  -3.353  1.00  0.00    -0.342 N 
ATOM     33  H   UNL     1       6.513   3.554  -4.325  1.00  0.00     0.164 HD
BRANCH  32  34
ATOM     34  C   UNL     1       5.856   3.195  -2.306  1.00  0.00     0.175 C 
BRANCH  34  35
ATOM     35  C   UNL     1       4.917   4.380  -2.032  1.00  0.00     0.070 C 
BRANCH  35  36
ATOM     36  C   UNL     1       5.175   5.033  -0.693  1.00  0.00    -0.045 A 
ATOM     37  C   UNL     1       4.827   4.366   0.492  1.00  0.00     0.007 A 
ATOM     38  C   UNL     1       5.739   6.313  -0.613  1.00  0.00     0.007 A 
ATOM     39  C   UNL     1       5.048   4.967   1.732  1.00  0.00     0.046 A 
ATOM     40  C   UNL     1       5.959   6.915   0.628  1.00  0.00     0.046 A 
ATOM     41  C   UNL     1       5.612   6.235   1.790  1.00  0.00     0.115 A 
BRANCH  41  42
ATOM     42  O   UNL     1       5.809   6.787   3.021  1.00  0.00    -0.508 OA
ATOM     43  H   UNL     1       6.722   7.117   3.065  1.00  0.00     0.293 HD
ENDBRANCH  41  42
ENDBRANCH  35  36
ENDBRANCH  34  35
BRANCH  34  44
ATOM     44  C   UNL     1       5.081   1.933  -2.745  1.00  0.00     0.243 C 
ATOM     45  O   UNL     1       5.498   1.109  -3.555  1.00  0.00    -0.273 OA
ATOM     46  N   UNL     1       3.799   1.874  -2.241  1.00  0.00    -0.341 N 
ATOM     47  H   UNL     1       3.457   2.641  -1.667  1.00  0.00     0.164 HD
BRANCH  46  48
ATOM     48  C   UNL     1       2.851   0.807  -2.572  1.00  0.00     0.196 C 
BRANCH  48  49
ATOM     49  C   UNL     1       2.273   0.157  -1.304  1.00  0.00     0.072 C 
BRANCH  49  50
ATOM     50  C   UNL     1       1.659   1.167  -0.361  1.00  0.00    -0.045 A 
ATOM     51  C   UNL     1       2.436   1.733   0.660  1.00  0.00     0.007 A 
ATOM     52  C   UNL     1       0.313   1.535  -0.477  1.00  0.00     0.007 A 
ATOM     53  C   UNL     1       1.877   2.656   1.544  1.00  0.00     0.046 A 
ATOM     54  C   UNL     1      -0.248   2.458   0.409  1.00  0.00     0.046 A 
ATOM     55  C   UNL     1       0.540   3.012   1.412  1.00  0.00     0.115 A 
BRANCH  55  56
ATOM     56  O   UNL     1       0.031   3.916   2.297  1.00  0.00    -0.508 OA
ATOM     57  H   UNL     1       0.130   3.556   3.193  1.00  0.00     0.293 HD
ENDBRANCH  55  56
ENDBRANCH  49  50
ENDBRANCH  48  49
BRANCH  48  58
ATOM     58  C   UNL     1       1.711   1.396  -3.415  1.00  0.00     0.326 C 
ATOM     59  O   UNL     1       0.713   0.818  -3.814  1.00  0.00    -0.250 OA
BRANCH  58  60
ATOM     60  O   UNL     1       1.878   2.710  -3.707  1.00  0.00    -0.480 OA
ATOM     61  H   UNL     1       1.919   3.135  -2.823  1.00  0.00     0.296 HD
ENDBRANCH  58  60
ENDBRANCH  48  58
ENDBRANCH  46  48
ENDBRANCH  34  44
ENDBRANCH  32  34
ENDBRANCH  25  30
ENDBRANCH  23  25
ENDBRANCH   2  23
TORSDOF 28
ENDMDL
MODEL 18
REMARK VINA RESULT:    -5.724      2.706      5.418
REMARK INTER + INTRA:         -19.564
REMARK INTER:                 -13.680
REMARK INTRA:                  -5.884
REMARK UNBOUND:                -5.307
REMARK SMILES CCCCCCC[C@H](N)[C@H](O)C(=O)N[C@H](C)C(=O)N(C)[C@H](CC(C)C)C(=O)N[C@@H](Cc1ccc(O)cc1)C(=O)N[C@@H](Cc1ccc(O)cc1)C(=O)O
REMARK SMILES IDX 18 1 17 2 15 3 16 4 14 5 12 6 13 7 10 9 11 10 8 12 9 13 7 16
REMARK SMILES IDX 6 17 5 18 4 19 3 20 2 21 1 22 19 23 20 24 21 25 22 26 23 27
REMARK SMILES IDX 24 28 25 29 26 30 27 31 28 32 29 34 30 35 31 36 32 37 37 38
REMARK SMILES IDX 33 39 36 40 34 41 35 42 38 44 39 45 40 46 41 48 42 49 43 50
REMARK SMILES IDX 44 51 49 52 45 53 48 54 46 55 47 56 50 58 51 59 52 60
REMARK H PARENT 14 8 11 11 9 14 9 15 28 33 35 43 40 47 47 57 52 61
ROOT
ATOM      1  O   UNL     1       9.243   3.951  -2.082  1.00  0.00    -0.272 OA
ATOM      2  C   UNL     1      10.408   3.952  -2.507  1.00  0.00     0.245 C 
ENDROOT
BRANCH   2   3
ATOM      3  C   UNL     1      10.944   2.675  -3.201  1.00  0.00     0.168 C 
ATOM      4  C   UNL     1      11.887   1.912  -2.277  1.00  0.00     0.041 C 
BRANCH   3   5
ATOM      5  N   UNL     1       9.919   1.809  -3.764  1.00  0.00    -0.342 N 
ATOM      6  C   UNL     1       9.309   2.092  -4.968  1.00  0.00     0.251 C 
ATOM      7  O   UNL     1       9.546   3.099  -5.626  1.00  0.00    -0.272 OA
ATOM      8  H   UNL     1       9.614   0.962  -3.292  1.00  0.00     0.164 HD
BRANCH   6   9
ATOM      9  C   UNL     1       8.366   0.971  -5.434  1.00  0.00     0.219 C 
BRANCH   9  10
ATOM     10  O   UNL     1       9.068  -0.223  -5.803  1.00  0.00    -0.382 OA
ATOM     11  H   UNL     1       8.362  -0.905  -5.832  1.00  0.00     0.211 HD
ENDBRANCH   9  10
BRANCH   9  12
ATOM     12  C   UNL     1       7.242   0.656  -4.413  1.00  0.00     0.089 C 
BRANCH  12  13
ATOM     13  N   UNL     1       7.801  -0.221  -3.359  1.00  0.00    -0.325 NA
ATOM     14  H   UNL     1       8.384   0.337  -2.732  1.00  0.00     0.119 HD
ATOM     15  H   UNL     1       8.440  -0.892  -3.791  1.00  0.00     0.119 HD
ENDBRANCH  12  13
BRANCH  12  16
ATOM     16  C   UNL     1       6.546   1.881  -3.773  1.00  0.00     0.022 C 
BRANCH  16  17
ATOM     17  C   UNL     1       5.269   1.667  -2.948  1.00  0.00     0.002 C 
BRANCH  17  18
ATOM     18  C   UNL     1       3.976   1.632  -3.759  1.00  0.00     0.000 C 
BRANCH  18  19
ATOM     19  C   UNL     1       2.770   1.079  -2.988  1.00  0.00    -0.000 C 
BRANCH  19  20
ATOM     20  C   UNL     1       2.775   1.360  -1.483  1.00  0.00    -0.000 C 
BRANCH  20  21
ATOM     21  C   UNL     1       2.066   0.276  -0.668  1.00  0.00    -0.003 C 
ATOM     22  C   UNL     1       1.221  -0.623  -1.557  1.00  0.00     0.004 C 
ENDBRANCH  20  21
ENDBRANCH  19  20
ENDBRANCH  18  19
ENDBRANCH  17  18
ENDBRANCH  16  17
ENDBRANCH  12  16
ENDBRANCH   9  12
ENDBRANCH   6   9
ENDBRANCH   3   5
ENDBRANCH   2   3
BRANCH   2  23
ATOM     23  N   UNL     1      11.163   5.119  -2.465  1.00  0.00    -0.332 N 
ATOM     24  C   UNL     1      11.890   5.673  -3.597  1.00  0.00     0.147 C 
BRANCH  23  25
ATOM     25  C   UNL     1      11.166   5.968  -1.242  1.00  0.00     0.174 C 
BRANCH  25  26
ATOM     26  C   UNL     1      12.162   7.148  -1.331  1.00  0.00     0.038 C 
BRANCH  26  27
ATOM     27  C   UNL     1      11.598   8.562  -1.066  1.00  0.00    -0.015 C 
ATOM     28  C   UNL     1      12.583   9.451  -0.307  1.00  0.00     0.007 C 
ATOM     29  C   UNL     1      11.104   9.264  -2.328  1.00  0.00     0.007 C 
ENDBRANCH  26  27
ENDBRANCH  25  26
BRANCH  25  30
ATOM     30  C   UNL     1      11.354   5.089   0.015  1.00  0.00     0.243 C 
ATOM     31  O   UNL     1      12.383   4.444   0.210  1.00  0.00    -0.273 OA
ATOM     32  N   UNL     1      10.298   5.072   0.891  1.00  0.00    -0.342 N 
ATOM     33  H   UNL     1       9.540   5.741   0.731  1.00  0.00     0.164 HD
BRANCH  32  34
ATOM     34  C   UNL     1      10.289   4.275   2.120  1.00  0.00     0.175 C 
BRANCH  34  35
ATOM     35  C   UNL     1      10.405   5.167   3.366  1.00  0.00     0.070 C 
BRANCH  35  36
ATOM     36  C   UNL     1       9.819   6.545   3.154  1.00  0.00    -0.045 A 
ATOM     37  C   UNL     1       8.469   6.787   3.452  1.00  0.00     0.007 A 
ATOM     38  C   UNL     1      10.600   7.588   2.641  1.00  0.00     0.007 A 
ATOM     39  C   UNL     1       7.916   8.051   3.248  1.00  0.00     0.046 A 
ATOM     40  C   UNL     1      10.047   8.854   2.434  1.00  0.00     0.046 A 
ATOM     41  C   UNL     1       8.708   9.074   2.741  1.00  0.00     0.115 A 
BRANCH  41  42
ATOM     42  O   UNL     1       8.129  10.294   2.553  1.00  0.00    -0.508 OA
ATOM     43  H   UNL     1       7.328  10.338   3.102  1.00  0.00     0.293 HD
ENDBRANCH  41  42
ENDBRANCH  35  36
ENDBRANCH  34  35
BRANCH  34  44
ATOM     44  C   UNL     1       8.995   3.430   2.133  1.00  0.00     0.243 C 
ATOM     45  O   UNL     1       8.591   2.795   3.103  1.00  0.00    -0.273 OA
ATOM     46  N   UNL     1       8.385   3.343   0.900  1.00  0.00    -0.341 N 
ATOM     47  H   UNL     1       8.822   3.792   0.099  1.00  0.00     0.164 HD
BRANCH  46  48
ATOM     48  C   UNL     1       7.183   2.543   0.651  1.00  0.00     0.196 C 
BRANCH  48  49
ATOM     49  C   UNL     1       6.151   3.326  -0.177  1.00  0.00     0.072 C 
BRANCH  49  50
ATOM     50  C   UNL     1       5.349   4.297   0.661  1.00  0.00    -0.045 A 
ATOM     51  C   UNL     1       5.873   5.563   0.957  1.00  0.00     0.007 A 
ATOM     52  C   UNL     1       4.092   3.944   1.167  1.00  0.00     0.007 A 
ATOM     53  C   UNL     1       5.149   6.462   1.740  1.00  0.00     0.046 A 
ATOM     54  C   UNL     1       3.366   4.843   1.952  1.00  0.00     0.046 A 
ATOM     55  C   UNL     1       3.901   6.096   2.231  1.00  0.00     0.115 A 
BRANCH  55  56
ATOM     56  O   UNL     1       3.226   7.002   2.994  1.00  0.00    -0.508 OA
ATOM     57  H   UNL     1       3.247   6.702   3.917  1.00  0.00     0.293 HD
ENDBRANCH  55  56
ENDBRANCH  49  50
ENDBRANCH  48  49
BRANCH  48  58
ATOM     58  C   UNL     1       7.582   1.265  -0.100  1.00  0.00     0.326 C 
ATOM     59  O   UNL     1       6.976   0.206  -0.130  1.00  0.00    -0.250 OA
BRANCH  58  60
ATOM     60  O   UNL     1       8.736   1.387  -0.802  1.00  0.00    -0.480 OA
ATOM     61  H   UNL     1       8.618   0.754  -1.543  1.00  0.00     0.296 HD
ENDBRANCH  58  60
ENDBRANCH  48  58
ENDBRANCH  46  48
ENDBRANCH  34  44
ENDBRANCH  32  34
ENDBRANCH  25  30
ENDBRANCH  23  25
ENDBRANCH   2  23
TORSDOF 28
ENDMDL
MODEL 19
REMARK VINA RESULT:    -5.674      4.957     10.894
REMARK INTER + INTRA:         -19.439
REMARK INTER:                 -15.056
REMARK INTRA:                  -4.382
REMARK UNBOUND:                -5.307
REMARK SMILES CCCCCCC[C@H](N)[C@H](O)C(=O)N[C@H](C)C(=O)N(C)[C@H](CC(C)C)C(=O)N[C@@H](Cc1ccc(O)cc1)C(=O)N[C@@H](Cc1ccc(O)cc1)C(=O)O
REMARK SMILES IDX 18 1 17 2 15 3 16 4 14 5 12 6 13 7 10 9 11 10 8 12 9 13 7 16
REMARK SMILES IDX 6 17 5 18 4 19 3 20 2 21 1 22 19 23 20 24 21 25 22 26 23 27
REMARK SMILES IDX 24 28 25 29 26 30 27 31 28 32 29 34 30 35 31 36 32 37 37 38
REMARK SMILES IDX 33 39 36 40 34 41 35 42 38 44 39 45 40 46 41 48 42 49 43 50
REMARK SMILES IDX 44 51 49 52 45 53 48 54 46 55 47 56 50 58 51 59 52 60
REMARK H PARENT 14 8 11 11 9 14 9 15 28 33 35 43 40 47 47 57 52 61
ROOT
ATOM      1  O   UNL     1       9.072  -0.061  -5.904  1.00  0.00    -0.272 OA
ATOM      2  C   UNL     1       9.035   0.852  -5.067  1.00  0.00     0.245 C 
ENDROOT
BRANCH   2   3
ATOM      3  C   UNL     1       9.637   0.595  -3.663  1.00  0.00     0.168 C 
ATOM      4  C   UNL     1      10.926   1.387  -3.472  1.00  0.00     0.041 C 
BRANCH   3   5
ATOM      5  N   UNL     1       8.712   0.790  -2.557  1.00  0.00    -0.342 N 
ATOM      6  C   UNL     1       7.972  -0.250  -2.035  1.00  0.00     0.251 C 
ATOM      7  O   UNL     1       8.002  -1.392  -2.480  1.00  0.00    -0.272 OA
ATOM      8  H   UNL     1       8.576   1.701  -2.126  1.00  0.00     0.164 HD
BRANCH   6   9
ATOM      9  C   UNL     1       7.175   0.157  -0.785  1.00  0.00     0.219 C 
BRANCH   9  10
ATOM     10  O   UNL     1       7.977   0.173   0.402  1.00  0.00    -0.382 OA
ATOM     11  H   UNL     1       8.879  -0.040   0.074  1.00  0.00     0.211 HD
ENDBRANCH   9  10
BRANCH   9  12
ATOM     12  C   UNL     1       6.417   1.500  -0.956  1.00  0.00     0.089 C 
BRANCH  12  13
ATOM     13  N   UNL     1       4.964   1.218  -0.967  1.00  0.00    -0.325 NA
ATOM     14  H   UNL     1       4.793   0.316  -0.519  1.00  0.00     0.119 HD
ATOM     15  H   UNL     1       4.657   1.097  -1.935  1.00  0.00     0.119 HD
ENDBRANCH  12  13
BRANCH  12  16
ATOM     16  C   UNL     1       6.739   2.597   0.087  1.00  0.00     0.022 C 
BRANCH  16  17
ATOM     17  C   UNL     1       5.939   3.907   0.063  1.00  0.00     0.002 C 
BRANCH  17  18
ATOM     18  C   UNL     1       6.005   4.726   1.350  1.00  0.00     0.000 C 
BRANCH  18  19
ATOM     19  C   UNL     1       5.248   6.059   1.282  1.00  0.00    -0.000 C 
BRANCH  19  20
ATOM     20  C   UNL     1       4.086   6.198   2.269  1.00  0.00    -0.000 C 
BRANCH  20  21
ATOM     21  C   UNL     1       4.030   5.061   3.293  1.00  0.00    -0.003 C 
ATOM     22  C   UNL     1       2.777   4.218   3.118  1.00  0.00     0.004 C 
ENDBRANCH  20  21
ENDBRANCH  19  20
ENDBRANCH  18  19
ENDBRANCH  17  18
ENDBRANCH  16  17
ENDBRANCH  12  16
ENDBRANCH   9  12
ENDBRANCH   6   9
ENDBRANCH   3   5
ENDBRANCH   2   3
BRANCH   2  23
ATOM     23  N   UNL     1       8.574   2.113  -5.432  1.00  0.00    -0.332 N 
ATOM     24  C   UNL     1       9.357   3.100  -6.160  1.00  0.00     0.147 C 
BRANCH  23  25
ATOM     25  C   UNL     1       7.153   2.490  -5.197  1.00  0.00     0.174 C 
BRANCH  25  26
ATOM     26  C   UNL     1       6.963   3.372  -3.941  1.00  0.00     0.038 C 
BRANCH  26  27
ATOM     27  C   UNL     1       5.860   4.452  -4.004  1.00  0.00    -0.015 C 
ATOM     28  C   UNL     1       5.625   4.966  -5.424  1.00  0.00     0.007 C 
ATOM     29  C   UNL     1       4.543   4.012  -3.368  1.00  0.00     0.007 C 
ENDBRANCH  26  27
ENDBRANCH  25  26
BRANCH  25  30
ATOM     30  C   UNL     1       6.259   1.229  -5.212  1.00  0.00     0.243 C 
ATOM     31  O   UNL     1       5.730   0.795  -4.189  1.00  0.00    -0.273 OA
ATOM     32  N   UNL     1       6.102   0.626  -6.434  1.00  0.00    -0.342 N 
ATOM     33  H   UNL     1       6.455   1.124  -7.256  1.00  0.00     0.164 HD
BRANCH  32  34
ATOM     34  C   UNL     1       5.313  -0.592  -6.632  1.00  0.00     0.175 C 
BRANCH  34  35
ATOM     35  C   UNL     1       3.818  -0.271  -6.783  1.00  0.00     0.070 C 
BRANCH  35  36
ATOM     36  C   UNL     1       2.946  -1.102  -5.869  1.00  0.00    -0.045 A 
ATOM     37  C   UNL     1       2.806  -2.480  -6.094  1.00  0.00     0.007 A 
ATOM     38  C   UNL     1       2.251  -0.511  -4.806  1.00  0.00     0.007 A 
ATOM     39  C   UNL     1       1.993  -3.253  -5.264  1.00  0.00     0.046 A 
ATOM     40  C   UNL     1       1.435  -1.284  -3.975  1.00  0.00     0.046 A 
ATOM     41  C   UNL     1       1.315  -2.649  -4.212  1.00  0.00     0.115 A 
BRANCH  41  42
ATOM     42  O   UNL     1       0.528  -3.439  -3.426  1.00  0.00    -0.508 OA
ATOM     43  H   UNL     1       0.222  -2.909  -2.671  1.00  0.00     0.293 HD
ENDBRANCH  41  42
ENDBRANCH  35  36
ENDBRANCH  34  35
BRANCH  34  44
ATOM     44  C   UNL     1       5.873  -1.330  -7.869  1.00  0.00     0.243 C 
ATOM     45  O   UNL     1       5.215  -1.607  -8.868  1.00  0.00    -0.273 OA
ATOM     46  N   UNL     1       7.167  -1.775  -7.702  1.00  0.00    -0.341 N 
ATOM     47  H   UNL     1       7.631  -1.623  -6.810  1.00  0.00     0.164 HD
BRANCH  46  48
ATOM     48  C   UNL     1       7.886  -2.558  -8.710  1.00  0.00     0.196 C 
BRANCH  48  49
ATOM     49  C   UNL     1       9.397  -2.277  -8.664  1.00  0.00     0.072 C 
BRANCH  49  50
ATOM     50  C   UNL     1       9.930  -1.742  -9.974  1.00  0.00    -0.045 A 
ATOM     51  C   UNL     1       9.934  -0.360 -10.214  1.00  0.00     0.007 A 
ATOM     52  C   UNL     1      10.403  -2.608 -10.968  1.00  0.00     0.007 A 
ATOM     53  C   UNL     1      10.410   0.145 -11.424  1.00  0.00     0.046 A 
ATOM     54  C   UNL     1      10.878  -2.102 -12.180  1.00  0.00     0.046 A 
ATOM     55  C   UNL     1      10.879  -0.729 -12.397  1.00  0.00     0.115 A 
BRANCH  55  56
ATOM     56  O   UNL     1      11.334  -0.196 -13.567  1.00  0.00    -0.508 OA
ATOM     57  H   UNL     1      10.571   0.117 -14.078  1.00  0.00     0.293 HD
ENDBRANCH  55  56
ENDBRANCH  49  50
ENDBRANCH  48  49
BRANCH  48  58
ATOM     58  C   UNL     1       7.632  -4.051  -8.458  1.00  0.00     0.326 C 
ATOM     59  O   UNL     1       7.884  -4.980  -9.208  1.00  0.00    -0.250 OA
BRANCH  58  60
ATOM     60  O   UNL     1       7.076  -4.308  -7.247  1.00  0.00    -0.480 OA
ATOM     61  H   UNL     1       6.672  -3.449  -6.997  1.00  0.00     0.296 HD
ENDBRANCH  58  60
ENDBRANCH  48  58
ENDBRANCH  46  48
ENDBRANCH  34  44
ENDBRANCH  32  34
ENDBRANCH  25  30
ENDBRANCH  23  25
ENDBRANCH   2  23
TORSDOF 28
ENDMDL
MODEL 20
REMARK VINA RESULT:    -5.631      2.842      7.478
REMARK INTER + INTRA:         -19.332
REMARK INTER:                 -14.008
REMARK INTRA:                  -5.324
REMARK UNBOUND:                -5.307
REMARK SMILES CCCCCCC[C@H](N)[C@H](O)C(=O)N[C@H](C)C(=O)N(C)[C@H](CC(C)C)C(=O)N[C@@H](Cc1ccc(O)cc1)C(=O)N[C@@H](Cc1ccc(O)cc1)C(=O)O
REMARK SMILES IDX 18 1 17 2 15 3 16 4 14 5 12 6 13 7 10 9 11 10 8 12 9 13 7 16
REMARK SMILES IDX 6 17 5 18 4 19 3 20 2 21 1 22 19 23 20 24 21 25 22 26 23 27
REMARK SMILES IDX 24 28 25 29 26 30 27 31 28 32 29 34 30 35 31 36 32 37 37 38
REMARK SMILES IDX 33 39 36 40 34 41 35 42 38 44 39 45 40 46 41 48 42 49 43 50
REMARK SMILES IDX 44 51 49 52 45 53 48 54 46 55 47 56 50 58 51 59 52 60
REMARK H PARENT 14 8 11 11 9 14 9 15 28 33 35 43 40 47 47 57 52 61
ROOT
ATOM      1  O   UNL     1       8.373  -0.949  -2.961  1.00  0.00    -0.272 OA
ATOM      2  C   UNL     1       8.332   0.090  -2.285  1.00  0.00     0.245 C 
ENDROOT
BRANCH   2   3
ATOM      3  C   UNL     1       7.126   0.311  -1.338  1.00  0.00     0.168 C 
ATOM      4  C   UNL     1       7.466  -0.124   0.083  1.00  0.00     0.041 C 
BRANCH   3   5
ATOM      5  N   UNL     1       6.558   1.649  -1.375  1.00  0.00    -0.342 N 
ATOM      6  C   UNL     1       5.516   1.976  -2.217  1.00  0.00     0.251 C 
ATOM      7  O   UNL     1       5.022   1.189  -3.018  1.00  0.00    -0.272 OA
ATOM      8  H   UNL     1       6.908   2.397  -0.780  1.00  0.00     0.164 HD
BRANCH   6   9
ATOM      9  C   UNL     1       4.986   3.399  -1.983  1.00  0.00     0.219 C 
BRANCH   9  10
ATOM     10  O   UNL     1       4.176   3.872  -3.066  1.00  0.00    -0.382 OA
ATOM     11  H   UNL     1       3.509   4.442  -2.624  1.00  0.00     0.211 HD
ENDBRANCH   9  10
BRANCH   9  12
ATOM     12  C   UNL     1       4.244   3.558  -0.630  1.00  0.00     0.089 C 
BRANCH  12  13
ATOM     13  N   UNL     1       3.649   2.252  -0.267  1.00  0.00    -0.325 NA
ATOM     14  H   UNL     1       4.398   1.578  -0.097  1.00  0.00     0.119 HD
ATOM     15  H   UNL     1       3.138   1.885  -1.073  1.00  0.00     0.119 HD
ENDBRANCH  12  13
BRANCH  12  16
ATOM     16  C   UNL     1       5.089   4.103   0.546  1.00  0.00     0.022 C 
BRANCH  16  17
ATOM     17  C   UNL     1       4.643   5.392   1.251  1.00  0.00     0.002 C 
BRANCH  17  18
ATOM     18  C   UNL     1       4.771   5.371   2.773  1.00  0.00     0.000 C 
BRANCH  18  19
ATOM     19  C   UNL     1       3.538   4.811   3.495  1.00  0.00    -0.000 C 
BRANCH  19  20
ATOM     20  C   UNL     1       2.215   5.503   3.155  1.00  0.00    -0.000 C 
BRANCH  20  21
ATOM     21  C   UNL     1       1.195   4.561   2.509  1.00  0.00    -0.003 C 
ATOM     22  C   UNL     1       1.660   3.115   2.569  1.00  0.00     0.004 C 
ENDBRANCH  20  21
ENDBRANCH  19  20
ENDBRANCH  18  19
ENDBRANCH  17  18
ENDBRANCH  16  17
ENDBRANCH  12  16
ENDBRANCH   9  12
ENDBRANCH   6   9
ENDBRANCH   3   5
ENDBRANCH   2   3
BRANCH   2  23
ATOM     23  N   UNL     1       9.410   0.968  -2.294  1.00  0.00    -0.332 N 
ATOM     24  C   UNL     1      10.741   0.647  -1.801  1.00  0.00     0.147 C 
BRANCH  23  25
ATOM     25  C   UNL     1       9.289   2.299  -2.950  1.00  0.00     0.174 C 
BRANCH  25  26
ATOM     26  C   UNL     1      10.250   2.467  -4.151  1.00  0.00     0.038 C 
BRANCH  26  27
ATOM     27  C   UNL     1       9.739   3.306  -5.344  1.00  0.00    -0.015 C 
ATOM     28  C   UNL     1      10.418   4.672  -5.431  1.00  0.00     0.007 C 
ATOM     29  C   UNL     1       9.828   2.576  -6.681  1.00  0.00     0.007 C 
ENDBRANCH  26  27
ENDBRANCH  25  26
BRANCH  25  30
ATOM     30  C   UNL     1       9.408   3.424  -1.897  1.00  0.00     0.243 C 
ATOM     31  O   UNL     1       8.520   3.640  -1.074  1.00  0.00    -0.273 OA
ATOM     32  N   UNL     1      10.560   4.165  -1.948  1.00  0.00    -0.342 N 
ATOM     33  H   UNL     1      11.308   3.836  -2.564  1.00  0.00     0.164 HD
BRANCH  32  34
ATOM     34  C   UNL     1      10.832   5.288  -1.046  1.00  0.00     0.175 C 
BRANCH  34  35
ATOM     35  C   UNL     1       9.776   6.394  -1.197  1.00  0.00     0.070 C 
BRANCH  35  36
ATOM     36  C   UNL     1      10.353   7.781  -1.027  1.00  0.00    -0.045 A 
ATOM     37  C   UNL     1      11.050   8.386  -2.084  1.00  0.00     0.007 A 
ATOM     38  C   UNL     1      10.223   8.470   0.186  1.00  0.00     0.007 A 
ATOM     39  C   UNL     1      11.598   9.660  -1.931  1.00  0.00     0.046 A 
ATOM     40  C   UNL     1      10.772   9.745   0.340  1.00  0.00     0.046 A 
ATOM     41  C   UNL     1      11.455  10.329  -0.722  1.00  0.00     0.115 A 
BRANCH  41  42
ATOM     42  O   UNL     1      12.008  11.571  -0.614  1.00  0.00    -0.508 OA
ATOM     43  H   UNL     1      11.802  12.068  -1.423  1.00  0.00     0.293 HD
ENDBRANCH  41  42
ENDBRANCH  35  36
ENDBRANCH  34  35
BRANCH  34  44
ATOM     44  C   UNL     1      10.891   4.740   0.398  1.00  0.00     0.243 C 
ATOM     45  O   UNL     1      11.724   3.932   0.799  1.00  0.00    -0.273 OA
ATOM     46  N   UNL     1       9.830   5.142   1.181  1.00  0.00    -0.341 N 
ATOM     47  H   UNL     1       9.102   5.719   0.768  1.00  0.00     0.164 HD
BRANCH  46  48
ATOM     48  C   UNL     1       9.635   4.697   2.563  1.00  0.00     0.196 C 
BRANCH  48  49
ATOM     49  C   UNL     1       8.444   5.416   3.220  1.00  0.00     0.072 C 
BRANCH  49  50
ATOM     50  C   UNL     1       8.663   6.906   3.347  1.00  0.00    -0.045 A 
ATOM     51  C   UNL     1       7.649   7.797   2.965  1.00  0.00     0.007 A 
ATOM     52  C   UNL     1       9.877   7.419   3.822  1.00  0.00     0.007 A 
ATOM     53  C   UNL     1       7.844   9.174   3.065  1.00  0.00     0.046 A 
ATOM     54  C   UNL     1      10.073   8.798   3.921  1.00  0.00     0.046 A 
ATOM     55  C   UNL     1       9.054   9.665   3.543  1.00  0.00     0.115 A 
BRANCH  55  56
ATOM     56  O   UNL     1       9.205  11.017   3.623  1.00  0.00    -0.508 OA
ATOM     57  H   UNL     1       9.843  11.212   4.328  1.00  0.00     0.293 HD
ENDBRANCH  55  56
ENDBRANCH  49  50
ENDBRANCH  48  49
BRANCH  48  58
ATOM     58  C   UNL     1       9.388   3.182   2.568  1.00  0.00     0.326 C 
ATOM     59  O   UNL     1       8.454   2.583   2.058  1.00  0.00    -0.250 OA
BRANCH  58  60
ATOM     60  O   UNL     1      10.352   2.478   3.214  1.00  0.00    -0.480 OA
ATOM     61  H   UNL     1      11.165   2.691   2.707  1.00  0.00     0.296 HD
ENDBRANCH  58  60
ENDBRANCH  48  58
ENDBRANCH  46  48
ENDBRANCH  34  44
ENDBRANCH  32  34
ENDBRANCH  25  30
ENDBRANCH  23  25
ENDBRANCH   2  23
TORSDOF 28
ENDMDL
MODEL 21
REMARK VINA RESULT:    -5.602      7.493     13.557
REMARK INTER + INTRA:         -19.261
REMARK INTER:                 -12.658
REMARK INTRA:                  -6.603
REMARK UNBOUND:                -5.307
REMARK SMILES CCCCCCC[C@H](N)[C@H](O)C(=O)N[C@H](C)C(=O)N(C)[C@H](CC(C)C)C(=O)N[C@@H](Cc1ccc(O)cc1)C(=O)N[C@@H](Cc1ccc(O)cc1)C(=O)O
REMARK SMILES IDX 18 1 17 2 15 3 16 4 14 5 12 6 13 7 10 9 11 10 8 12 9 13 7 16
REMARK SMILES IDX 6 17 5 18 4 19 3 20 2 21 1 22 19 23 20 24 21 25 22 26 23 27
REMARK SMILES IDX 24 28 25 29 26 30 27 31 28 32 29 34 30 35 31 36 32 37 37 38
REMARK SMILES IDX 33 39 36 40 34 41 35 42 38 44 39 45 40 46 41 48 42 49 43 50
REMARK SMILES IDX 44 51 49 52 45 53 48 54 46 55 47 56 50 58 51 59 52 60
REMARK H PARENT 14 8 11 11 9 14 9 15 28 33 35 43 40 47 47 57 52 61
ROOT
ATOM      1  O   UNL     1      -2.375   5.550   7.243  1.00  0.00    -0.272 OA
ATOM      2  C   UNL     1      -3.547   5.440   6.855  1.00  0.00     0.245 C 
ENDROOT
BRANCH   2   3
ATOM      3  C   UNL     1      -4.546   6.578   7.184  1.00  0.00     0.168 C 
ATOM      4  C   UNL     1      -4.836   6.629   8.680  1.00  0.00     0.041 C 
BRANCH   3   5
ATOM      5  N   UNL     1      -4.179   7.883   6.658  1.00  0.00    -0.342 N 
ATOM      6  C   UNL     1      -5.084   8.678   5.986  1.00  0.00     0.251 C 
ATOM      7  O   UNL     1      -6.237   8.336   5.746  1.00  0.00    -0.272 OA
ATOM      8  H   UNL     1      -3.240   8.260   6.765  1.00  0.00     0.164 HD
BRANCH   6   9
ATOM      9  C   UNL     1      -4.519  10.067   5.649  1.00  0.00     0.219 C 
BRANCH   9  10
ATOM     10  O   UNL     1      -3.551  10.517   6.604  1.00  0.00    -0.382 OA
ATOM     11  H   UNL     1      -3.668  11.492   6.610  1.00  0.00     0.211 HD
ENDBRANCH   9  10
BRANCH   9  12
ATOM     12  C   UNL     1      -3.956  10.162   4.207  1.00  0.00     0.089 C 
BRANCH  12  13
ATOM     13  N   UNL     1      -2.974   9.070   4.016  1.00  0.00    -0.325 NA
ATOM     14  H   UNL     1      -3.464   8.224   3.720  1.00  0.00     0.119 HD
ATOM     15  H   UNL     1      -2.560   8.835   4.922  1.00  0.00     0.119 HD
ENDBRANCH  12  13
BRANCH  12  16
ATOM     16  C   UNL     1      -5.002  10.140   3.067  1.00  0.00     0.022 C 
BRANCH  16  17
ATOM     17  C   UNL     1      -6.092  11.220   3.033  1.00  0.00     0.002 C 
BRANCH  17  18
ATOM     18  C   UNL     1      -7.368  10.825   2.293  1.00  0.00     0.000 C 
BRANCH  18  19
ATOM     19  C   UNL     1      -7.344  11.143   0.792  1.00  0.00    -0.000 C 
BRANCH  19  20
ATOM     20  C   UNL     1      -8.659  10.882   0.051  1.00  0.00    -0.000 C 
BRANCH  20  21
ATOM     21  C   UNL     1      -8.668  11.447  -1.371  1.00  0.00    -0.003 C 
ATOM     22  C   UNL     1      -7.739  12.644  -1.498  1.00  0.00     0.004 C 
ENDBRANCH  20  21
ENDBRANCH  19  20
ENDBRANCH  18  19
ENDBRANCH  17  18
ENDBRANCH  16  17
ENDBRANCH  12  16
ENDBRANCH   9  12
ENDBRANCH   6   9
ENDBRANCH   3   5
ENDBRANCH   2   3
BRANCH   2  23
ATOM     23  N   UNL     1      -3.914   4.374   6.040  1.00  0.00    -0.332 N 
ATOM     24  C   UNL     1      -3.643   2.976   6.337  1.00  0.00     0.147 C 
BRANCH  23  25
ATOM     25  C   UNL     1      -4.748   4.608   4.829  1.00  0.00     0.174 C 
BRANCH  25  26
ATOM     26  C   UNL     1      -5.401   3.313   4.289  1.00  0.00     0.038 C 
BRANCH  26  27
ATOM     27  C   UNL     1      -6.748   3.466   3.548  1.00  0.00    -0.015 C 
ATOM     28  C   UNL     1      -7.609   4.589   4.124  1.00  0.00     0.007 C 
ATOM     29  C   UNL     1      -6.595   3.627   2.038  1.00  0.00     0.007 C 
ENDBRANCH  26  27
ENDBRANCH  25  26
BRANCH  25  30
ATOM     30  C   UNL     1      -3.937   5.384   3.766  1.00  0.00     0.243 C 
ATOM     31  O   UNL     1      -4.146   6.574   3.531  1.00  0.00    -0.273 OA
ATOM     32  N   UNL     1      -2.981   4.660   3.103  1.00  0.00    -0.342 N 
ATOM     33  H   UNL     1      -2.771   3.721   3.451  1.00  0.00     0.164 HD
BRANCH  32  34
ATOM     34  C   UNL     1      -2.137   5.224   2.046  1.00  0.00     0.175 C 
BRANCH  34  35
ATOM     35  C   UNL     1      -0.896   4.353   1.796  1.00  0.00     0.070 C 
BRANCH  35  36
ATOM     36  C   UNL     1       0.374   4.980   2.324  1.00  0.00    -0.045 A 
ATOM     37  C   UNL     1       1.568   4.242   2.337  1.00  0.00     0.007 A 
ATOM     38  C   UNL     1       0.376   6.288   2.826  1.00  0.00     0.007 A 
ATOM     39  C   UNL     1       2.742   4.807   2.835  1.00  0.00     0.046 A 
ATOM     40  C   UNL     1       1.551   6.854   3.326  1.00  0.00     0.046 A 
ATOM     41  C   UNL     1       2.725   6.108   3.324  1.00  0.00     0.115 A 
BRANCH  41  42
ATOM     42  O   UNL     1       3.893   6.622   3.805  1.00  0.00    -0.508 OA
ATOM     43  H   UNL     1       3.729   7.536   4.090  1.00  0.00     0.293 HD
ENDBRANCH  41  42
ENDBRANCH  35  36
ENDBRANCH  34  35
BRANCH  34  44
ATOM     44  C   UNL     1      -3.001   5.376   0.774  1.00  0.00     0.243 C 
ATOM     45  O   UNL     1      -3.318   4.447   0.035  1.00  0.00    -0.273 OA
ATOM     46  N   UNL     1      -3.287   6.687   0.458  1.00  0.00    -0.341 N 
ATOM     47  H   UNL     1      -2.903   7.430   1.037  1.00  0.00     0.164 HD
BRANCH  46  48
ATOM     48  C   UNL     1      -4.033   7.084  -0.739  1.00  0.00     0.196 C 
BRANCH  48  49
ATOM     49  C   UNL     1      -4.975   8.264  -0.446  1.00  0.00     0.072 C 
BRANCH  49  50
ATOM     50  C   UNL     1      -6.398   7.822  -0.189  1.00  0.00    -0.045 A 
ATOM     51  C   UNL     1      -6.788   7.438   1.102  1.00  0.00     0.007 A 
ATOM     52  C   UNL     1      -7.335   7.770  -1.228  1.00  0.00     0.007 A 
ATOM     53  C   UNL     1      -8.095   7.016   1.349  1.00  0.00     0.046 A 
ATOM     54  C   UNL     1      -8.643   7.347  -0.982  1.00  0.00     0.046 A 
ATOM     55  C   UNL     1      -9.012   6.974   0.306  1.00  0.00     0.115 A 
BRANCH  55  56
ATOM     56  O   UNL     1     -10.279   6.554   0.588  1.00  0.00    -0.508 OA
ATOM     57  H   UNL     1     -10.381   6.518   1.552  1.00  0.00     0.293 HD
ENDBRANCH  55  56
ENDBRANCH  49  50
ENDBRANCH  48  49
BRANCH  48  58
ATOM     58  C   UNL     1      -3.039   7.479  -1.839  1.00  0.00     0.326 C 
ATOM     59  O   UNL     1      -3.027   7.096  -2.997  1.00  0.00    -0.250 OA
BRANCH  58  60
ATOM     60  O   UNL     1      -2.099   8.366  -1.426  1.00  0.00    -0.480 OA
ATOM     61  H   UNL     1      -2.253   8.424  -0.458  1.00  0.00     0.296 HD
ENDBRANCH  58  60
ENDBRANCH  48  58
ENDBRANCH  46  48
ENDBRANCH  34  44
ENDBRANCH  32  34
ENDBRANCH  25  30
ENDBRANCH  23  25
ENDBRANCH   2  23
TORSDOF 28
ENDMDL
MODEL 22
REMARK VINA RESULT:    -5.599      3.286      7.343
REMARK INTER + INTRA:         -19.253
REMARK INTER:                 -14.477
REMARK INTRA:                  -4.776
REMARK UNBOUND:                -5.307
REMARK SMILES CCCCCCC[C@H](N)[C@H](O)C(=O)N[C@H](C)C(=O)N(C)[C@H](CC(C)C)C(=O)N[C@@H](Cc1ccc(O)cc1)C(=O)N[C@@H](Cc1ccc(O)cc1)C(=O)O
REMARK SMILES IDX 18 1 17 2 15 3 16 4 14 5 12 6 13 7 10 9 11 10 8 12 9 13 7 16
REMARK SMILES IDX 6 17 5 18 4 19 3 20 2 21 1 22 19 23 20 24 21 25 22 26 23 27
REMARK SMILES IDX 24 28 25 29 26 30 27 31 28 32 29 34 30 35 31 36 32 37 37 38
REMARK SMILES IDX 33 39 36 40 34 41 35 42 38 44 39 45 40 46 41 48 42 49 43 50
REMARK SMILES IDX 44 51 49 52 45 53 48 54 46 55 47 56 50 58 51 59 52 60
REMARK H PARENT 14 8 11 11 9 14 9 15 28 33 35 43 40 47 47 57 52 61
ROOT
ATOM      1  O   UNL     1       7.500   0.008   0.428  1.00  0.00    -0.272 OA
ATOM      2  C   UNL     1       7.851   0.733  -0.515  1.00  0.00     0.245 C 
ENDROOT
BRANCH   2   3
ATOM      3  C   UNL     1       6.879   0.922  -1.706  1.00  0.00     0.168 C 
ATOM      4  C   UNL     1       5.619   1.660  -1.265  1.00  0.00     0.041 C 
BRANCH   3   5
ATOM      5  N   UNL     1       7.473   1.523  -2.890  1.00  0.00    -0.342 N 
ATOM      6  C   UNL     1       7.145   1.104  -4.162  1.00  0.00     0.251 C 
ATOM      7  O   UNL     1       6.373   0.179  -4.391  1.00  0.00    -0.272 OA
ATOM      8  H   UNL     1       8.154   2.276  -2.825  1.00  0.00     0.164 HD
BRANCH   6   9
ATOM      9  C   UNL     1       7.783   1.973  -5.257  1.00  0.00     0.219 C 
BRANCH   9  10
ATOM     10  O   UNL     1       8.321   3.199  -4.747  1.00  0.00    -0.382 OA
ATOM     11  H   UNL     1       9.268   3.162  -5.007  1.00  0.00     0.211 HD
ENDBRANCH   9  10
BRANCH   9  12
ATOM     12  C   UNL     1       8.843   1.214  -6.098  1.00  0.00     0.089 C 
BRANCH  12  13
ATOM     13  N   UNL     1       9.512   0.225  -5.222  1.00  0.00    -0.325 NA
ATOM     14  H   UNL     1      10.063   0.718  -4.517  1.00  0.00     0.119 HD
ATOM     15  H   UNL     1      10.194  -0.299  -5.775  1.00  0.00     0.119 HD
ENDBRANCH  12  13
BRANCH  12  16
ATOM     16  C   UNL     1       8.323   0.522  -7.381  1.00  0.00     0.022 C 
BRANCH  16  17
ATOM     17  C   UNL     1       6.906   0.839  -7.878  1.00  0.00     0.002 C 
BRANCH  17  18
ATOM     18  C   UNL     1       6.201  -0.312  -8.593  1.00  0.00     0.000 C 
BRANCH  18  19
ATOM     19  C   UNL     1       7.004  -1.619  -8.614  1.00  0.00    -0.000 C 
BRANCH  19  20
ATOM     20  C   UNL     1       7.442  -2.091 -10.003  1.00  0.00    -0.000 C 
BRANCH  20  21
ATOM     21  C   UNL     1       7.453  -3.616 -10.142  1.00  0.00    -0.003 C 
ATOM     22  C   UNL     1       8.103  -4.049 -11.447  1.00  0.00     0.004 C 
ENDBRANCH  20  21
ENDBRANCH  19  20
ENDBRANCH  18  19
ENDBRANCH  17  18
ENDBRANCH  16  17
ENDBRANCH  12  16
ENDBRANCH   9  12
ENDBRANCH   6   9
ENDBRANCH   3   5
ENDBRANCH   2   3
BRANCH   2  23
ATOM     23  N   UNL     1       9.039   1.451  -0.435  1.00  0.00    -0.332 N 
ATOM     24  C   UNL     1      10.316   0.997  -0.965  1.00  0.00     0.147 C 
BRANCH  23  25
ATOM     25  C   UNL     1       9.044   2.837   0.109  1.00  0.00     0.174 C 
BRANCH  25  26
ATOM     26  C   UNL     1       8.224   2.974   1.414  1.00  0.00     0.038 C 
BRANCH  26  27
ATOM     27  C   UNL     1       8.860   3.797   2.557  1.00  0.00    -0.015 C 
ATOM     28  C   UNL     1      10.336   4.105   2.304  1.00  0.00     0.007 C 
ATOM     29  C   UNL     1       8.093   5.076   2.884  1.00  0.00     0.007 C 
ENDBRANCH  26  27
ENDBRANCH  25  26
BRANCH  25  30
ATOM     30  C   UNL     1       8.633   3.842  -0.991  1.00  0.00     0.243 C 
ATOM     31  O   UNL     1       9.221   3.901  -2.070  1.00  0.00    -0.273 OA
ATOM     32  N   UNL     1       7.579   4.663  -0.682  1.00  0.00    -0.342 N 
ATOM     33  H   UNL     1       7.055   4.459   0.173  1.00  0.00     0.164 HD
BRANCH  32  34
ATOM     34  C   UNL     1       7.071   5.693  -1.591  1.00  0.00     0.175 C 
BRANCH  34  35
ATOM     35  C   UNL     1       5.573   5.950  -1.364  1.00  0.00     0.070 C 
BRANCH  35  36
ATOM     36  C   UNL     1       5.168   5.804   0.085  1.00  0.00    -0.045 A 
ATOM     37  C   UNL     1       4.560   4.619   0.528  1.00  0.00     0.007 A 
ATOM     38  C   UNL     1       5.370   6.848   0.997  1.00  0.00     0.007 A 
ATOM     39  C   UNL     1       4.171   4.480   1.860  1.00  0.00     0.046 A 
ATOM     40  C   UNL     1       4.979   6.710   2.331  1.00  0.00     0.046 A 
ATOM     41  C   UNL     1       4.383   5.525   2.751  1.00  0.00     0.115 A 
BRANCH  41  42
ATOM     42  O   UNL     1       3.985   5.350   4.043  1.00  0.00    -0.508 OA
ATOM     43  H   UNL     1       3.695   4.429   4.150  1.00  0.00     0.293 HD
ENDBRANCH  41  42
ENDBRANCH  35  36
ENDBRANCH  34  35
BRANCH  34  44
ATOM     44  C   UNL     1       7.914   6.972  -1.385  1.00  0.00     0.243 C 
ATOM     45  O   UNL     1       7.738   8.024  -1.994  1.00  0.00    -0.273 OA
ATOM     46  N   UNL     1       8.985   6.792  -0.536  1.00  0.00    -0.341 N 
ATOM     47  H   UNL     1       9.157   5.868  -0.147  1.00  0.00     0.164 HD
BRANCH  46  48
ATOM     48  C   UNL     1       9.964   7.840  -0.241  1.00  0.00     0.196 C 
BRANCH  48  49
ATOM     49  C   UNL     1      10.423   7.781   1.226  1.00  0.00     0.072 C 
BRANCH  49  50
ATOM     50  C   UNL     1      10.044   9.020   2.005  1.00  0.00    -0.045 A 
ATOM     51  C   UNL     1       9.952  10.257   1.349  1.00  0.00     0.007 A 
ATOM     52  C   UNL     1       9.803   8.960   3.383  1.00  0.00     0.007 A 
ATOM     53  C   UNL     1       9.616  11.409   2.059  1.00  0.00     0.046 A 
ATOM     54  C   UNL     1       9.469  10.114   4.095  1.00  0.00     0.046 A 
ATOM     55  C   UNL     1       9.377  11.330   3.426  1.00  0.00     0.115 A 
BRANCH  55  56
ATOM     56  O   UNL     1       9.054  12.480   4.084  1.00  0.00    -0.508 OA
ATOM     57  H   UNL     1       9.806  13.089   4.022  1.00  0.00     0.293 HD
ENDBRANCH  55  56
ENDBRANCH  49  50
ENDBRANCH  48  49
BRANCH  48  58
ATOM     58  C   UNL     1      11.176   7.667  -1.167  1.00  0.00     0.326 C 
ATOM     59  O   UNL     1      11.474   6.679  -1.818  1.00  0.00    -0.250 OA
BRANCH  58  60
ATOM     60  O   UNL     1      11.962   8.771  -1.242  1.00  0.00    -0.480 OA
ATOM     61  H   UNL     1      11.588   9.362  -0.553  1.00  0.00     0.296 HD
ENDBRANCH  58  60
ENDBRANCH  48  58
ENDBRANCH  46  48
ENDBRANCH  34  44
ENDBRANCH  32  34
ENDBRANCH  25  30
ENDBRANCH  23  25
ENDBRANCH   2  23
TORSDOF 28
ENDMDL
MODEL 23
REMARK VINA RESULT:    -5.585      2.706      5.829
REMARK INTER + INTRA:         -19.218
REMARK INTER:                 -12.955
REMARK INTRA:                  -6.263
REMARK UNBOUND:                -5.307
REMARK SMILES CCCCCCC[C@H](N)[C@H](O)C(=O)N[C@H](C)C(=O)N(C)[C@H](CC(C)C)C(=O)N[C@@H](Cc1ccc(O)cc1)C(=O)N[C@@H](Cc1ccc(O)cc1)C(=O)O
REMARK SMILES IDX 18 1 17 2 15 3 16 4 14 5 12 6 13 7 10 9 11 10 8 12 9 13 7 16
REMARK SMILES IDX 6 17 5 18 4 19 3 20 2 21 1 22 19 23 20 24 21 25 22 26 23 27
REMARK SMILES IDX 24 28 25 29 26 30 27 31 28 32 29 34 30 35 31 36 32 37 37 38
REMARK SMILES IDX 33 39 36 40 34 41 35 42 38 44 39 45 40 46 41 48 42 49 43 50
REMARK SMILES IDX 44 51 49 52 45 53 48 54 46 55 47 56 50 58 51 59 52 60
REMARK H PARENT 14 8 11 11 9 14 9 15 28 33 35 43 40 47 47 57 52 61
ROOT
ATOM      1  O   UNL     1       9.085   1.655  -0.987  1.00  0.00    -0.272 OA
ATOM      2  C   UNL     1       9.878   1.383  -1.901  1.00  0.00     0.245 C 
ENDROOT
BRANCH   2   3
ATOM      3  C   UNL     1       9.425   0.397  -3.007  1.00  0.00     0.168 C 
ATOM      4  C   UNL     1       9.399  -1.034  -2.479  1.00  0.00     0.041 C 
BRANCH   3   5
ATOM      5  N   UNL     1       8.180   0.752  -3.670  1.00  0.00    -0.342 N 
ATOM      6  C   UNL     1       7.997   0.565  -5.023  1.00  0.00     0.251 C 
ATOM      7  O   UNL     1       8.868   0.131  -5.770  1.00  0.00    -0.272 OA
ATOM      8  H   UNL     1       7.396   1.154  -3.160  1.00  0.00     0.164 HD
BRANCH   6   9
ATOM      9  C   UNL     1       6.562   0.876  -5.478  1.00  0.00     0.219 C 
BRANCH   9  10
ATOM     10  O   UNL     1       5.608   0.763  -4.414  1.00  0.00    -0.382 OA
ATOM     11  H   UNL     1       6.162   0.794  -3.603  1.00  0.00     0.211 HD
ENDBRANCH   9  10
BRANCH   9  12
ATOM     12  C   UNL     1       6.432   2.248  -6.189  1.00  0.00     0.089 C 
BRANCH  12  13
ATOM     13  N   UNL     1       6.386   2.015  -7.651  1.00  0.00    -0.325 NA
ATOM     14  H   UNL     1       6.576   1.029  -7.839  1.00  0.00     0.119 HD
ATOM     15  H   UNL     1       7.155   2.524  -8.092  1.00  0.00     0.119 HD
ENDBRANCH  12  13
BRANCH  12  16
ATOM     16  C   UNL     1       5.236   3.128  -5.754  1.00  0.00     0.022 C 
BRANCH  16  17
ATOM     17  C   UNL     1       5.455   4.216  -4.694  1.00  0.00     0.002 C 
BRANCH  17  18
ATOM     18  C   UNL     1       6.916   4.571  -4.428  1.00  0.00     0.000 C 
BRANCH  18  19
ATOM     19  C   UNL     1       7.110   5.674  -3.378  1.00  0.00    -0.000 C 
BRANCH  19  20
ATOM     20  C   UNL     1       5.875   5.987  -2.529  1.00  0.00    -0.000 C 
BRANCH  20  21
ATOM     21  C   UNL     1       5.768   7.467  -2.151  1.00  0.00    -0.003 C 
ATOM     22  C   UNL     1       6.957   8.260  -2.669  1.00  0.00     0.004 C 
ENDBRANCH  20  21
ENDBRANCH  19  20
ENDBRANCH  18  19
ENDBRANCH  17  18
ENDBRANCH  16  17
ENDBRANCH  12  16
ENDBRANCH   9  12
ENDBRANCH   6   9
ENDBRANCH   3   5
ENDBRANCH   2   3
BRANCH   2  23
ATOM     23  N   UNL     1      11.096   2.049  -1.986  1.00  0.00    -0.332 N 
ATOM     24  C   UNL     1      12.391   1.393  -2.084  1.00  0.00     0.147 C 
BRANCH  23  25
ATOM     25  C   UNL     1      11.133   3.532  -2.114  1.00  0.00     0.174 C 
BRANCH  25  26
ATOM     26  C   UNL     1      12.454   4.050  -2.731  1.00  0.00     0.038 C 
BRANCH  26  27
ATOM     27  C   UNL     1      12.356   5.278  -3.663  1.00  0.00    -0.015 C 
ATOM     28  C   UNL     1      11.159   5.200  -4.610  1.00  0.00     0.007 C 
ATOM     29  C   UNL     1      12.365   6.610  -2.916  1.00  0.00     0.007 C 
ENDBRANCH  26  27
ENDBRANCH  25  26
BRANCH  25  30
ATOM     30  C   UNL     1      10.778   4.192  -0.762  1.00  0.00     0.243 C 
ATOM     31  O   UNL     1      11.575   4.225   0.175  1.00  0.00    -0.273 OA
ATOM     32  N   UNL     1       9.519   4.728  -0.676  1.00  0.00    -0.342 N 
ATOM     33  H   UNL     1       8.969   4.787  -1.537  1.00  0.00     0.164 HD
BRANCH  32  34
ATOM     34  C   UNL     1       9.001   5.368   0.536  1.00  0.00     0.175 C 
BRANCH  34  35
ATOM     35  C   UNL     1       8.634   6.838   0.279  1.00  0.00     0.070 C 
BRANCH  35  36
ATOM     36  C   UNL     1       8.729   7.691   1.524  1.00  0.00    -0.045 A 
ATOM     37  C   UNL     1       7.576   8.293   2.051  1.00  0.00     0.007 A 
ATOM     38  C   UNL     1       9.961   7.911   2.152  1.00  0.00     0.007 A 
ATOM     39  C   UNL     1       7.656   9.093   3.191  1.00  0.00     0.046 A 
ATOM     40  C   UNL     1      10.042   8.713   3.293  1.00  0.00     0.046 A 
ATOM     41  C   UNL     1       8.887   9.296   3.803  1.00  0.00     0.115 A 
BRANCH  41  42
ATOM     42  O   UNL     1       8.922  10.087   4.913  1.00  0.00    -0.508 OA
ATOM     43  H   UNL     1       9.405   9.613   5.610  1.00  0.00     0.293 HD
ENDBRANCH  41  42
ENDBRANCH  35  36
ENDBRANCH  34  35
BRANCH  34  44
ATOM     44  C   UNL     1       7.787   4.548   1.029  1.00  0.00     0.243 C 
ATOM     45  O   UNL     1       7.544   4.311   2.209  1.00  0.00    -0.273 OA
ATOM     46  N   UNL     1       7.055   3.983   0.007  1.00  0.00    -0.341 N 
ATOM     47  H   UNL     1       7.365   4.112  -0.953  1.00  0.00     0.164 HD
BRANCH  46  48
ATOM     48  C   UNL     1       5.901   3.109   0.230  1.00  0.00     0.196 C 
BRANCH  48  49
ATOM     49  C   UNL     1       4.578   3.868   0.037  1.00  0.00     0.072 C 
BRANCH  49  50
ATOM     50  C   UNL     1       4.168   4.646   1.266  1.00  0.00    -0.045 A 
ATOM     51  C   UNL     1       3.368   4.038   2.244  1.00  0.00     0.007 A 
ATOM     52  C   UNL     1       4.559   5.980   1.438  1.00  0.00     0.007 A 
ATOM     53  C   UNL     1       2.973   4.751   3.377  1.00  0.00     0.046 A 
ATOM     54  C   UNL     1       4.163   6.694   2.571  1.00  0.00     0.046 A 
ATOM     55  C   UNL     1       3.373   6.072   3.532  1.00  0.00     0.115 A 
BRANCH  55  56
ATOM     56  O   UNL     1       2.964   6.734   4.652  1.00  0.00    -0.508 OA
ATOM     57  H   UNL     1       3.654   7.369   4.901  1.00  0.00     0.293 HD
ENDBRANCH  55  56
ENDBRANCH  49  50
ENDBRANCH  48  49
BRANCH  48  58
ATOM     58  C   UNL     1       5.969   1.932  -0.753  1.00  0.00     0.326 C 
ATOM     59  O   UNL     1       5.640   0.775  -0.545  1.00  0.00    -0.250 OA
BRANCH  58  60
ATOM     60  O   UNL     1       6.442   2.276  -1.977  1.00  0.00    -0.480 OA
ATOM     61  H   UNL     1       5.627   2.483  -2.485  1.00  0.00     0.296 HD
ENDBRANCH  58  60
ENDBRANCH  48  58
ENDBRANCH  46  48
ENDBRANCH  34  44
ENDBRANCH  32  34
ENDBRANCH  25  30
ENDBRANCH  23  25
ENDBRANCH   2  23
TORSDOF 28
ENDMDL
MODEL 24
REMARK VINA RESULT:    -5.540      5.038      9.426
REMARK INTER + INTRA:         -19.104
REMARK INTER:                 -13.909
REMARK INTRA:                  -5.195
REMARK UNBOUND:                -5.307
REMARK SMILES CCCCCCC[C@H](N)[C@H](O)C(=O)N[C@H](C)C(=O)N(C)[C@H](CC(C)C)C(=O)N[C@@H](Cc1ccc(O)cc1)C(=O)N[C@@H](Cc1ccc(O)cc1)C(=O)O
REMARK SMILES IDX 18 1 17 2 15 3 16 4 14 5 12 6 13 7 10 9 11 10 8 12 9 13 7 16
REMARK SMILES IDX 6 17 5 18 4 19 3 20 2 21 1 22 19 23 20 24 21 25 22 26 23 27
REMARK SMILES IDX 24 28 25 29 26 30 27 31 28 32 29 34 30 35 31 36 32 37 37 38
REMARK SMILES IDX 33 39 36 40 34 41 35 42 38 44 39 45 40 46 41 48 42 49 43 50
REMARK SMILES IDX 44 51 49 52 45 53 48 54 46 55 47 56 50 58 51 59 52 60
REMARK H PARENT 14 8 11 11 9 14 9 15 28 33 35 43 40 47 47 57 52 61
ROOT
ATOM      1  O   UNL     1       3.694   1.252  -7.304  1.00  0.00    -0.272 OA
ATOM      2  C   UNL     1       3.196   0.245  -6.778  1.00  0.00     0.245 C 
ENDROOT
BRANCH   2   3
ATOM      3  C   UNL     1       3.838  -1.135  -7.067  1.00  0.00     0.168 C 
ATOM      4  C   UNL     1       2.854  -2.050  -7.787  1.00  0.00     0.041 C 
BRANCH   3   5
ATOM      5  N   UNL     1       5.124  -1.080  -7.746  1.00  0.00    -0.342 N 
ATOM      6  C   UNL     1       6.315  -1.137  -7.055  1.00  0.00     0.251 C 
ATOM      7  O   UNL     1       6.385  -1.193  -5.831  1.00  0.00    -0.272 OA
ATOM      8  H   UNL     1       5.193  -0.998  -8.758  1.00  0.00     0.164 HD
BRANCH   6   9
ATOM      9  C   UNL     1       7.539  -1.208  -7.983  1.00  0.00     0.219 C 
BRANCH   9  10
ATOM     10  O   UNL     1       8.702  -0.598  -7.411  1.00  0.00    -0.382 OA
ATOM     11  H   UNL     1       9.416  -0.820  -8.048  1.00  0.00     0.211 HD
ENDBRANCH   9  10
BRANCH   9  12
ATOM     12  C   UNL     1       7.853  -2.647  -8.467  1.00  0.00     0.089 C 
BRANCH  12  13
ATOM     13  N   UNL     1       6.956  -3.586  -7.755  1.00  0.00    -0.325 NA
ATOM     14  H   UNL     1       7.399  -4.506  -7.712  1.00  0.00     0.119 HD
ATOM     15  H   UNL     1       6.110  -3.722  -8.312  1.00  0.00     0.119 HD
ENDBRANCH  12  13
BRANCH  12  16
ATOM     16  C   UNL     1       7.765  -2.883  -9.994  1.00  0.00     0.022 C 
BRANCH  16  17
ATOM     17  C   UNL     1       6.591  -2.281 -10.777  1.00  0.00     0.002 C 
BRANCH  17  18
ATOM     18  C   UNL     1       6.746  -2.309 -12.295  1.00  0.00     0.000 C 
BRANCH  18  19
ATOM     19  C   UNL     1       5.507  -2.822 -13.041  1.00  0.00    -0.000 C 
BRANCH  19  20
ATOM     20  C   UNL     1       4.753  -3.959 -12.344  1.00  0.00    -0.000 C 
BRANCH  20  21
ATOM     21  C   UNL     1       3.240  -3.734 -12.296  1.00  0.00    -0.003 C 
ATOM     22  C   UNL     1       2.508  -4.982 -11.830  1.00  0.00     0.004 C 
ENDBRANCH  20  21
ENDBRANCH  19  20
ENDBRANCH  18  19
ENDBRANCH  17  18
ENDBRANCH  16  17
ENDBRANCH  12  16
ENDBRANCH   9  12
ENDBRANCH   6   9
ENDBRANCH   3   5
ENDBRANCH   2   3
BRANCH   2  23
ATOM     23  N   UNL     1       2.164   0.379  -5.856  1.00  0.00    -0.332 N 
ATOM     24  C   UNL     1       0.769   0.604  -6.206  1.00  0.00     0.147 C 
BRANCH  23  25
ATOM     25  C   UNL     1       2.420   0.166  -4.406  1.00  0.00     0.174 C 
BRANCH  25  26
ATOM     26  C   UNL     1       1.144  -0.217  -3.619  1.00  0.00     0.038 C 
BRANCH  26  27
ATOM     27  C   UNL     1       1.170  -1.560  -2.854  1.00  0.00    -0.015 C 
ATOM     28  C   UNL     1       0.053  -1.662  -1.817  1.00  0.00     0.007 C 
ATOM     29  C   UNL     1       1.166  -2.780  -3.771  1.00  0.00     0.007 C 
ENDBRANCH  26  27
ENDBRANCH  25  26
BRANCH  25  30
ATOM     30  C   UNL     1       3.174   1.379  -3.814  1.00  0.00     0.243 C 
ATOM     31  O   UNL     1       2.704   2.515  -3.846  1.00  0.00    -0.273 OA
ATOM     32  N   UNL     1       4.399   1.104  -3.262  1.00  0.00    -0.342 N 
ATOM     33  H   UNL     1       4.657   0.121  -3.147  1.00  0.00     0.164 HD
BRANCH  32  34
ATOM     34  C   UNL     1       5.265   2.133  -2.679  1.00  0.00     0.175 C 
BRANCH  34  35
ATOM     35  C   UNL     1       5.099   2.205  -1.154  1.00  0.00     0.070 C 
BRANCH  35  36
ATOM     36  C   UNL     1       5.064   3.625  -0.635  1.00  0.00    -0.045 A 
ATOM     37  C   UNL     1       4.535   3.894   0.636  1.00  0.00     0.007 A 
ATOM     38  C   UNL     1       5.532   4.688  -1.418  1.00  0.00     0.007 A 
ATOM     39  C   UNL     1       4.485   5.203   1.118  1.00  0.00     0.046 A 
ATOM     40  C   UNL     1       5.481   5.998  -0.937  1.00  0.00     0.046 A 
ATOM     41  C   UNL     1       4.959   6.244   0.328  1.00  0.00     0.115 A 
BRANCH  41  42
ATOM     42  O   UNL     1       4.889   7.508   0.835  1.00  0.00    -0.508 OA
ATOM     43  H   UNL     1       5.253   7.496   1.736  1.00  0.00     0.293 HD
ENDBRANCH  41  42
ENDBRANCH  35  36
ENDBRANCH  34  35
BRANCH  34  44
ATOM     44  C   UNL     1       6.722   1.820  -3.089  1.00  0.00     0.243 C 
ATOM     45  O   UNL     1       7.137   1.837  -4.244  1.00  0.00    -0.273 OA
ATOM     46  N   UNL     1       7.505   1.386  -2.040  1.00  0.00    -0.341 N 
ATOM     47  H   UNL     1       7.083   1.277  -1.121  1.00  0.00     0.164 HD
BRANCH  46  48
ATOM     48  C   UNL     1       8.899   0.966  -2.196  1.00  0.00     0.196 C 
BRANCH  48  49
ATOM     49  C   UNL     1       9.726   1.292  -0.941  1.00  0.00     0.072 C 
BRANCH  49  50
ATOM     50  C   UNL     1       9.277   2.568  -0.264  1.00  0.00    -0.045 A 
ATOM     51  C   UNL     1       9.623   3.810  -0.816  1.00  0.00     0.007 A 
ATOM     52  C   UNL     1       8.535   2.532   0.924  1.00  0.00     0.007 A 
ATOM     53  C   UNL     1       9.226   4.994  -0.193  1.00  0.00     0.046 A 
ATOM     54  C   UNL     1       8.139   3.717   1.547  1.00  0.00     0.046 A 
ATOM     55  C   UNL     1       8.487   4.939   0.982  1.00  0.00     0.115 A 
BRANCH  55  56
ATOM     56  O   UNL     1       8.121   6.118   1.560  1.00  0.00    -0.508 OA
ATOM     57  H   UNL     1       8.030   5.976   2.516  1.00  0.00     0.293 HD
ENDBRANCH  55  56
ENDBRANCH  49  50
ENDBRANCH  48  49
BRANCH  48  58
ATOM     58  C   UNL     1       8.939  -0.545  -2.460  1.00  0.00     0.326 C 
ATOM     59  O   UNL     1       9.793  -1.337  -2.095  1.00  0.00    -0.250 OA
BRANCH  58  60
ATOM     60  O   UNL     1       7.876  -0.999  -3.171  1.00  0.00    -0.480 OA
ATOM     61  H   UNL     1       7.466  -1.657  -2.569  1.00  0.00     0.296 HD
ENDBRANCH  58  60
ENDBRANCH  48  58
ENDBRANCH  46  48
ENDBRANCH  34  44
ENDBRANCH  32  34
ENDBRANCH  25  30
ENDBRANCH  23  25
ENDBRANCH   2  23
TORSDOF 28
ENDMDL
MODEL 25
REMARK VINA RESULT:    -5.515      3.281      7.568
REMARK INTER + INTRA:         -19.044
REMARK INTER:                 -12.968
REMARK INTRA:                  -6.076
REMARK UNBOUND:                -5.307
REMARK SMILES CCCCCCC[C@H](N)[C@H](O)C(=O)N[C@H](C)C(=O)N(C)[C@H](CC(C)C)C(=O)N[C@@H](Cc1ccc(O)cc1)C(=O)N[C@@H](Cc1ccc(O)cc1)C(=O)O
REMARK SMILES IDX 18 1 17 2 15 3 16 4 14 5 12 6 13 7 10 9 11 10 8 12 9 13 7 16
REMARK SMILES IDX 6 17 5 18 4 19 3 20 2 21 1 22 19 23 20 24 21 25 22 26 23 27
REMARK SMILES IDX 24 28 25 29 26 30 27 31 28 32 29 34 30 35 31 36 32 37 37 38
REMARK SMILES IDX 33 39 36 40 34 41 35 42 38 44 39 45 40 46 41 48 42 49 43 50
REMARK SMILES IDX 44 51 49 52 45 53 48 54 46 55 47 56 50 58 51 59 52 60
REMARK H PARENT 14 8 11 11 9 14 9 15 28 33 35 43 40 47 47 57 52 61
ROOT
ATOM      1  O   UNL     1      12.609   8.631  -0.623  1.00  0.00    -0.272 OA
ATOM      2  C   UNL     1      11.774   9.536  -0.771  1.00  0.00     0.245 C 
ENDROOT
BRANCH   2   3
ATOM      3  C   UNL     1      10.847   9.891   0.419  1.00  0.00     0.168 C 
ATOM      4  C   UNL     1       9.769  10.880  -0.010  1.00  0.00     0.041 C 
BRANCH   3   5
ATOM      5  N   UNL     1      10.284   8.746   1.118  1.00  0.00    -0.342 N 
ATOM      6  C   UNL     1       9.305   7.957   0.552  1.00  0.00     0.251 C 
ATOM      7  O   UNL     1       8.809   8.179  -0.548  1.00  0.00    -0.272 OA
ATOM      8  H   UNL     1      10.591   8.483   2.051  1.00  0.00     0.164 HD
BRANCH   6   9
ATOM      9  C   UNL     1       8.964   6.727   1.408  1.00  0.00     0.219 C 
BRANCH   9  10
ATOM     10  O   UNL     1      10.122   6.137   2.013  1.00  0.00    -0.382 OA
ATOM     11  H   UNL     1      10.390   6.797   2.689  1.00  0.00     0.211 HD
ENDBRANCH   9  10
BRANCH   9  12
ATOM     12  C   UNL     1       7.870   7.007   2.470  1.00  0.00     0.089 C 
BRANCH  12  13
ATOM     13  N   UNL     1       7.186   8.272   2.114  1.00  0.00    -0.325 NA
ATOM     14  H   UNL     1       6.552   8.535   2.871  1.00  0.00     0.119 HD
ATOM     15  H   UNL     1       6.583   8.105   1.306  1.00  0.00     0.119 HD
ENDBRANCH  12  13
BRANCH  12  16
ATOM     16  C   UNL     1       6.829   5.882   2.685  1.00  0.00     0.022 C 
BRANCH  16  17
ATOM     17  C   UNL     1       5.353   6.161   2.369  1.00  0.00     0.002 C 
BRANCH  17  18
ATOM     18  C   UNL     1       4.386   5.052   2.780  1.00  0.00     0.000 C 
BRANCH  18  19
ATOM     19  C   UNL     1       3.028   5.562   3.282  1.00  0.00    -0.000 C 
BRANCH  19  20
ATOM     20  C   UNL     1       1.831   4.672   2.935  1.00  0.00    -0.000 C 
BRANCH  20  21
ATOM     21  C   UNL     1       2.238   3.260   2.507  1.00  0.00    -0.003 C 
ATOM     22  C   UNL     1       1.044   2.318   2.496  1.00  0.00     0.004 C 
ENDBRANCH  20  21
ENDBRANCH  19  20
ENDBRANCH  18  19
ENDBRANCH  17  18
ENDBRANCH  16  17
ENDBRANCH  12  16
ENDBRANCH   9  12
ENDBRANCH   6   9
ENDBRANCH   3   5
ENDBRANCH   2   3
BRANCH   2  23
ATOM     23  N   UNL     1      11.764  10.289  -1.940  1.00  0.00    -0.332 N 
ATOM     24  C   UNL     1      12.400  11.590  -2.090  1.00  0.00     0.147 C 
BRANCH  23  25
ATOM     25  C   UNL     1      11.186   9.727  -3.191  1.00  0.00     0.174 C 
BRANCH  25  26
ATOM     26  C   UNL     1       9.698  10.102  -3.388  1.00  0.00     0.038 C 
BRANCH  26  27
ATOM     27  C   UNL     1       9.181  10.174  -4.842  1.00  0.00    -0.015 C 
ATOM     28  C   UNL     1      10.298  10.459  -5.846  1.00  0.00     0.007 C 
ATOM     29  C   UNL     1       8.380   8.945  -5.264  1.00  0.00     0.007 C 
ENDBRANCH  26  27
ENDBRANCH  25  26
BRANCH  25  30
ATOM     30  C   UNL     1      11.459   8.207  -3.267  1.00  0.00     0.243 C 
ATOM     31  O   UNL     1      12.492   7.757  -3.761  1.00  0.00    -0.273 OA
ATOM     32  N   UNL     1      10.475   7.401  -2.756  1.00  0.00    -0.342 N 
ATOM     33  H   UNL     1       9.716   7.850  -2.237  1.00  0.00     0.164 HD
BRANCH  32  34
ATOM     34  C   UNL     1      10.551   5.937  -2.768  1.00  0.00     0.175 C 
BRANCH  34  35
ATOM     35  C   UNL     1      11.169   5.399  -1.468  1.00  0.00     0.070 C 
BRANCH  35  36
ATOM     36  C   UNL     1      11.065   3.895  -1.350  1.00  0.00    -0.045 A 
ATOM     37  C   UNL     1      11.598   3.074  -2.356  1.00  0.00     0.007 A 
ATOM     38  C   UNL     1      10.421   3.302  -0.257  1.00  0.00     0.007 A 
ATOM     39  C   UNL     1      11.496   1.686  -2.263  1.00  0.00     0.046 A 
ATOM     40  C   UNL     1      10.316   1.912  -0.163  1.00  0.00     0.046 A 
ATOM     41  C   UNL     1      10.857   1.116  -1.168  1.00  0.00     0.115 A 
BRANCH  41  42
ATOM     42  O   UNL     1      10.775  -0.244  -1.117  1.00  0.00    -0.508 OA
ATOM     43  H   UNL     1      11.504  -0.613  -1.643  1.00  0.00     0.293 HD
ENDBRANCH  41  42
ENDBRANCH  35  36
ENDBRANCH  34  35
BRANCH  34  44
ATOM     44  C   UNL     1       9.127   5.386  -3.001  1.00  0.00     0.243 C 
ATOM     45  O   UNL     1       8.754   4.843  -4.038  1.00  0.00    -0.273 OA
ATOM     46  N   UNL     1       8.251   5.676  -1.976  1.00  0.00    -0.341 N 
ATOM     47  H   UNL     1       8.578   6.231  -1.189  1.00  0.00     0.164 HD
BRANCH  46  48
ATOM     48  C   UNL     1       6.832   5.315  -2.003  1.00  0.00     0.196 C 
BRANCH  48  49
ATOM     49  C   UNL     1       6.456   4.431  -0.802  1.00  0.00     0.072 C 
BRANCH  49  50
ATOM     50  C   UNL     1       6.775   2.971  -1.033  1.00  0.00    -0.045 A 
ATOM     51  C   UNL     1       7.093   2.520  -2.322  1.00  0.00     0.007 A 
ATOM     52  C   UNL     1       6.738   2.050   0.022  1.00  0.00     0.007 A 
ATOM     53  C   UNL     1       7.376   1.173  -2.549  1.00  0.00     0.046 A 
ATOM     54  C   UNL     1       7.020   0.701  -0.206  1.00  0.00     0.046 A 
ATOM     55  C   UNL     1       7.338   0.275  -1.491  1.00  0.00     0.115 A 
BRANCH  55  56
ATOM     56  O   UNL     1       7.620  -1.033  -1.755  1.00  0.00    -0.508 OA
ATOM     57  H   UNL     1       7.844  -1.473  -0.919  1.00  0.00     0.293 HD
ENDBRANCH  55  56
ENDBRANCH  49  50
ENDBRANCH  48  49
BRANCH  48  58
ATOM     58  C   UNL     1       5.990   6.599  -1.980  1.00  0.00     0.326 C 
ATOM     59  O   UNL     1       5.290   7.040  -2.877  1.00  0.00    -0.250 OA
BRANCH  58  60
ATOM     60  O   UNL     1       6.061   7.271  -0.804  1.00  0.00    -0.480 OA
ATOM     61  H   UNL     1       6.903   7.771  -0.878  1.00  0.00     0.296 HD
ENDBRANCH  58  60
ENDBRANCH  48  58
ENDBRANCH  46  48
ENDBRANCH  34  44
ENDBRANCH  32  34
ENDBRANCH  25  30
ENDBRANCH  23  25
ENDBRANCH   2  23
TORSDOF 28
ENDMDL
MODEL 26
REMARK VINA RESULT:    -5.501      2.220      6.496
REMARK INTER + INTRA:         -19.008
REMARK INTER:                 -13.725
REMARK INTRA:                  -5.283
REMARK UNBOUND:                -5.307
REMARK SMILES CCCCCCC[C@H](N)[C@H](O)C(=O)N[C@H](C)C(=O)N(C)[C@H](CC(C)C)C(=O)N[C@@H](Cc1ccc(O)cc1)C(=O)N[C@@H](Cc1ccc(O)cc1)C(=O)O
REMARK SMILES IDX 18 1 17 2 15 3 16 4 14 5 12 6 13 7 10 9 11 10 8 12 9 13 7 16
REMARK SMILES IDX 6 17 5 18 4 19 3 20 2 21 1 22 19 23 20 24 21 25 22 26 23 27
REMARK SMILES IDX 24 28 25 29 26 30 27 31 28 32 29 34 30 35 31 36 32 37 37 38
REMARK SMILES IDX 33 39 36 40 34 41 35 42 38 44 39 45 40 46 41 48 42 49 43 50
REMARK SMILES IDX 44 51 49 52 45 53 48 54 46 55 47 56 50 58 51 59 52 60
REMARK H PARENT 14 8 11 11 9 14 9 15 28 33 35 43 40 47 47 57 52 61
ROOT
ATOM      1  O   UNL     1      10.422   3.365   2.778  1.00  0.00    -0.272 OA
ATOM      2  C   UNL     1      10.779   4.433   2.258  1.00  0.00     0.245 C 
ENDROOT
BRANCH   2   3
ATOM      3  C   UNL     1      11.115   4.446   0.746  1.00  0.00     0.168 C 
ATOM      4  C   UNL     1      12.379   5.254   0.479  1.00  0.00     0.041 C 
BRANCH   3   5
ATOM      5  N   UNL     1      11.168   3.133   0.121  1.00  0.00    -0.342 N 
ATOM      6  C   UNL     1      10.079   2.590  -0.527  1.00  0.00     0.251 C 
ATOM      7  O   UNL     1       8.985   3.142  -0.590  1.00  0.00    -0.272 OA
ATOM      8  H   UNL     1      12.012   2.565   0.139  1.00  0.00     0.164 HD
BRANCH   6   9
ATOM      9  C   UNL     1      10.406   1.264  -1.232  1.00  0.00     0.219 C 
BRANCH   9  10
ATOM     10  O   UNL     1      10.489   0.161  -0.322  1.00  0.00    -0.382 OA
ATOM     11  H   UNL     1      11.113   0.477   0.369  1.00  0.00     0.211 HD
ENDBRANCH   9  10
BRANCH   9  12
ATOM     12  C   UNL     1       9.441   0.942  -2.402  1.00  0.00     0.089 C 
BRANCH  12  13
ATOM     13  N   UNL     1      10.236   0.403  -3.529  1.00  0.00    -0.325 NA
ATOM     14  H   UNL     1       9.980  -0.574  -3.684  1.00  0.00     0.119 HD
ATOM     15  H   UNL     1      11.222   0.380  -3.257  1.00  0.00     0.119 HD
ENDBRANCH  12  13
BRANCH  12  16
ATOM     16  C   UNL     1       8.271  -0.015  -2.072  1.00  0.00     0.022 C 
BRANCH  16  17
ATOM     17  C   UNL     1       6.838   0.536  -2.050  1.00  0.00     0.002 C 
BRANCH  17  18
ATOM     18  C   UNL     1       6.278   0.819  -0.658  1.00  0.00     0.000 C 
BRANCH  18  19
ATOM     19  C   UNL     1       4.957   1.600  -0.664  1.00  0.00    -0.000 C 
BRANCH  19  20
ATOM     20  C   UNL     1       3.692   0.740  -0.592  1.00  0.00    -0.000 C 
BRANCH  20  21
ATOM     21  C   UNL     1       2.545   1.286  -1.446  1.00  0.00    -0.003 C 
ATOM     22  C   UNL     1       2.953   1.413  -2.906  1.00  0.00     0.004 C 
ENDBRANCH  20  21
ENDBRANCH  19  20
ENDBRANCH  18  19
ENDBRANCH  17  18
ENDBRANCH  16  17
ENDBRANCH  12  16
ENDBRANCH   9  12
ENDBRANCH   6   9
ENDBRANCH   3   5
ENDBRANCH   2   3
BRANCH   2  23
ATOM     23  N   UNL     1      10.754   5.610   2.999  1.00  0.00    -0.332 N 
ATOM     24  C   UNL     1      11.673   5.922   4.084  1.00  0.00     0.147 C 
BRANCH  23  25
ATOM     25  C   UNL     1       9.828   6.714   2.625  1.00  0.00     0.174 C 
BRANCH  25  26
ATOM     26  C   UNL     1       9.934   7.935   3.569  1.00  0.00     0.038 C 
BRANCH  26  27
ATOM     27  C   UNL     1       9.633   9.321   2.958  1.00  0.00    -0.015 C 
ATOM     28  C   UNL     1       9.996   9.397   1.475  1.00  0.00     0.007 C 
ATOM     29  C   UNL     1       8.196   9.785   3.183  1.00  0.00     0.007 C 
ENDBRANCH  26  27
ENDBRANCH  25  26
BRANCH  25  30
ATOM     30  C   UNL     1       8.388   6.171   2.470  1.00  0.00     0.243 C 
ATOM     31  O   UNL     1       7.843   5.514   3.355  1.00  0.00    -0.273 OA
ATOM     32  N   UNL     1       7.768   6.466   1.283  1.00  0.00    -0.342 N 
ATOM     33  H   UNL     1       8.231   7.133   0.660  1.00  0.00     0.164 HD
BRANCH  32  34
ATOM     34  C   UNL     1       6.415   6.011   0.951  1.00  0.00     0.175 C 
BRANCH  34  35
ATOM     35  C   UNL     1       5.359   6.733   1.802  1.00  0.00     0.070 C 
BRANCH  35  36
ATOM     36  C   UNL     1       4.128   5.888   2.046  1.00  0.00    -0.045 A 
ATOM     37  C   UNL     1       4.041   4.601   1.496  1.00  0.00     0.007 A 
ATOM     38  C   UNL     1       3.055   6.383   2.798  1.00  0.00     0.007 A 
ATOM     39  C   UNL     1       2.903   3.820   1.703  1.00  0.00     0.046 A 
ATOM     40  C   UNL     1       1.915   5.602   3.006  1.00  0.00     0.046 A 
ATOM     41  C   UNL     1       1.851   4.325   2.456  1.00  0.00     0.115 A 
BRANCH  41  42
ATOM     42  O   UNL     1       0.756   3.531   2.633  1.00  0.00    -0.508 OA
ATOM     43  H   UNL     1       1.041   2.714   3.074  1.00  0.00     0.293 HD
ENDBRANCH  41  42
ENDBRANCH  35  36
ENDBRANCH  34  35
BRANCH  34  44
ATOM     44  C   UNL     1       6.192   6.239  -0.561  1.00  0.00     0.243 C 
ATOM     45  O   UNL     1       5.327   6.973  -1.032  1.00  0.00    -0.273 OA
ATOM     46  N   UNL     1       6.976   5.432  -1.359  1.00  0.00    -0.341 N 
ATOM     47  H   UNL     1       7.595   4.755  -0.920  1.00  0.00     0.164 HD
BRANCH  46  48
ATOM     48  C   UNL     1       6.892   5.420  -2.821  1.00  0.00     0.196 C 
BRANCH  48  49
ATOM     49  C   UNL     1       8.247   5.065  -3.457  1.00  0.00     0.072 C 
BRANCH  49  50
ATOM     50  C   UNL     1       9.241   6.201  -3.381  1.00  0.00    -0.045 A 
ATOM     51  C   UNL     1      10.351   6.102  -2.529  1.00  0.00     0.007 A 
ATOM     52  C   UNL     1       9.062   7.367  -4.135  1.00  0.00     0.007 A 
ATOM     53  C   UNL     1      11.269   7.149  -2.441  1.00  0.00     0.046 A 
ATOM     54  C   UNL     1       9.980   8.416  -4.045  1.00  0.00     0.046 A 
ATOM     55  C   UNL     1      11.077   8.298  -3.199  1.00  0.00     0.115 A 
BRANCH  55  56
ATOM     56  O   UNL     1      11.995   9.299  -3.082  1.00  0.00    -0.508 OA
ATOM     57  H   UNL     1      11.572  10.134  -3.338  1.00  0.00     0.293 HD
ENDBRANCH  55  56
ENDBRANCH  49  50
ENDBRANCH  48  49
BRANCH  48  58
ATOM     58  C   UNL     1       5.836   4.394  -3.252  1.00  0.00     0.326 C 
ATOM     59  O   UNL     1       6.028   3.251  -3.636  1.00  0.00    -0.250 OA
BRANCH  58  60
ATOM     60  O   UNL     1       4.563   4.857  -3.165  1.00  0.00    -0.480 OA
ATOM     61  H   UNL     1       4.605   5.721  -3.630  1.00  0.00     0.296 HD
ENDBRANCH  58  60
ENDBRANCH  48  58
ENDBRANCH  46  48
ENDBRANCH  34  44
ENDBRANCH  32  34
ENDBRANCH  25  30
ENDBRANCH  23  25
ENDBRANCH   2  23
TORSDOF 28
ENDMDL
MODEL 27
REMARK VINA RESULT:    -5.500      3.465      7.024
REMARK INTER + INTRA:         -19.005
REMARK INTER:                 -12.042
REMARK INTRA:                  -6.963
REMARK UNBOUND:                -5.307
REMARK SMILES CCCCCCC[C@H](N)[C@H](O)C(=O)N[C@H](C)C(=O)N(C)[C@H](CC(C)C)C(=O)N[C@@H](Cc1ccc(O)cc1)C(=O)N[C@@H](Cc1ccc(O)cc1)C(=O)O
REMARK SMILES IDX 18 1 17 2 15 3 16 4 14 5 12 6 13 7 10 9 11 10 8 12 9 13 7 16
REMARK SMILES IDX 6 17 5 18 4 19 3 20 2 21 1 22 19 23 20 24 21 25 22 26 23 27
REMARK SMILES IDX 24 28 25 29 26 30 27 31 28 32 29 34 30 35 31 36 32 37 37 38
REMARK SMILES IDX 33 39 36 40 34 41 35 42 38 44 39 45 40 46 41 48 42 49 43 50
REMARK SMILES IDX 44 51 49 52 45 53 48 54 46 55 47 56 50 58 51 59 52 60
REMARK H PARENT 14 8 11 11 9 14 9 15 28 33 35 43 40 47 47 57 52 61
ROOT
ATOM      1  O   UNL     1      10.118  10.273   2.108  1.00  0.00    -0.272 OA
ATOM      2  C   UNL     1      10.184   9.783   0.971  1.00  0.00     0.245 C 
ENDROOT
BRANCH   2   3
ATOM      3  C   UNL     1       9.695  10.629  -0.231  1.00  0.00     0.168 C 
ATOM      4  C   UNL     1      10.808  11.535  -0.744  1.00  0.00     0.041 C 
BRANCH   3   5
ATOM      5  N   UNL     1       9.079   9.865  -1.305  1.00  0.00    -0.342 N 
ATOM      6  C   UNL     1       8.234  10.452  -2.223  1.00  0.00     0.251 C 
ATOM      7  O   UNL     1       7.907  11.633  -2.183  1.00  0.00    -0.272 OA
ATOM      8  H   UNL     1       9.248   8.869  -1.420  1.00  0.00     0.164 HD
BRANCH   6   9
ATOM      9  C   UNL     1       7.817   9.490  -3.347  1.00  0.00     0.219 C 
BRANCH   9  10
ATOM     10  O   UNL     1       8.882   8.621  -3.754  1.00  0.00    -0.382 OA
ATOM     11  H   UNL     1       8.427   7.935  -4.290  1.00  0.00     0.211 HD
ENDBRANCH   9  10
BRANCH   9  12
ATOM     12  C   UNL     1       6.541   8.676  -3.010  1.00  0.00     0.089 C 
BRANCH  12  13
ATOM     13  N   UNL     1       5.475   9.623  -2.608  1.00  0.00    -0.325 NA
ATOM     14  H   UNL     1       4.658   9.481  -3.204  1.00  0.00     0.119 HD
ATOM     15  H   UNL     1       5.788  10.576  -2.806  1.00  0.00     0.119 HD
ENDBRANCH  12  13
BRANCH  12  16
ATOM     16  C   UNL     1       6.023   7.735  -4.123  1.00  0.00     0.022 C 
BRANCH  16  17
ATOM     17  C   UNL     1       5.542   6.326  -3.747  1.00  0.00     0.002 C 
BRANCH  17  18
ATOM     18  C   UNL     1       6.371   5.628  -2.672  1.00  0.00     0.000 C 
BRANCH  18  19
ATOM     19  C   UNL     1       5.589   5.301  -1.394  1.00  0.00    -0.000 C 
BRANCH  19  20
ATOM     20  C   UNL     1       6.425   4.723  -0.249  1.00  0.00    -0.000 C 
BRANCH  20  21
ATOM     21  C   UNL     1       6.459   5.627   0.986  1.00  0.00    -0.003 C 
ATOM     22  C   UNL     1       5.442   6.752   0.877  1.00  0.00     0.004 C 
ENDBRANCH  20  21
ENDBRANCH  19  20
ENDBRANCH  18  19
ENDBRANCH  17  18
ENDBRANCH  16  17
ENDBRANCH  12  16
ENDBRANCH   9  12
ENDBRANCH   6   9
ENDBRANCH   3   5
ENDBRANCH   2   3
BRANCH   2  23
ATOM     23  N   UNL     1      10.800   8.550   0.780  1.00  0.00    -0.332 N 
ATOM     24  C   UNL     1      12.201   8.372   0.432  1.00  0.00     0.147 C 
BRANCH  23  25
ATOM     25  C   UNL     1      10.057   7.289   1.057  1.00  0.00     0.174 C 
BRANCH  25  26
ATOM     26  C   UNL     1      10.710   6.439   2.172  1.00  0.00     0.038 C 
BRANCH  26  27
ATOM     27  C   UNL     1       9.826   6.081   3.387  1.00  0.00    -0.015 C 
ATOM     28  C   UNL     1       8.686   7.078   3.595  1.00  0.00     0.007 C 
ATOM     29  C   UNL     1       9.289   4.652   3.348  1.00  0.00     0.007 C 
ENDBRANCH  26  27
ENDBRANCH  25  26
BRANCH  25  30
ATOM     30  C   UNL     1       9.819   6.513  -0.259  1.00  0.00     0.243 C 
ATOM     31  O   UNL     1       9.160   6.986  -1.183  1.00  0.00    -0.273 OA
ATOM     32  N   UNL     1      10.385   5.265  -0.322  1.00  0.00    -0.342 N 
ATOM     33  H   UNL     1      11.033   5.001   0.425  1.00  0.00     0.164 HD
BRANCH  32  34
ATOM     34  C   UNL     1      10.240   4.377  -1.478  1.00  0.00     0.175 C 
BRANCH  34  35
ATOM     35  C   UNL     1      11.408   4.547  -2.463  1.00  0.00     0.070 C 
BRANCH  35  36
ATOM     36  C   UNL     1      10.982   5.172  -3.772  1.00  0.00    -0.045 A 
ATOM     37  C   UNL     1      11.870   5.996  -4.479  1.00  0.00     0.007 A 
ATOM     38  C   UNL     1       9.696   4.957  -4.286  1.00  0.00     0.007 A 
ATOM     39  C   UNL     1      11.481   6.588  -5.681  1.00  0.00     0.046 A 
ATOM     40  C   UNL     1       9.305   5.550  -5.489  1.00  0.00     0.046 A 
ATOM     41  C   UNL     1      10.203   6.360  -6.177  1.00  0.00     0.115 A 
BRANCH  41  42
ATOM     42  O   UNL     1       9.862   6.959  -7.353  1.00  0.00    -0.508 OA
ATOM     43  H   UNL     1       9.352   6.323  -7.882  1.00  0.00     0.293 HD
ENDBRANCH  41  42
ENDBRANCH  35  36
ENDBRANCH  34  35
BRANCH  34  44
ATOM     44  C   UNL     1      10.132   2.926  -0.957  1.00  0.00     0.243 C 
ATOM     45  O   UNL     1      10.537   2.551   0.139  1.00  0.00    -0.273 OA
ATOM     46  N   UNL     1       9.648   2.040  -1.897  1.00  0.00    -0.341 N 
ATOM     47  H   UNL     1       9.435   2.379  -2.832  1.00  0.00     0.164 HD
BRANCH  46  48
ATOM     48  C   UNL     1       9.520   0.601  -1.657  1.00  0.00     0.196 C 
BRANCH  48  49
ATOM     49  C   UNL     1       8.382  -0.007  -2.493  1.00  0.00     0.072 C 
BRANCH  49  50
ATOM     50  C   UNL     1       7.043   0.634  -2.207  1.00  0.00    -0.045 A 
ATOM     51  C   UNL     1       6.458   0.494  -0.939  1.00  0.00     0.007 A 
ATOM     52  C   UNL     1       6.360   1.351  -3.197  1.00  0.00     0.007 A 
ATOM     53  C   UNL     1       5.217   1.069  -0.667  1.00  0.00     0.046 A 
ATOM     54  C   UNL     1       5.117   1.926  -2.925  1.00  0.00     0.046 A 
ATOM     55  C   UNL     1       4.556   1.781  -1.661  1.00  0.00     0.115 A 
BRANCH  55  56
ATOM     56  O   UNL     1       3.344   2.326  -1.355  1.00  0.00    -0.508 OA
ATOM     57  H   UNL     1       3.492   3.200  -0.960  1.00  0.00     0.293 HD
ENDBRANCH  55  56
ENDBRANCH  49  50
ENDBRANCH  48  49
BRANCH  48  58
ATOM     58  C   UNL     1      10.845  -0.085  -2.015  1.00  0.00     0.326 C 
ATOM     59  O   UNL     1      11.180  -0.523  -3.103  1.00  0.00    -0.250 OA
BRANCH  58  60
ATOM     60  O   UNL     1      11.708  -0.174  -0.971  1.00  0.00    -0.480 OA
ATOM     61  H   UNL     1      11.701  -1.132  -0.754  1.00  0.00     0.296 HD
ENDBRANCH  58  60
ENDBRANCH  48  58
ENDBRANCH  46  48
ENDBRANCH  34  44
ENDBRANCH  32  34
ENDBRANCH  25  30
ENDBRANCH  23  25
ENDBRANCH   2  23
TORSDOF 28
ENDMDL
MODEL 28
REMARK VINA RESULT:    -5.470      5.365     11.391
REMARK INTER + INTRA:         -18.931
REMARK INTER:                 -14.512
REMARK INTRA:                  -4.419
REMARK UNBOUND:                -5.307
REMARK SMILES CCCCCCC[C@H](N)[C@H](O)C(=O)N[C@H](C)C(=O)N(C)[C@H](CC(C)C)C(=O)N[C@@H](Cc1ccc(O)cc1)C(=O)N[C@@H](Cc1ccc(O)cc1)C(=O)O
REMARK SMILES IDX 18 1 17 2 15 3 16 4 14 5 12 6 13 7 10 9 11 10 8 12 9 13 7 16
REMARK SMILES IDX 6 17 5 18 4 19 3 20 2 21 1 22 19 23 20 24 21 25 22 26 23 27
REMARK SMILES IDX 24 28 25 29 26 30 27 31 28 32 29 34 30 35 31 36 32 37 37 38
REMARK SMILES IDX 33 39 36 40 34 41 35 42 38 44 39 45 40 46 41 48 42 49 43 50
REMARK SMILES IDX 44 51 49 52 45 53 48 54 46 55 47 56 50 58 51 59 52 60
REMARK H PARENT 14 8 11 11 9 14 9 15 28 33 35 43 40 47 47 57 52 61
ROOT
ATOM      1  O   UNL     1       8.653  -0.236  -6.550  1.00  0.00    -0.272 OA
ATOM      2  C   UNL     1       8.639   0.727  -5.769  1.00  0.00     0.245 C 
ENDROOT
BRANCH   2   3
ATOM      3  C   UNL     1       9.402   0.603  -4.427  1.00  0.00     0.168 C 
ATOM      4  C   UNL     1      10.635   1.501  -4.420  1.00  0.00     0.041 C 
BRANCH   3   5
ATOM      5  N   UNL     1       8.585   0.795  -3.239  1.00  0.00    -0.342 N 
ATOM      6  C   UNL     1       8.316  -0.237  -2.366  1.00  0.00     0.251 C 
ATOM      7  O   UNL     1       8.701  -1.388  -2.540  1.00  0.00    -0.272 OA
ATOM      8  H   UNL     1       8.180   1.699  -3.007  1.00  0.00     0.164 HD
BRANCH   6   9
ATOM      9  C   UNL     1       7.557   0.227  -1.112  1.00  0.00     0.219 C 
BRANCH   9  10
ATOM     10  O   UNL     1       6.864  -0.843  -0.458  1.00  0.00    -0.382 OA
ATOM     11  H   UNL     1       7.057  -1.623  -1.023  1.00  0.00     0.211 HD
ENDBRANCH   9  10
BRANCH   9  12
ATOM     12  C   UNL     1       8.453   0.998  -0.109  1.00  0.00     0.089 C 
BRANCH  12  13
ATOM     13  N   UNL     1       9.850   0.540  -0.282  1.00  0.00    -0.325 NA
ATOM     14  H   UNL     1      10.315   0.527   0.628  1.00  0.00     0.119 HD
ATOM     15  H   UNL     1      10.361   1.234  -0.832  1.00  0.00     0.119 HD
ENDBRANCH  12  13
BRANCH  12  16
ATOM     16  C   UNL     1       8.386   2.542  -0.188  1.00  0.00     0.022 C 
BRANCH  16  17
ATOM     17  C   UNL     1       8.061   3.342   1.081  1.00  0.00     0.002 C 
BRANCH  17  18
ATOM     18  C   UNL     1       9.000   3.093   2.259  1.00  0.00     0.000 C 
BRANCH  18  19
ATOM     19  C   UNL     1      10.235   4.004   2.276  1.00  0.00    -0.000 C 
BRANCH  19  20
ATOM     20  C   UNL     1       9.943   5.498   2.114  1.00  0.00    -0.000 C 
BRANCH  20  21
ATOM     21  C   UNL     1       9.685   6.207   3.446  1.00  0.00    -0.003 C 
ATOM     22  C   UNL     1       8.319   6.876   3.463  1.00  0.00     0.004 C 
ENDBRANCH  20  21
ENDBRANCH  19  20
ENDBRANCH  18  19
ENDBRANCH  17  18
ENDBRANCH  16  17
ENDBRANCH  12  16
ENDBRANCH   9  12
ENDBRANCH   6   9
ENDBRANCH   3   5
ENDBRANCH   2   3
BRANCH   2  23
ATOM     23  N   UNL     1       8.053   1.928  -6.155  1.00  0.00    -0.332 N 
ATOM     24  C   UNL     1       8.673   2.903  -7.040  1.00  0.00     0.147 C 
BRANCH  23  25
ATOM     25  C   UNL     1       6.648   2.236  -5.769  1.00  0.00     0.174 C 
BRANCH  25  26
ATOM     26  C   UNL     1       6.553   3.239  -4.595  1.00  0.00     0.038 C 
BRANCH  26  27
ATOM     27  C   UNL     1       5.526   4.386  -4.736  1.00  0.00    -0.015 C 
ATOM     28  C   UNL     1       4.107   3.947  -4.376  1.00  0.00     0.007 C 
ATOM     29  C   UNL     1       5.912   5.644  -3.963  1.00  0.00     0.007 C 
ENDBRANCH  26  27
ENDBRANCH  25  26
BRANCH  25  30
ATOM     30  C   UNL     1       5.862   0.926  -5.532  1.00  0.00     0.243 C 
ATOM     31  O   UNL     1       5.589   0.528  -4.401  1.00  0.00    -0.273 OA
ATOM     32  N   UNL     1       5.498   0.240  -6.662  1.00  0.00    -0.342 N 
ATOM     33  H   UNL     1       5.636   0.705  -7.563  1.00  0.00     0.164 HD
BRANCH  32  34
ATOM     34  C   UNL     1       4.772  -1.033  -6.628  1.00  0.00     0.175 C 
BRANCH  34  35
ATOM     35  C   UNL     1       3.252  -0.810  -6.650  1.00  0.00     0.070 C 
BRANCH  35  36
ATOM     36  C   UNL     1       2.530  -1.602  -5.583  1.00  0.00    -0.045 A 
ATOM     37  C   UNL     1       1.814  -0.934  -4.578  1.00  0.00     0.007 A 
ATOM     38  C   UNL     1       2.583  -3.002  -5.567  1.00  0.00     0.007 A 
ATOM     39  C   UNL     1       1.156  -1.656  -3.582  1.00  0.00     0.046 A 
ATOM     40  C   UNL     1       1.926  -3.725  -4.569  1.00  0.00     0.046 A 
ATOM     41  C   UNL     1       1.216  -3.044  -3.585  1.00  0.00     0.115 A 
BRANCH  41  42
ATOM     42  O   UNL     1       0.562  -3.711  -2.592  1.00  0.00    -0.508 OA
ATOM     43  H   UNL     1      -0.065  -4.330  -3.002  1.00  0.00     0.293 HD
ENDBRANCH  41  42
ENDBRANCH  35  36
ENDBRANCH  34  35
BRANCH  34  44
ATOM     44  C   UNL     1       5.248  -1.887  -7.825  1.00  0.00     0.243 C 
ATOM     45  O   UNL     1       4.634  -2.847  -8.280  1.00  0.00    -0.273 OA
ATOM     46  N   UNL     1       6.511  -1.554  -8.269  1.00  0.00    -0.341 N 
ATOM     47  H   UNL     1       7.029  -0.826  -7.784  1.00  0.00     0.164 HD
BRANCH  46  48
ATOM     48  C   UNL     1       7.200  -2.267  -9.347  1.00  0.00     0.196 C 
BRANCH  48  49
ATOM     49  C   UNL     1       8.033  -1.306 -10.211  1.00  0.00     0.072 C 
BRANCH  49  50
ATOM     50  C   UNL     1       8.707  -2.002 -11.371  1.00  0.00    -0.045 A 
ATOM     51  C   UNL     1       7.941  -2.746 -12.281  1.00  0.00     0.007 A 
ATOM     52  C   UNL     1      10.096  -1.935 -11.544  1.00  0.00     0.007 A 
ATOM     53  C   UNL     1       8.554  -3.404 -13.347  1.00  0.00     0.046 A 
ATOM     54  C   UNL     1      10.709  -2.595 -12.611  1.00  0.00     0.046 A 
ATOM     55  C   UNL     1       9.932  -3.324 -13.505  1.00  0.00     0.115 A 
BRANCH  55  56
ATOM     56  O   UNL     1      10.492  -3.983 -14.559  1.00  0.00    -0.508 OA
ATOM     57  H   UNL     1      10.273  -4.925 -14.482  1.00  0.00     0.293 HD
ENDBRANCH  55  56
ENDBRANCH  49  50
ENDBRANCH  48  49
BRANCH  48  58
ATOM     58  C   UNL     1       8.117  -3.333  -8.733  1.00  0.00     0.326 C 
ATOM     59  O   UNL     1       7.924  -4.538  -8.689  1.00  0.00    -0.250 OA
BRANCH  58  60
ATOM     60  O   UNL     1       9.260  -2.826  -8.207  1.00  0.00    -0.480 OA
ATOM     61  H   UNL     1       9.890  -2.861  -8.959  1.00  0.00     0.296 HD
ENDBRANCH  58  60
ENDBRANCH  48  58
ENDBRANCH  46  48
ENDBRANCH  34  44
ENDBRANCH  32  34
ENDBRANCH  25  30
ENDBRANCH  23  25
ENDBRANCH   2  23
TORSDOF 28
ENDMDL
MODEL 29
REMARK VINA RESULT:    -5.457      2.466      5.448
REMARK INTER + INTRA:         -18.899
REMARK INTER:                 -12.240
REMARK INTRA:                  -6.659
REMARK UNBOUND:                -5.307
REMARK SMILES CCCCCCC[C@H](N)[C@H](O)C(=O)N[C@H](C)C(=O)N(C)[C@H](CC(C)C)C(=O)N[C@@H](Cc1ccc(O)cc1)C(=O)N[C@@H](Cc1ccc(O)cc1)C(=O)O
REMARK SMILES IDX 18 1 17 2 15 3 16 4 14 5 12 6 13 7 10 9 11 10 8 12 9 13 7 16
REMARK SMILES IDX 6 17 5 18 4 19 3 20 2 21 1 22 19 23 20 24 21 25 22 26 23 27
REMARK SMILES IDX 24 28 25 29 26 30 27 31 28 32 29 34 30 35 31 36 32 37 37 38
REMARK SMILES IDX 33 39 36 40 34 41 35 42 38 44 39 45 40 46 41 48 42 49 43 50
REMARK SMILES IDX 44 51 49 52 45 53 48 54 46 55 47 56 50 58 51 59 52 60
REMARK H PARENT 14 8 11 11 9 14 9 15 28 33 35 43 40 47 47 57 52 61
ROOT
ATOM      1  O   UNL     1      11.157   6.170  -3.269  1.00  0.00    -0.272 OA
ATOM      2  C   UNL     1       9.999   6.097  -2.832  1.00  0.00     0.245 C 
ENDROOT
BRANCH   2   3
ATOM      3  C   UNL     1       9.720   6.580  -1.386  1.00  0.00     0.168 C 
ATOM      4  C   UNL     1       8.497   7.489  -1.345  1.00  0.00     0.041 C 
BRANCH   3   5
ATOM      5  N   UNL     1       9.643   5.520  -0.393  1.00  0.00    -0.342 N 
ATOM      6  C   UNL     1      10.771   4.995   0.201  1.00  0.00     0.251 C 
ATOM      7  O   UNL     1      11.911   5.343  -0.087  1.00  0.00    -0.272 OA
ATOM      8  H   UNL     1       8.753   5.126  -0.098  1.00  0.00     0.164 HD
BRANCH   6   9
ATOM      9  C   UNL     1      10.442   3.992   1.319  1.00  0.00     0.219 C 
BRANCH   9  10
ATOM     10  O   UNL     1       9.883   4.621   2.478  1.00  0.00    -0.382 OA
ATOM     11  H   UNL     1       8.925   4.411   2.415  1.00  0.00     0.211 HD
ENDBRANCH   9  10
BRANCH   9  12
ATOM     12  C   UNL     1       9.545   2.820   0.841  1.00  0.00     0.089 C 
BRANCH  12  13
ATOM     13  N   UNL     1       8.139   3.282   0.831  1.00  0.00    -0.325 NA
ATOM     14  H   UNL     1       7.565   2.623   1.359  1.00  0.00     0.119 HD
ATOM     15  H   UNL     1       7.783   3.238  -0.127  1.00  0.00     0.119 HD
ENDBRANCH  12  13
BRANCH  12  16
ATOM     16  C   UNL     1       9.912   2.201  -0.529  1.00  0.00     0.022 C 
BRANCH  16  17
ATOM     17  C   UNL     1      10.514   0.790  -0.574  1.00  0.00     0.002 C 
BRANCH  17  18
ATOM     18  C   UNL     1      10.643   0.188  -1.972  1.00  0.00     0.000 C 
BRANCH  18  19
ATOM     19  C   UNL     1       9.426  -0.635  -2.412  1.00  0.00    -0.000 C 
BRANCH  19  20
ATOM     20  C   UNL     1       8.363   0.144  -3.193  1.00  0.00    -0.000 C 
BRANCH  20  21
ATOM     21  C   UNL     1       7.104   0.429  -2.370  1.00  0.00    -0.003 C 
ATOM     22  C   UNL     1       7.148  -0.279  -1.025  1.00  0.00     0.004 C 
ENDBRANCH  20  21
ENDBRANCH  19  20
ENDBRANCH  18  19
ENDBRANCH  17  18
ENDBRANCH  16  17
ENDBRANCH  12  16
ENDBRANCH   9  12
ENDBRANCH   6   9
ENDBRANCH   3   5
ENDBRANCH   2   3
BRANCH   2  23
ATOM     23  N   UNL     1       8.961   5.706  -3.672  1.00  0.00    -0.332 N 
ATOM     24  C   UNL     1       8.458   6.496  -4.786  1.00  0.00     0.147 C 
BRANCH  23  25
ATOM     25  C   UNL     1       8.369   4.346  -3.550  1.00  0.00     0.174 C 
BRANCH  25  26
ATOM     26  C   UNL     1       8.594   3.475  -4.809  1.00  0.00     0.038 C 
BRANCH  26  27
ATOM     27  C   UNL     1      10.026   3.440  -5.388  1.00  0.00    -0.015 C 
ATOM     28  C   UNL     1      10.747   2.126  -5.086  1.00  0.00     0.007 C 
ATOM     29  C   UNL     1      10.085   3.755  -6.881  1.00  0.00     0.007 C 
ENDBRANCH  26  27
ENDBRANCH  25  26
BRANCH  25  30
ATOM     30  C   UNL     1       6.887   4.447  -3.122  1.00  0.00     0.243 C 
ATOM     31  O   UNL     1       6.025   4.911  -3.867  1.00  0.00    -0.273 OA
ATOM     32  N   UNL     1       6.602   3.993  -1.860  1.00  0.00    -0.342 N 
ATOM     33  H   UNL     1       7.340   3.494  -1.357  1.00  0.00     0.164 HD
BRANCH  32  34
ATOM     34  C   UNL     1       5.258   4.037  -1.277  1.00  0.00     0.175 C 
BRANCH  34  35
ATOM     35  C   UNL     1       4.962   2.770  -0.460  1.00  0.00     0.070 C 
BRANCH  35  36
ATOM     36  C   UNL     1       3.952   1.865  -1.129  1.00  0.00    -0.045 A 
ATOM     37  C   UNL     1       3.193   0.970  -0.360  1.00  0.00     0.007 A 
ATOM     38  C   UNL     1       3.776   1.888  -2.519  1.00  0.00     0.007 A 
ATOM     39  C   UNL     1       2.270   0.121  -0.971  1.00  0.00     0.046 A 
ATOM     40  C   UNL     1       2.853   1.038  -3.131  1.00  0.00     0.046 A 
ATOM     41  C   UNL     1       2.106   0.162  -2.350  1.00  0.00     0.115 A 
BRANCH  41  42
ATOM     42  O   UNL     1       1.195  -0.686  -2.908  1.00  0.00    -0.508 OA
ATOM     43  H   UNL     1       1.648  -1.517  -3.128  1.00  0.00     0.293 HD
ENDBRANCH  41  42
ENDBRANCH  35  36
ENDBRANCH  34  35
BRANCH  34  44
ATOM     44  C   UNL     1       5.150   5.317  -0.417  1.00  0.00     0.243 C 
ATOM     45  O   UNL     1       5.168   6.459  -0.868  1.00  0.00    -0.273 OA
ATOM     46  N   UNL     1       5.161   5.069   0.939  1.00  0.00    -0.341 N 
ATOM     47  H   UNL     1       5.265   4.112   1.266  1.00  0.00     0.164 HD
BRANCH  46  48
ATOM     48  C   UNL     1       5.137   6.127   1.952  1.00  0.00     0.196 C 
BRANCH  48  49
ATOM     49  C   UNL     1       4.448   5.652   3.242  1.00  0.00     0.072 C 
BRANCH  49  50
ATOM     50  C   UNL     1       3.013   5.235   3.015  1.00  0.00    -0.045 A 
ATOM     51  C   UNL     1       1.992   6.196   3.047  1.00  0.00     0.007 A 
ATOM     52  C   UNL     1       2.679   3.893   2.793  1.00  0.00     0.007 A 
ATOM     53  C   UNL     1       0.663   5.821   2.853  1.00  0.00     0.046 A 
ATOM     54  C   UNL     1       1.347   3.517   2.599  1.00  0.00     0.046 A 
ATOM     55  C   UNL     1       0.350   4.486   2.630  1.00  0.00     0.115 A 
BRANCH  55  56
ATOM     56  O   UNL     1      -0.961   4.160   2.446  1.00  0.00    -0.508 OA
ATOM     57  H   UNL     1      -1.006   3.254   2.102  1.00  0.00     0.293 HD
ENDBRANCH  55  56
ENDBRANCH  49  50
ENDBRANCH  48  49
BRANCH  48  58
ATOM     58  C   UNL     1       6.579   6.552   2.264  1.00  0.00     0.326 C 
ATOM     59  O   UNL     1       7.606   6.013   1.887  1.00  0.00    -0.250 OA
BRANCH  58  60
ATOM     60  O   UNL     1       6.660   7.663   3.039  1.00  0.00    -0.480 OA
ATOM     61  H   UNL     1       5.724   7.839   3.280  1.00  0.00     0.296 HD
ENDBRANCH  58  60
ENDBRANCH  48  58
ENDBRANCH  46  48
ENDBRANCH  34  44
ENDBRANCH  32  34
ENDBRANCH  25  30
ENDBRANCH  23  25
ENDBRANCH   2  23
TORSDOF 28
ENDMDL
MODEL 30
REMARK VINA RESULT:    -5.454      2.083      6.190
REMARK INTER + INTRA:         -18.892
REMARK INTER:                 -14.706
REMARK INTRA:                  -4.186
REMARK UNBOUND:                -5.307
REMARK SMILES CCCCCCC[C@H](N)[C@H](O)C(=O)N[C@H](C)C(=O)N(C)[C@H](CC(C)C)C(=O)N[C@@H](Cc1ccc(O)cc1)C(=O)N[C@@H](Cc1ccc(O)cc1)C(=O)O
REMARK SMILES IDX 18 1 17 2 15 3 16 4 14 5 12 6 13 7 10 9 11 10 8 12 9 13 7 16
REMARK SMILES IDX 6 17 5 18 4 19 3 20 2 21 1 22 19 23 20 24 21 25 22 26 23 27
REMARK SMILES IDX 24 28 25 29 26 30 27 31 28 32 29 34 30 35 31 36 32 37 37 38
REMARK SMILES IDX 33 39 36 40 34 41 35 42 38 44 39 45 40 46 41 48 42 49 43 50
REMARK SMILES IDX 44 51 49 52 45 53 48 54 46 55 47 56 50 58 51 59 52 60
REMARK H PARENT 14 8 11 11 9 14 9 15 28 33 35 43 40 47 47 57 52 61
ROOT
ATOM      1  O   UNL     1      10.507   3.267   3.170  1.00  0.00    -0.272 OA
ATOM      2  C   UNL     1      10.757   4.288   2.511  1.00  0.00     0.245 C 
ENDROOT
BRANCH   2   3
ATOM      3  C   UNL     1      10.860   4.168   0.970  1.00  0.00     0.168 C 
ATOM      4  C   UNL     1      12.161   4.783   0.465  1.00  0.00     0.041 C 
BRANCH   3   5
ATOM      5  N   UNL     1      10.656   2.826   0.447  1.00  0.00    -0.342 N 
ATOM      6  C   UNL     1       9.542   2.496  -0.296  1.00  0.00     0.251 C 
ATOM      7  O   UNL     1       8.631   3.282  -0.534  1.00  0.00    -0.272 OA
ATOM      8  H   UNL     1      11.327   2.079   0.609  1.00  0.00     0.164 HD
BRANCH   6   9
ATOM      9  C   UNL     1       9.607   1.069  -0.863  1.00  0.00     0.219 C 
BRANCH   9  10
ATOM     10  O   UNL     1      10.281   0.157   0.012  1.00  0.00    -0.382 OA
ATOM     11  H   UNL     1       9.562  -0.187   0.586  1.00  0.00     0.211 HD
ENDBRANCH   9  10
BRANCH   9  12
ATOM     12  C   UNL     1       8.219   0.514  -1.274  1.00  0.00     0.089 C 
BRANCH  12  13
ATOM     13  N   UNL     1       8.403  -0.855  -1.809  1.00  0.00    -0.325 NA
ATOM     14  H   UNL     1       8.952  -0.809  -2.669  1.00  0.00     0.119 HD
ATOM     15  H   UNL     1       7.493  -1.225  -2.094  1.00  0.00     0.119 HD
ENDBRANCH  12  13
BRANCH  12  16
ATOM     16  C   UNL     1       7.135   0.511  -0.170  1.00  0.00     0.022 C 
BRANCH  16  17
ATOM     17  C   UNL     1       5.905   1.415  -0.329  1.00  0.00     0.002 C 
BRANCH  17  18
ATOM     18  C   UNL     1       4.838   0.889  -1.287  1.00  0.00     0.000 C 
BRANCH  18  19
ATOM     19  C   UNL     1       3.513   0.522  -0.605  1.00  0.00    -0.000 C 
BRANCH  19  20
ATOM     20  C   UNL     1       2.472   1.645  -0.560  1.00  0.00    -0.000 C 
BRANCH  20  21
ATOM     21  C   UNL     1       1.047   1.152  -0.823  1.00  0.00    -0.003 C 
ATOM     22  C   UNL     1       0.045   1.836   0.094  1.00  0.00     0.004 C 
ENDBRANCH  20  21
ENDBRANCH  19  20
ENDBRANCH  18  19
ENDBRANCH  17  18
ENDBRANCH  16  17
ENDBRANCH  12  16
ENDBRANCH   9  12
ENDBRANCH   6   9
ENDBRANCH   3   5
ENDBRANCH   2   3
BRANCH   2  23
ATOM     23  N   UNL     1      10.818   5.525   3.143  1.00  0.00    -0.332 N 
ATOM     24  C   UNL     1      11.772   5.875   4.185  1.00  0.00     0.147 C 
BRANCH  23  25
ATOM     25  C   UNL     1       9.956   6.648   2.679  1.00  0.00     0.174 C 
BRANCH  25  26
ATOM     26  C   UNL     1      10.098   7.916   3.554  1.00  0.00     0.038 C 
BRANCH  26  27
ATOM     27  C   UNL     1       9.341   9.178   3.085  1.00  0.00    -0.015 C 
ATOM     28  C   UNL     1       9.355  10.292   4.131  1.00  0.00     0.007 C 
ATOM     29  C   UNL     1       9.817   9.705   1.733  1.00  0.00     0.007 C 
ENDBRANCH  26  27
ENDBRANCH  25  26
BRANCH  25  30
ATOM     30  C   UNL     1       8.497   6.166   2.515  1.00  0.00     0.243 C 
ATOM     31  O   UNL     1       7.887   5.616   3.431  1.00  0.00    -0.273 OA
ATOM     32  N   UNL     1       7.934   6.387   1.285  1.00  0.00    -0.342 N 
ATOM     33  H   UNL     1       8.452   6.973   0.625  1.00  0.00     0.164 HD
BRANCH  32  34
ATOM     34  C   UNL     1       6.571   5.973   0.940  1.00  0.00     0.175 C 
BRANCH  34  35
ATOM     35  C   UNL     1       5.526   6.815   1.689  1.00  0.00     0.070 C 
BRANCH  35  36
ATOM     36  C   UNL     1       4.281   6.029   2.034  1.00  0.00    -0.045 A 
ATOM     37  C   UNL     1       4.162   4.689   1.633  1.00  0.00     0.007 A 
ATOM     38  C   UNL     1       3.225   6.626   2.734  1.00  0.00     0.007 A 
ATOM     39  C   UNL     1       3.012   3.960   1.935  1.00  0.00     0.046 A 
ATOM     40  C   UNL     1       2.072   5.898   3.036  1.00  0.00     0.046 A 
ATOM     41  C   UNL     1       1.977   4.569   2.634  1.00  0.00     0.115 A 
BRANCH  41  42
ATOM     42  O   UNL     1       0.869   3.823   2.907  1.00  0.00    -0.508 OA
ATOM     43  H   UNL     1       0.094   4.284   2.543  1.00  0.00     0.293 HD
ENDBRANCH  41  42
ENDBRANCH  35  36
ENDBRANCH  34  35
BRANCH  34  44
ATOM     44  C   UNL     1       6.410   6.082  -0.593  1.00  0.00     0.243 C 
ATOM     45  O   UNL     1       5.348   6.312  -1.164  1.00  0.00    -0.273 OA
ATOM     46  N   UNL     1       7.558   5.765  -1.289  1.00  0.00    -0.341 N 
ATOM     47  H   UNL     1       8.382   5.467  -0.773  1.00  0.00     0.164 HD
BRANCH  46  48
ATOM     48  C   UNL     1       7.630   5.732  -2.751  1.00  0.00     0.196 C 
BRANCH  48  49
ATOM     49  C   UNL     1       6.649   4.703  -3.337  1.00  0.00     0.072 C 
BRANCH  49  50
ATOM     50  C   UNL     1       7.343   3.455  -3.834  1.00  0.00    -0.045 A 
ATOM     51  C   UNL     1       8.742   3.428  -3.939  1.00  0.00     0.007 A 
ATOM     52  C   UNL     1       6.609   2.325  -4.215  1.00  0.00     0.007 A 
ATOM     53  C   UNL     1       9.393   2.287  -4.409  1.00  0.00     0.046 A 
ATOM     54  C   UNL     1       7.261   1.183  -4.687  1.00  0.00     0.046 A 
ATOM     55  C   UNL     1       8.648   1.174  -4.779  1.00  0.00     0.115 A 
BRANCH  55  56
ATOM     56  O   UNL     1       9.323   0.080  -5.235  1.00  0.00    -0.508 OA
ATOM     57  H   UNL     1      10.256   0.169  -4.983  1.00  0.00     0.293 HD
ENDBRANCH  55  56
ENDBRANCH  49  50
ENDBRANCH  48  49
BRANCH  48  58
ATOM     58  C   UNL     1       7.299   7.128  -3.299  1.00  0.00     0.326 C 
ATOM     59  O   UNL     1       6.792   7.398  -4.375  1.00  0.00    -0.250 OA
BRANCH  58  60
ATOM     60  O   UNL     1       7.616   8.133  -2.445  1.00  0.00    -0.480 OA
ATOM     61  H   UNL     1       6.778   8.287  -1.956  1.00  0.00     0.296 HD
ENDBRANCH  58  60
ENDBRANCH  48  58
ENDBRANCH  46  48
ENDBRANCH  34  44
ENDBRANCH  32  34
ENDBRANCH  25  30
ENDBRANCH  23  25
ENDBRANCH   2  23
TORSDOF 28
ENDMDL
MODEL 31
REMARK VINA RESULT:    -5.443      3.548      7.615
REMARK INTER + INTRA:         -18.863
REMARK INTER:                 -12.743
REMARK INTRA:                  -6.120
REMARK UNBOUND:                -5.307
REMARK SMILES CCCCCCC[C@H](N)[C@H](O)C(=O)N[C@H](C)C(=O)N(C)[C@H](CC(C)C)C(=O)N[C@@H](Cc1ccc(O)cc1)C(=O)N[C@@H](Cc1ccc(O)cc1)C(=O)O
REMARK SMILES IDX 18 1 17 2 15 3 16 4 14 5 12 6 13 7 10 9 11 10 8 12 9 13 7 16
REMARK SMILES IDX 6 17 5 18 4 19 3 20 2 21 1 22 19 23 20 24 21 25 22 26 23 27
REMARK SMILES IDX 24 28 25 29 26 30 27 31 28 32 29 34 30 35 31 36 32 37 37 38
REMARK SMILES IDX 33 39 36 40 34 41 35 42 38 44 39 45 40 46 41 48 42 49 43 50
REMARK SMILES IDX 44 51 49 52 45 53 48 54 46 55 47 56 50 58 51 59 52 60
REMARK H PARENT 14 8 11 11 9 14 9 15 28 33 35 43 40 47 47 57 52 61
ROOT
ATOM      1  O   UNL     1      10.313   5.125  -2.306  1.00  0.00    -0.272 OA
ATOM      2  C   UNL     1      10.736   4.545  -3.316  1.00  0.00     0.245 C 
ENDROOT
BRANCH   2   3
ATOM      3  C   UNL     1      11.435   3.173  -3.145  1.00  0.00     0.168 C 
ATOM      4  C   UNL     1      12.619   3.283  -2.192  1.00  0.00     0.041 C 
BRANCH   3   5
ATOM      5  N   UNL     1      10.549   2.077  -2.784  1.00  0.00    -0.342 N 
ATOM      6  C   UNL     1      10.716   0.807  -3.294  1.00  0.00     0.251 C 
ATOM      7  O   UNL     1      11.584   0.515  -4.110  1.00  0.00    -0.272 OA
ATOM      8  H   UNL     1       9.770   2.206  -2.142  1.00  0.00     0.164 HD
BRANCH   6   9
ATOM      9  C   UNL     1       9.757  -0.217  -2.667  1.00  0.00     0.219 C 
BRANCH   9  10
ATOM     10  O   UNL     1      10.208  -0.687  -1.390  1.00  0.00    -0.382 OA
ATOM     11  H   UNL     1       9.820  -0.043  -0.757  1.00  0.00     0.211 HD
ENDBRANCH   9  10
BRANCH   9  12
ATOM     12  C   UNL     1       8.294   0.291  -2.581  1.00  0.00     0.089 C 
BRANCH  12  13
ATOM     13  N   UNL     1       7.517  -0.337  -3.674  1.00  0.00    -0.325 NA
ATOM     14  H   UNL     1       8.147  -0.884  -4.263  1.00  0.00     0.119 HD
ATOM     15  H   UNL     1       7.151   0.397  -4.284  1.00  0.00     0.119 HD
ENDBRANCH  12  13
BRANCH  12  16
ATOM     16  C   UNL     1       7.579   0.074  -1.226  1.00  0.00     0.022 C 
BRANCH  16  17
ATOM     17  C   UNL     1       7.039   1.291  -0.463  1.00  0.00     0.002 C 
BRANCH  17  18
ATOM     18  C   UNL     1       8.018   1.914   0.530  1.00  0.00     0.000 C 
BRANCH  18  19
ATOM     19  C   UNL     1       8.832   3.081  -0.044  1.00  0.00    -0.000 C 
BRANCH  19  20
ATOM     20  C   UNL     1       8.785   4.373   0.778  1.00  0.00    -0.000 C 
BRANCH  20  21
ATOM     21  C   UNL     1       8.342   4.146   2.226  1.00  0.00    -0.003 C 
ATOM     22  C   UNL     1       8.944   5.185   3.159  1.00  0.00     0.004 C 
ENDBRANCH  20  21
ENDBRANCH  19  20
ENDBRANCH  18  19
ENDBRANCH  17  18
ENDBRANCH  16  17
ENDBRANCH  12  16
ENDBRANCH   9  12
ENDBRANCH   6   9
ENDBRANCH   3   5
ENDBRANCH   2   3
BRANCH   2  23
ATOM     23  N   UNL     1      10.474   5.066  -4.579  1.00  0.00    -0.332 N 
ATOM     24  C   UNL     1      11.465   5.707  -5.430  1.00  0.00     0.147 C 
BRANCH  23  25
ATOM     25  C   UNL     1       9.137   4.877  -5.206  1.00  0.00     0.174 C 
BRANCH  25  26
ATOM     26  C   UNL     1       9.220   4.287  -6.634  1.00  0.00     0.038 C 
BRANCH  26  27
ATOM     27  C   UNL     1       8.299   3.087  -6.950  1.00  0.00    -0.015 C 
ATOM     28  C   UNL     1       8.113   2.873  -8.451  1.00  0.00     0.007 C 
ATOM     29  C   UNL     1       8.736   1.791  -6.273  1.00  0.00     0.007 C 
ENDBRANCH  26  27
ENDBRANCH  25  26
BRANCH  25  30
ATOM     30  C   UNL     1       8.320   6.187  -5.122  1.00  0.00     0.243 C 
ATOM     31  O   UNL     1       7.793   6.689  -6.114  1.00  0.00    -0.273 OA
ATOM     32  N   UNL     1       8.229   6.750  -3.876  1.00  0.00    -0.342 N 
ATOM     33  H   UNL     1       8.571   6.202  -3.082  1.00  0.00     0.164 HD
BRANCH  32  34
ATOM     34  C   UNL     1       7.518   8.004  -3.613  1.00  0.00     0.175 C 
BRANCH  34  35
ATOM     35  C   UNL     1       6.025   7.755  -3.346  1.00  0.00     0.070 C 
BRANCH  35  36
ATOM     36  C   UNL     1       5.788   6.752  -2.240  1.00  0.00    -0.045 A 
ATOM     37  C   UNL     1       5.607   5.396  -2.549  1.00  0.00     0.007 A 
ATOM     38  C   UNL     1       5.723   7.161  -0.901  1.00  0.00     0.007 A 
ATOM     39  C   UNL     1       5.374   4.465  -1.537  1.00  0.00     0.046 A 
ATOM     40  C   UNL     1       5.488   6.229   0.114  1.00  0.00     0.046 A 
ATOM     41  C   UNL     1       5.317   4.888  -0.214  1.00  0.00     0.115 A 
BRANCH  41  42
ATOM     42  O   UNL     1       5.084   3.948   0.745  1.00  0.00    -0.508 OA
ATOM     43  H   UNL     1       5.937   3.694   1.136  1.00  0.00     0.293 HD
ENDBRANCH  41  42
ENDBRANCH  35  36
ENDBRANCH  34  35
BRANCH  34  44
ATOM     44  C   UNL     1       8.208   8.705  -2.421  1.00  0.00     0.243 C 
ATOM     45  O   UNL     1       8.017   9.874  -2.097  1.00  0.00    -0.273 OA
ATOM     46  N   UNL     1       9.176   7.931  -1.815  1.00  0.00    -0.341 N 
ATOM     47  H   UNL     1       9.380   7.010  -2.194  1.00  0.00     0.164 HD
BRANCH  46  48
ATOM     48  C   UNL     1      10.010   8.405  -0.708  1.00  0.00     0.196 C 
BRANCH  48  49
ATOM     49  C   UNL     1       9.418   8.002   0.652  1.00  0.00     0.072 C 
BRANCH  49  50
ATOM     50  C   UNL     1       9.399   9.146   1.641  1.00  0.00    -0.045 A 
ATOM     51  C   UNL     1       9.479  10.468   1.181  1.00  0.00     0.007 A 
ATOM     52  C   UNL     1       9.325   8.906   3.019  1.00  0.00     0.007 A 
ATOM     53  C   UNL     1       9.476  11.531   2.085  1.00  0.00     0.046 A 
ATOM     54  C   UNL     1       9.323   9.970   3.924  1.00  0.00     0.046 A 
ATOM     55  C   UNL     1       9.398  11.275   3.448  1.00  0.00     0.115 A 
BRANCH  55  56
ATOM     56  O   UNL     1       9.400  12.341   4.298  1.00  0.00    -0.508 OA
ATOM     57  H   UNL     1      10.050  12.987   3.977  1.00  0.00     0.293 HD
ENDBRANCH  55  56
ENDBRANCH  49  50
ENDBRANCH  48  49
BRANCH  48  58
ATOM     58  C   UNL     1      11.418   7.810  -0.854  1.00  0.00     0.326 C 
ATOM     59  O   UNL     1      12.112   7.331   0.028  1.00  0.00    -0.250 OA
BRANCH  58  60
ATOM     60  O   UNL     1      11.886   7.833  -2.127  1.00  0.00    -0.480 OA
ATOM     61  H   UNL     1      12.459   8.630  -2.143  1.00  0.00     0.296 HD
ENDBRANCH  58  60
ENDBRANCH  48  58
ENDBRANCH  46  48
ENDBRANCH  34  44
ENDBRANCH  32  34
ENDBRANCH  25  30
ENDBRANCH  23  25
ENDBRANCH   2  23
TORSDOF 28
ENDMDL
MODEL 32
REMARK VINA RESULT:    -5.441      5.495     11.407
REMARK INTER + INTRA:         -18.858
REMARK INTER:                 -13.749
REMARK INTRA:                  -5.109
REMARK UNBOUND:                -5.307
REMARK SMILES CCCCCCC[C@H](N)[C@H](O)C(=O)N[C@H](C)C(=O)N(C)[C@H](CC(C)C)C(=O)N[C@@H](Cc1ccc(O)cc1)C(=O)N[C@@H](Cc1ccc(O)cc1)C(=O)O
REMARK SMILES IDX 18 1 17 2 15 3 16 4 14 5 12 6 13 7 10 9 11 10 8 12 9 13 7 16
REMARK SMILES IDX 6 17 5 18 4 19 3 20 2 21 1 22 19 23 20 24 21 25 22 26 23 27
REMARK SMILES IDX 24 28 25 29 26 30 27 31 28 32 29 34 30 35 31 36 32 37 37 38
REMARK SMILES IDX 33 39 36 40 34 41 35 42 38 44 39 45 40 46 41 48 42 49 43 50
REMARK SMILES IDX 44 51 49 52 45 53 48 54 46 55 47 56 50 58 51 59 52 60
REMARK H PARENT 14 8 11 11 9 14 9 15 28 33 35 43 40 47 47 57 52 61
ROOT
ATOM      1  O   UNL     1       9.463   1.633  -6.934  1.00  0.00    -0.272 OA
ATOM      2  C   UNL     1       9.219   1.992  -5.772  1.00  0.00     0.245 C 
ENDROOT
BRANCH   2   3
ATOM      3  C   UNL     1      10.292   1.750  -4.681  1.00  0.00     0.168 C 
ATOM      4  C   UNL     1      11.058   3.033  -4.380  1.00  0.00     0.041 C 
BRANCH   3   5
ATOM      5  N   UNL     1       9.799   1.116  -3.469  1.00  0.00    -0.342 N 
ATOM      6  C   UNL     1      10.567   0.228  -2.746  1.00  0.00     0.251 C 
ATOM      7  O   UNL     1      11.692  -0.124  -3.085  1.00  0.00    -0.272 OA
ATOM      8  H   UNL     1       8.866   1.303  -3.107  1.00  0.00     0.164 HD
BRANCH   6   9
ATOM      9  C   UNL     1       9.899  -0.204  -1.431  1.00  0.00     0.219 C 
BRANCH   9  10
ATOM     10  O   UNL     1      10.669   0.153  -0.277  1.00  0.00    -0.382 OA
ATOM     11  H   UNL     1      11.374  -0.530  -0.249  1.00  0.00     0.211 HD
ENDBRANCH   9  10
BRANCH   9  12
ATOM     12  C   UNL     1       8.438   0.300  -1.296  1.00  0.00     0.089 C 
BRANCH  12  13
ATOM     13  N   UNL     1       7.526  -0.819  -1.626  1.00  0.00    -0.325 NA
ATOM     14  H   UNL     1       7.812  -1.236  -2.514  1.00  0.00     0.119 HD
ATOM     15  H   UNL     1       6.590  -0.444  -1.796  1.00  0.00     0.119 HD
ENDBRANCH  12  13
BRANCH  12  16
ATOM     16  C   UNL     1       8.056   0.913   0.072  1.00  0.00     0.022 C 
BRANCH  16  17
ATOM     17  C   UNL     1       8.172   2.430   0.270  1.00  0.00     0.002 C 
BRANCH  17  18
ATOM     18  C   UNL     1       6.846   3.155   0.489  1.00  0.00     0.000 C 
BRANCH  18  19
ATOM     19  C   UNL     1       6.600   4.315  -0.485  1.00  0.00    -0.000 C 
BRANCH  19  20
ATOM     20  C   UNL     1       5.168   4.858  -0.501  1.00  0.00    -0.000 C 
BRANCH  20  21
ATOM     21  C   UNL     1       4.408   4.581   0.799  1.00  0.00    -0.003 C 
ATOM     22  C   UNL     1       4.527   5.746   1.770  1.00  0.00     0.004 C 
ENDBRANCH  20  21
ENDBRANCH  19  20
ENDBRANCH  18  19
ENDBRANCH  17  18
ENDBRANCH  16  17
ENDBRANCH  12  16
ENDBRANCH   9  12
ENDBRANCH   6   9
ENDBRANCH   3   5
ENDBRANCH   2   3
BRANCH   2  23
ATOM     23  N   UNL     1       8.059   2.706  -5.494  1.00  0.00    -0.332 N 
ATOM     24  C   UNL     1       7.920   4.148  -5.643  1.00  0.00     0.147 C 
BRANCH  23  25
ATOM     25  C   UNL     1       6.805   1.990  -5.133  1.00  0.00     0.174 C 
BRANCH  25  26
ATOM     26  C   UNL     1       6.345   2.274  -3.684  1.00  0.00     0.038 C 
BRANCH  26  27
ATOM     27  C   UNL     1       4.891   1.896  -3.324  1.00  0.00    -0.015 C 
ATOM     28  C   UNL     1       4.763   1.355  -1.900  1.00  0.00     0.007 C 
ATOM     29  C   UNL     1       3.892   3.026  -3.561  1.00  0.00     0.007 C 
ENDBRANCH  26  27
ENDBRANCH  25  26
BRANCH  25  30
ATOM     30  C   UNL     1       6.939   0.485  -5.459  1.00  0.00     0.243 C 
ATOM     31  O   UNL     1       7.309  -0.332  -4.617  1.00  0.00    -0.273 OA
ATOM     32  N   UNL     1       6.625   0.126  -6.744  1.00  0.00    -0.342 N 
ATOM     33  H   UNL     1       6.192   0.835  -7.342  1.00  0.00     0.164 HD
BRANCH  32  34
ATOM     34  C   UNL     1       6.720  -1.250  -7.238  1.00  0.00     0.175 C 
BRANCH  34  35
ATOM     35  C   UNL     1       5.429  -1.678  -7.953  1.00  0.00     0.070 C 
BRANCH  35  36
ATOM     36  C   UNL     1       4.379  -2.201  -7.000  1.00  0.00    -0.045 A 
ATOM     37  C   UNL     1       4.503  -3.489  -6.457  1.00  0.00     0.007 A 
ATOM     38  C   UNL     1       3.262  -1.425  -6.663  1.00  0.00     0.007 A 
ATOM     39  C   UNL     1       3.532  -3.986  -5.587  1.00  0.00     0.046 A 
ATOM     40  C   UNL     1       2.289  -1.923  -5.793  1.00  0.00     0.046 A 
ATOM     41  C   UNL     1       2.434  -3.200  -5.262  1.00  0.00     0.115 A 
BRANCH  41  42
ATOM     42  O   UNL     1       1.506  -3.724  -4.411  1.00  0.00    -0.508 OA
ATOM     43  H   UNL     1       1.307  -4.630  -4.698  1.00  0.00     0.293 HD
ENDBRANCH  41  42
ENDBRANCH  35  36
ENDBRANCH  34  35
BRANCH  34  44
ATOM     44  C   UNL     1       7.952  -1.341  -8.167  1.00  0.00     0.243 C 
ATOM     45  O   UNL     1       9.060  -1.736  -7.814  1.00  0.00    -0.273 OA
ATOM     46  N   UNL     1       7.734  -0.811  -9.421  1.00  0.00    -0.341 N 
ATOM     47  H   UNL     1       6.832  -0.389  -9.629  1.00  0.00     0.164 HD
BRANCH  46  48
ATOM     48  C   UNL     1       8.772  -0.724 -10.451  1.00  0.00     0.196 C 
BRANCH  48  49
ATOM     49  C   UNL     1       8.201  -1.022 -11.848  1.00  0.00     0.072 C 
BRANCH  49  50
ATOM     50  C   UNL     1       8.947  -2.130 -12.556  1.00  0.00    -0.045 A 
ATOM     51  C   UNL     1       8.239  -3.215 -13.096  1.00  0.00     0.007 A 
ATOM     52  C   UNL     1      10.343  -2.105 -12.666  1.00  0.00     0.007 A 
ATOM     53  C   UNL     1       8.917  -4.250 -13.740  1.00  0.00     0.046 A 
ATOM     54  C   UNL     1      11.022  -3.142 -13.309  1.00  0.00     0.046 A 
ATOM     55  C   UNL     1      10.302  -4.206 -13.842  1.00  0.00     0.115 A 
BRANCH  55  56
ATOM     56  O   UNL     1      10.927  -5.238 -14.478  1.00  0.00    -0.508 OA
ATOM     57  H   UNL     1      11.177  -4.943 -15.368  1.00  0.00     0.293 HD
ENDBRANCH  55  56
ENDBRANCH  49  50
ENDBRANCH  48  49
BRANCH  48  58
ATOM     58  C   UNL     1       9.376   0.687 -10.432  1.00  0.00     0.326 C 
ATOM     59  O   UNL     1       8.962   1.676 -11.014  1.00  0.00    -0.250 OA
BRANCH  58  60
ATOM     60  O   UNL     1      10.485   0.790  -9.656  1.00  0.00    -0.480 OA
ATOM     61  H   UNL     1      11.123   1.262 -10.235  1.00  0.00     0.296 HD
ENDBRANCH  58  60
ENDBRANCH  48  58
ENDBRANCH  46  48
ENDBRANCH  34  44
ENDBRANCH  32  34
ENDBRANCH  25  30
ENDBRANCH  23  25
ENDBRANCH   2  23
TORSDOF 28
ENDMDL
MODEL 33
REMARK VINA RESULT:    -5.430      2.943      8.615
REMARK INTER + INTRA:         -18.832
REMARK INTER:                 -13.503
REMARK INTRA:                  -5.328
REMARK UNBOUND:                -5.307
REMARK SMILES CCCCCCC[C@H](N)[C@H](O)C(=O)N[C@H](C)C(=O)N(C)[C@H](CC(C)C)C(=O)N[C@@H](Cc1ccc(O)cc1)C(=O)N[C@@H](Cc1ccc(O)cc1)C(=O)O
REMARK SMILES IDX 18 1 17 2 15 3 16 4 14 5 12 6 13 7 10 9 11 10 8 12 9 13 7 16
REMARK SMILES IDX 6 17 5 18 4 19 3 20 2 21 1 22 19 23 20 24 21 25 22 26 23 27
REMARK SMILES IDX 24 28 25 29 26 30 27 31 28 32 29 34 30 35 31 36 32 37 37 38
REMARK SMILES IDX 33 39 36 40 34 41 35 42 38 44 39 45 40 46 41 48 42 49 43 50
REMARK SMILES IDX 44 51 49 52 45 53 48 54 46 55 47 56 50 58 51 59 52 60
REMARK H PARENT 14 8 11 11 9 14 9 15 28 33 35 43 40 47 47 57 52 61
ROOT
ATOM      1  O   UNL     1       7.513  -0.361  -4.125  1.00  0.00    -0.272 OA
ATOM      2  C   UNL     1       8.226   0.596  -3.787  1.00  0.00     0.245 C 
ENDROOT
BRANCH   2   3
ATOM      3  C   UNL     1       9.291   0.373  -2.685  1.00  0.00     0.168 C 
ATOM      4  C   UNL     1      10.645   0.035  -3.301  1.00  0.00     0.041 C 
BRANCH   3   5
ATOM      5  N   UNL     1       9.393   1.445  -1.708  1.00  0.00    -0.342 N 
ATOM      6  C   UNL     1      10.126   1.306  -0.548  1.00  0.00     0.251 C 
ATOM      7  O   UNL     1      10.707   0.272  -0.235  1.00  0.00    -0.272 OA
ATOM      8  H   UNL     1       8.925   2.339  -1.841  1.00  0.00     0.164 HD
BRANCH   6   9
ATOM      9  C   UNL     1      10.209   2.610   0.262  1.00  0.00     0.219 C 
BRANCH   9  10
ATOM     10  O   UNL     1      10.418   3.762  -0.563  1.00  0.00    -0.382 OA
ATOM     11  H   UNL     1      11.061   4.300  -0.051  1.00  0.00     0.211 HD
ENDBRANCH   9  10
BRANCH   9  12
ATOM     12  C   UNL     1       8.994   2.820   1.203  1.00  0.00     0.089 C 
BRANCH  12  13
ATOM     13  N   UNL     1       8.137   1.614   1.136  1.00  0.00    -0.325 NA
ATOM     14  H   UNL     1       8.664   0.808   1.478  1.00  0.00     0.119 HD
ATOM     15  H   UNL     1       7.936   1.405   0.156  1.00  0.00     0.119 HD
ENDBRANCH  12  13
BRANCH  12  16
ATOM     16  C   UNL     1       9.327   3.154   2.677  1.00  0.00     0.022 C 
BRANCH  16  17
ATOM     17  C   UNL     1      10.290   4.310   2.981  1.00  0.00     0.002 C 
BRANCH  17  18
ATOM     18  C   UNL     1       9.616   5.647   3.285  1.00  0.00     0.000 C 
BRANCH  18  19
ATOM     19  C   UNL     1      10.549   6.687   3.918  1.00  0.00    -0.000 C 
BRANCH  19  20
ATOM     20  C   UNL     1      10.250   8.142   3.545  1.00  0.00    -0.000 C 
BRANCH  20  21
ATOM     21  C   UNL     1       8.766   8.498   3.664  1.00  0.00    -0.003 C 
ATOM     22  C   UNL     1       8.575   9.939   4.109  1.00  0.00     0.004 C 
ENDBRANCH  20  21
ENDBRANCH  19  20
ENDBRANCH  18  19
ENDBRANCH  17  18
ENDBRANCH  16  17
ENDBRANCH  12  16
ENDBRANCH   9  12
ENDBRANCH   6   9
ENDBRANCH   3   5
ENDBRANCH   2   3
BRANCH   2  23
ATOM     23  N   UNL     1       8.145   1.801  -4.476  1.00  0.00    -0.332 N 
ATOM     24  C   UNL     1       9.270   2.460  -5.123  1.00  0.00     0.147 C 
BRANCH  23  25
ATOM     25  C   UNL     1       6.824   2.447  -4.707  1.00  0.00     0.174 C 
BRANCH  25  26
ATOM     26  C   UNL     1       6.770   3.255  -6.025  1.00  0.00     0.038 C 
BRANCH  26  27
ATOM     27  C   UNL     1       6.110   2.566  -7.241  1.00  0.00    -0.015 C 
ATOM     28  C   UNL     1       7.138   1.977  -8.207  1.00  0.00     0.007 C 
ATOM     29  C   UNL     1       5.072   1.516  -6.855  1.00  0.00     0.007 C 
ENDBRANCH  26  27
ENDBRANCH  25  26
BRANCH  25  30
ATOM     30  C   UNL     1       6.405   3.262  -3.462  1.00  0.00     0.243 C 
ATOM     31  O   UNL     1       5.465   2.920  -2.747  1.00  0.00    -0.273 OA
ATOM     32  N   UNL     1       7.145   4.389  -3.214  1.00  0.00    -0.342 N 
ATOM     33  H   UNL     1       7.995   4.530  -3.768  1.00  0.00     0.164 HD
BRANCH  32  34
ATOM     34  C   UNL     1       6.875   5.296  -2.095  1.00  0.00     0.175 C 
BRANCH  34  35
ATOM     35  C   UNL     1       7.111   4.603  -0.745  1.00  0.00     0.070 C 
BRANCH  35  36
ATOM     36  C   UNL     1       6.243   5.164   0.360  1.00  0.00    -0.045 A 
ATOM     37  C   UNL     1       6.717   6.214   1.160  1.00  0.00     0.007 A 
ATOM     38  C   UNL     1       4.972   4.632   0.615  1.00  0.00     0.007 A 
ATOM     39  C   UNL     1       5.930   6.729   2.190  1.00  0.00     0.046 A 
ATOM     40  C   UNL     1       4.183   5.146   1.647  1.00  0.00     0.046 A 
ATOM     41  C   UNL     1       4.670   6.192   2.425  1.00  0.00     0.115 A 
BRANCH  41  42
ATOM     42  O   UNL     1       3.933   6.721   3.443  1.00  0.00    -0.508 OA
ATOM     43  H   UNL     1       3.522   7.543   3.127  1.00  0.00     0.293 HD
ENDBRANCH  41  42
ENDBRANCH  35  36
ENDBRANCH  34  35
BRANCH  34  44
ATOM     44  C   UNL     1       7.768   6.546  -2.266  1.00  0.00     0.243 C 
ATOM     45  O   UNL     1       7.492   7.503  -2.984  1.00  0.00    -0.273 OA
ATOM     46  N   UNL     1       8.988   6.440  -1.632  1.00  0.00    -0.341 N 
ATOM     47  H   UNL     1       9.218   5.577  -1.145  1.00  0.00     0.164 HD
BRANCH  46  48
ATOM     48  C   UNL     1      10.027   7.469  -1.707  1.00  0.00     0.196 C 
BRANCH  48  49
ATOM     49  C   UNL     1      10.262   8.130  -0.338  1.00  0.00     0.072 C 
BRANCH  49  50
ATOM     50  C   UNL     1       9.870   9.590  -0.322  1.00  0.00    -0.045 A 
ATOM     51  C   UNL     1       9.318  10.178  -1.469  1.00  0.00     0.007 A 
ATOM     52  C   UNL     1      10.068  10.377   0.820  1.00  0.00     0.007 A 
ATOM     53  C   UNL     1       8.964  11.528  -1.470  1.00  0.00     0.046 A 
ATOM     54  C   UNL     1       9.716  11.728   0.818  1.00  0.00     0.046 A 
ATOM     55  C   UNL     1       9.165  12.292  -0.327  1.00  0.00     0.115 A 
BRANCH  55  56
ATOM     56  O   UNL     1       8.809  13.607  -0.370  1.00  0.00    -0.508 OA
ATOM     57  H   UNL     1       9.551  14.114  -0.735  1.00  0.00     0.293 HD
ENDBRANCH  55  56
ENDBRANCH  49  50
ENDBRANCH  48  49
BRANCH  48  58
ATOM     58  C   UNL     1      11.332   6.826  -2.198  1.00  0.00     0.326 C 
ATOM     59  O   UNL     1      12.461   7.276  -2.096  1.00  0.00    -0.250 OA
BRANCH  58  60
ATOM     60  O   UNL     1      11.150   5.620  -2.793  1.00  0.00    -0.480 OA
ATOM     61  H   UNL     1      10.737   5.852  -3.653  1.00  0.00     0.296 HD
ENDBRANCH  58  60
ENDBRANCH  48  58
ENDBRANCH  46  48
ENDBRANCH  34  44
ENDBRANCH  32  34
ENDBRANCH  25  30
ENDBRANCH  23  25
ENDBRANCH   2  23
TORSDOF 28
ENDMDL
MODEL 34
REMARK VINA RESULT:    -5.428      2.807      7.164
REMARK INTER + INTRA:         -18.827
REMARK INTER:                 -13.149
REMARK INTRA:                  -5.678
REMARK UNBOUND:                -5.307
REMARK SMILES CCCCCCC[C@H](N)[C@H](O)C(=O)N[C@H](C)C(=O)N(C)[C@H](CC(C)C)C(=O)N[C@@H](Cc1ccc(O)cc1)C(=O)N[C@@H](Cc1ccc(O)cc1)C(=O)O
REMARK SMILES IDX 18 1 17 2 15 3 16 4 14 5 12 6 13 7 10 9 11 10 8 12 9 13 7 16
REMARK SMILES IDX 6 17 5 18 4 19 3 20 2 21 1 22 19 23 20 24 21 25 22 26 23 27
REMARK SMILES IDX 24 28 25 29 26 30 27 31 28 32 29 34 30 35 31 36 32 37 37 38
REMARK SMILES IDX 33 39 36 40 34 41 35 42 38 44 39 45 40 46 41 48 42 49 43 50
REMARK SMILES IDX 44 51 49 52 45 53 48 54 46 55 47 56 50 58 51 59 52 60
REMARK H PARENT 14 8 11 11 9 14 9 15 28 33 35 43 40 47 47 57 52 61
ROOT
ATOM      1  O   UNL     1       9.137   4.810   3.376  1.00  0.00    -0.272 OA
ATOM      2  C   UNL     1       9.230   6.038   3.227  1.00  0.00     0.245 C 
ENDROOT
BRANCH   2   3
ATOM      3  C   UNL     1       7.937   6.889   3.262  1.00  0.00     0.168 C 
ATOM      4  C   UNL     1       8.264   8.362   3.484  1.00  0.00     0.041 C 
BRANCH   3   5
ATOM      5  N   UNL     1       7.047   6.696   2.128  1.00  0.00    -0.342 N 
ATOM      6  C   UNL     1       5.822   6.078   2.261  1.00  0.00     0.251 C 
ATOM      7  O   UNL     1       5.410   5.612   3.319  1.00  0.00    -0.272 OA
ATOM      8  H   UNL     1       7.295   7.009   1.193  1.00  0.00     0.164 HD
BRANCH   6   9
ATOM      9  C   UNL     1       4.994   6.112   0.966  1.00  0.00     0.219 C 
BRANCH   9  10
ATOM     10  O   UNL     1       5.226   7.296   0.194  1.00  0.00    -0.382 OA
ATOM     11  H   UNL     1       6.044   7.089  -0.308  1.00  0.00     0.211 HD
ENDBRANCH   9  10
BRANCH   9  12
ATOM     12  C   UNL     1       5.176   4.842   0.094  1.00  0.00     0.089 C 
BRANCH  12  13
ATOM     13  N   UNL     1       6.593   4.419   0.173  1.00  0.00    -0.325 NA
ATOM     14  H   UNL     1       6.934   4.209  -0.767  1.00  0.00     0.119 HD
ATOM     15  H   UNL     1       6.645   3.532   0.680  1.00  0.00     0.119 HD
ENDBRANCH  12  13
BRANCH  12  16
ATOM     16  C   UNL     1       4.246   3.651   0.429  1.00  0.00     0.022 C 
BRANCH  16  17
ATOM     17  C   UNL     1       4.322   2.380  -0.428  1.00  0.00     0.002 C 
BRANCH  17  18
ATOM     18  C   UNL     1       3.143   1.423  -0.268  1.00  0.00     0.000 C 
BRANCH  18  19
ATOM     19  C   UNL     1       2.397   1.126  -1.575  1.00  0.00    -0.000 C 
BRANCH  19  20
ATOM     20  C   UNL     1       1.763  -0.265  -1.661  1.00  0.00    -0.000 C 
BRANCH  20  21
ATOM     21  C   UNL     1       0.259  -0.257  -1.374  1.00  0.00    -0.003 C 
ATOM     22  C   UNL     1      -0.409  -1.525  -1.882  1.00  0.00     0.004 C 
ENDBRANCH  20  21
ENDBRANCH  19  20
ENDBRANCH  18  19
ENDBRANCH  17  18
ENDBRANCH  16  17
ENDBRANCH  12  16
ENDBRANCH   9  12
ENDBRANCH   6   9
ENDBRANCH   3   5
ENDBRANCH   2   3
BRANCH   2  23
ATOM     23  N   UNL     1      10.484   6.636   3.154  1.00  0.00    -0.332 N 
ATOM     24  C   UNL     1      11.273   7.044   4.307  1.00  0.00     0.147 C 
BRANCH  23  25
ATOM     25  C   UNL     1      11.170   6.784   1.841  1.00  0.00     0.174 C 
BRANCH  25  26
ATOM     26  C   UNL     1      10.450   7.771   0.893  1.00  0.00     0.038 C 
BRANCH  26  27
ATOM     27  C   UNL     1      10.996   9.215   0.839  1.00  0.00    -0.015 C 
ATOM     28  C   UNL     1      12.007   9.416  -0.289  1.00  0.00     0.007 C 
ATOM     29  C   UNL     1       9.901  10.276   0.774  1.00  0.00     0.007 C 
ENDBRANCH  26  27
ENDBRANCH  25  26
BRANCH  25  30
ATOM     30  C   UNL     1      11.425   5.394   1.215  1.00  0.00     0.243 C 
ATOM     31  O   UNL     1      12.438   4.743   1.468  1.00  0.00    -0.273 OA
ATOM     32  N   UNL     1      10.455   4.942   0.358  1.00  0.00    -0.342 N 
ATOM     33  H   UNL     1       9.581   5.473   0.309  1.00  0.00     0.164 HD
BRANCH  32  34
ATOM     34  C   UNL     1      10.541   3.660  -0.347  1.00  0.00     0.175 C 
BRANCH  34  35
ATOM     35  C   UNL     1       9.764   2.561   0.394  1.00  0.00     0.070 C 
BRANCH  35  36
ATOM     36  C   UNL     1       9.236   1.491  -0.535  1.00  0.00    -0.045 A 
ATOM     37  C   UNL     1       7.868   1.180  -0.542  1.00  0.00     0.007 A 
ATOM     38  C   UNL     1      10.100   0.782  -1.380  1.00  0.00     0.007 A 
ATOM     39  C   UNL     1       7.374   0.185  -1.385  1.00  0.00     0.046 A 
ATOM     40  C   UNL     1       9.607  -0.216  -2.223  1.00  0.00     0.046 A 
ATOM     41  C   UNL     1       8.246  -0.504  -2.219  1.00  0.00     0.115 A 
BRANCH  41  42
ATOM     42  O   UNL     1       7.723  -1.472  -3.026  1.00  0.00    -0.508 OA
ATOM     43  H   UNL     1       7.508  -1.070  -3.883  1.00  0.00     0.293 HD
ENDBRANCH  41  42
ENDBRANCH  35  36
ENDBRANCH  34  35
BRANCH  34  44
ATOM     44  C   UNL     1      10.017   3.869  -1.785  1.00  0.00     0.243 C 
ATOM     45  O   UNL     1      10.722   3.852  -2.790  1.00  0.00    -0.273 OA
ATOM     46  N   UNL     1       8.682   4.211  -1.839  1.00  0.00    -0.341 N 
ATOM     47  H   UNL     1       8.167   4.327  -0.969  1.00  0.00     0.164 HD
BRANCH  46  48
ATOM     48  C   UNL     1       7.979   4.524  -3.085  1.00  0.00     0.196 C 
BRANCH  48  49
ATOM     49  C   UNL     1       6.851   3.516  -3.360  1.00  0.00     0.072 C 
BRANCH  49  50
ATOM     50  C   UNL     1       7.267   2.424  -4.319  1.00  0.00    -0.045 A 
ATOM     51  C   UNL     1       8.574   2.401  -4.828  1.00  0.00     0.007 A 
ATOM     52  C   UNL     1       6.359   1.439  -4.727  1.00  0.00     0.007 A 
ATOM     53  C   UNL     1       8.965   1.406  -5.724  1.00  0.00     0.046 A 
ATOM     54  C   UNL     1       6.751   0.443  -5.625  1.00  0.00     0.046 A 
ATOM     55  C   UNL     1       8.052   0.435  -6.115  1.00  0.00     0.115 A 
BRANCH  55  56
ATOM     56  O   UNL     1       8.474  -0.519  -6.993  1.00  0.00    -0.508 OA
ATOM     57  H   UNL     1       9.442  -0.474  -7.052  1.00  0.00     0.293 HD
ENDBRANCH  55  56
ENDBRANCH  49  50
ENDBRANCH  48  49
BRANCH  48  58
ATOM     58  C   UNL     1       7.393   5.939  -2.986  1.00  0.00     0.326 C 
ATOM     59  O   UNL     1       7.193   6.587  -1.971  1.00  0.00    -0.250 OA
BRANCH  58  60
ATOM     60  O   UNL     1       7.094   6.487  -4.191  1.00  0.00    -0.480 OA
ATOM     61  H   UNL     1       6.206   6.881  -4.046  1.00  0.00     0.296 HD
ENDBRANCH  58  60
ENDBRANCH  48  58
ENDBRANCH  46  48
ENDBRANCH  34  44
ENDBRANCH  32  34
ENDBRANCH  25  30
ENDBRANCH  23  25
ENDBRANCH   2  23
TORSDOF 28
ENDMDL
MODEL 35
REMARK VINA RESULT:    -5.421      3.057      8.591
REMARK INTER + INTRA:         -18.809
REMARK INTER:                 -12.340
REMARK INTRA:                  -6.469
REMARK UNBOUND:                -5.307
REMARK SMILES CCCCCCC[C@H](N)[C@H](O)C(=O)N[C@H](C)C(=O)N(C)[C@H](CC(C)C)C(=O)N[C@@H](Cc1ccc(O)cc1)C(=O)N[C@@H](Cc1ccc(O)cc1)C(=O)O
REMARK SMILES IDX 18 1 17 2 15 3 16 4 14 5 12 6 13 7 10 9 11 10 8 12 9 13 7 16
REMARK SMILES IDX 6 17 5 18 4 19 3 20 2 21 1 22 19 23 20 24 21 25 22 26 23 27
REMARK SMILES IDX 24 28 25 29 26 30 27 31 28 32 29 34 30 35 31 36 32 37 37 38
REMARK SMILES IDX 33 39 36 40 34 41 35 42 38 44 39 45 40 46 41 48 42 49 43 50
REMARK SMILES IDX 44 51 49 52 45 53 48 54 46 55 47 56 50 58 51 59 52 60
REMARK H PARENT 14 8 11 11 9 14 9 15 28 33 35 43 40 47 47 57 52 61
ROOT
ATOM      1  O   UNL     1      11.002   3.133   0.090  1.00  0.00    -0.272 OA
ATOM      2  C   UNL     1      10.649   4.046   0.851  1.00  0.00     0.245 C 
ENDROOT
BRANCH   2   3
ATOM      3  C   UNL     1      11.402   5.398   0.787  1.00  0.00     0.168 C 
ATOM      4  C   UNL     1      12.567   5.322  -0.195  1.00  0.00     0.041 C 
BRANCH   3   5
ATOM      5  N   UNL     1      10.558   6.556   0.539  1.00  0.00    -0.342 N 
ATOM      6  C   UNL     1      10.514   7.624   1.410  1.00  0.00     0.251 C 
ATOM      7  O   UNL     1      11.139   7.663   2.465  1.00  0.00    -0.272 OA
ATOM      8  H   UNL     1       9.968   6.623  -0.286  1.00  0.00     0.164 HD
BRANCH   6   9
ATOM      9  C   UNL     1       9.668   8.792   0.877  1.00  0.00     0.219 C 
BRANCH   9  10
ATOM     10  O   UNL     1       8.556   9.100   1.725  1.00  0.00    -0.382 OA
ATOM     11  H   UNL     1       7.879   9.445   1.102  1.00  0.00     0.211 HD
ENDBRANCH   9  10
BRANCH   9  12
ATOM     12  C   UNL     1      10.505  10.064   0.580  1.00  0.00     0.089 C 
BRANCH  12  13
ATOM     13  N   UNL     1      11.878   9.646   0.219  1.00  0.00    -0.325 NA
ATOM     14  H   UNL     1      12.535  10.379   0.493  1.00  0.00     0.119 HD
ATOM     15  H   UNL     1      11.950   9.591  -0.800  1.00  0.00     0.119 HD
ENDBRANCH  12  13
BRANCH  12  16
ATOM     16  C   UNL     1       9.935  11.012  -0.502  1.00  0.00     0.022 C 
BRANCH  16  17
ATOM     17  C   UNL     1       9.791  10.502  -1.942  1.00  0.00     0.002 C 
BRANCH  17  18
ATOM     18  C   UNL     1       8.360  10.197  -2.378  1.00  0.00     0.000 C 
BRANCH  18  19
ATOM     19  C   UNL     1       8.208   8.877  -3.146  1.00  0.00    -0.000 C 
BRANCH  19  20
ATOM     20  C   UNL     1       9.117   7.740  -2.670  1.00  0.00    -0.000 C 
BRANCH  20  21
ATOM     21  C   UNL     1       8.345   6.471  -2.299  1.00  0.00    -0.003 C 
ATOM     22  C   UNL     1       7.714   5.828  -3.524  1.00  0.00     0.004 C 
ENDBRANCH  20  21
ENDBRANCH  19  20
ENDBRANCH  18  19
ENDBRANCH  17  18
ENDBRANCH  16  17
ENDBRANCH  12  16
ENDBRANCH   9  12
ENDBRANCH   6   9
ENDBRANCH   3   5
ENDBRANCH   2   3
BRANCH   2  23
ATOM     23  N   UNL     1       9.522   3.888   1.651  1.00  0.00    -0.332 N 
ATOM     24  C   UNL     1       9.555   3.587   3.075  1.00  0.00     0.147 C 
BRANCH  23  25
ATOM     25  C   UNL     1       8.165   4.152   1.098  1.00  0.00     0.174 C 
BRANCH  25  26
ATOM     26  C   UNL     1       7.148   4.585   2.180  1.00  0.00     0.038 C 
BRANCH  26  27
ATOM     27  C   UNL     1       5.943   5.431   1.709  1.00  0.00    -0.015 C 
ATOM     28  C   UNL     1       6.339   6.491   0.683  1.00  0.00     0.007 C 
ATOM     29  C   UNL     1       4.777   4.592   1.193  1.00  0.00     0.007 C 
ENDBRANCH  26  27
ENDBRANCH  25  26
BRANCH  25  30
ATOM     30  C   UNL     1       7.694   2.951   0.246  1.00  0.00     0.243 C 
ATOM     31  O   UNL     1       7.533   1.833   0.733  1.00  0.00    -0.273 OA
ATOM     32  N   UNL     1       7.476   3.215  -1.082  1.00  0.00    -0.342 N 
ATOM     33  H   UNL     1       7.495   4.194  -1.380  1.00  0.00     0.164 HD
BRANCH  32  34
ATOM     34  C   UNL     1       7.054   2.193  -2.043  1.00  0.00     0.175 C 
BRANCH  34  35
ATOM     35  C   UNL     1       5.727   2.575  -2.718  1.00  0.00     0.070 C 
BRANCH  35  36
ATOM     36  C   UNL     1       4.570   1.714  -2.262  1.00  0.00    -0.045 A 
ATOM     37  C   UNL     1       3.592   1.309  -3.182  1.00  0.00     0.007 A 
ATOM     38  C   UNL     1       4.444   1.331  -0.920  1.00  0.00     0.007 A 
ATOM     39  C   UNL     1       2.514   0.526  -2.768  1.00  0.00     0.046 A 
ATOM     40  C   UNL     1       3.364   0.549  -0.505  1.00  0.00     0.046 A 
ATOM     41  C   UNL     1       2.408   0.152  -1.434  1.00  0.00     0.115 A 
BRANCH  41  42
ATOM     42  O   UNL     1       1.338  -0.610  -1.070  1.00  0.00    -0.508 OA
ATOM     43  H   UNL     1       0.761  -0.714  -1.845  1.00  0.00     0.293 HD
ENDBRANCH  41  42
ENDBRANCH  35  36
ENDBRANCH  34  35
BRANCH  34  44
ATOM     44  C   UNL     1       8.191   2.004  -3.072  1.00  0.00     0.243 C 
ATOM     45  O   UNL     1       8.022   1.661  -4.238  1.00  0.00    -0.273 OA
ATOM     46  N   UNL     1       9.451   2.129  -2.526  1.00  0.00    -0.341 N 
ATOM     47  H   UNL     1       9.542   2.299  -1.527  1.00  0.00     0.164 HD
BRANCH  46  48
ATOM     48  C   UNL     1      10.684   1.926  -3.290  1.00  0.00     0.196 C 
BRANCH  48  49
ATOM     49  C   UNL     1      11.642   3.120  -3.135  1.00  0.00     0.072 C 
BRANCH  49  50
ATOM     50  C   UNL     1      11.336   4.241  -4.102  1.00  0.00    -0.045 A 
ATOM     51  C   UNL     1      11.896   5.511  -3.900  1.00  0.00     0.007 A 
ATOM     52  C   UNL     1      10.481   4.038  -5.193  1.00  0.00     0.007 A 
ATOM     53  C   UNL     1      11.611   6.556  -4.778  1.00  0.00     0.046 A 
ATOM     54  C   UNL     1      10.194   5.086  -6.072  1.00  0.00     0.046 A 
ATOM     55  C   UNL     1      10.763   6.336  -5.857  1.00  0.00     0.115 A 
BRANCH  55  56
ATOM     56  O   UNL     1      10.508   7.384  -6.691  1.00  0.00    -0.508 OA
ATOM     57  H   UNL     1      11.341   7.856  -6.852  1.00  0.00     0.293 HD
ENDBRANCH  55  56
ENDBRANCH  49  50
ENDBRANCH  48  49
BRANCH  48  58
ATOM     58  C   UNL     1      11.372   0.646  -2.796  1.00  0.00     0.326 C 
ATOM     59  O   UNL     1      11.170  -0.496  -3.176  1.00  0.00    -0.250 OA
BRANCH  58  60
ATOM     60  O   UNL     1      12.310   0.870  -1.841  1.00  0.00    -0.480 OA
ATOM     61  H   UNL     1      11.775   1.080  -1.044  1.00  0.00     0.296 HD
ENDBRANCH  58  60
ENDBRANCH  48  58
ENDBRANCH  46  48
ENDBRANCH  34  44
ENDBRANCH  32  34
ENDBRANCH  25  30
ENDBRANCH  23  25
ENDBRANCH   2  23
TORSDOF 28
ENDMDL
MODEL 36
REMARK VINA RESULT:    -5.418      5.427      9.598
REMARK INTER + INTRA:         -18.801
REMARK INTER:                 -14.670
REMARK INTRA:                  -4.131
REMARK UNBOUND:                -5.307
REMARK SMILES CCCCCCC[C@H](N)[C@H](O)C(=O)N[C@H](C)C(=O)N(C)[C@H](CC(C)C)C(=O)N[C@@H](Cc1ccc(O)cc1)C(=O)N[C@@H](Cc1ccc(O)cc1)C(=O)O
REMARK SMILES IDX 18 1 17 2 15 3 16 4 14 5 12 6 13 7 10 9 11 10 8 12 9 13 7 16
REMARK SMILES IDX 6 17 5 18 4 19 3 20 2 21 1 22 19 23 20 24 21 25 22 26 23 27
REMARK SMILES IDX 24 28 25 29 26 30 27 31 28 32 29 34 30 35 31 36 32 37 37 38
REMARK SMILES IDX 33 39 36 40 34 41 35 42 38 44 39 45 40 46 41 48 42 49 43 50
REMARK SMILES IDX 44 51 49 52 45 53 48 54 46 55 47 56 50 58 51 59 52 60
REMARK H PARENT 14 8 11 11 9 14 9 15 28 33 35 43 40 47 47 57 52 61
ROOT
ATOM      1  O   UNL     1       8.952  -0.125  -6.547  1.00  0.00    -0.272 OA
ATOM      2  C   UNL     1       8.691   0.670  -5.632  1.00  0.00     0.245 C 
ENDROOT
BRANCH   2   3
ATOM      3  C   UNL     1       9.486   0.561  -4.307  1.00  0.00     0.168 C 
ATOM      4  C   UNL     1      10.759   1.397  -4.369  1.00  0.00     0.041 C 
BRANCH   3   5
ATOM      5  N   UNL     1       8.713   0.839  -3.106  1.00  0.00    -0.342 N 
ATOM      6  C   UNL     1       8.267  -0.168  -2.278  1.00  0.00     0.251 C 
ATOM      7  O   UNL     1       8.447  -1.360  -2.505  1.00  0.00    -0.272 OA
ATOM      8  H   UNL     1       8.471   1.789  -2.833  1.00  0.00     0.164 HD
BRANCH   6   9
ATOM      9  C   UNL     1       7.598   0.365  -1.000  1.00  0.00     0.219 C 
BRANCH   9  10
ATOM     10  O   UNL     1       6.886  -0.652  -0.284  1.00  0.00    -0.382 OA
ATOM     11  H   UNL     1       7.212  -0.556   0.637  1.00  0.00     0.211 HD
ENDBRANCH   9  10
BRANCH   9  12
ATOM     12  C   UNL     1       8.584   1.111  -0.063  1.00  0.00     0.089 C 
BRANCH  12  13
ATOM     13  N   UNL     1       9.931   0.523  -0.239  1.00  0.00    -0.325 NA
ATOM     14  H   UNL     1       9.973   0.043  -1.140  1.00  0.00     0.119 HD
ATOM     15  H   UNL     1      10.067  -0.210   0.461  1.00  0.00     0.119 HD
ENDBRANCH  12  13
BRANCH  12  16
ATOM     16  C   UNL     1       8.648   2.647  -0.232  1.00  0.00     0.022 C 
BRANCH  16  17
ATOM     17  C   UNL     1      10.006   3.315  -0.485  1.00  0.00     0.002 C 
BRANCH  17  18
ATOM     18  C   UNL     1      10.182   4.685   0.165  1.00  0.00     0.000 C 
BRANCH  18  19
ATOM     19  C   UNL     1       8.958   5.163   0.957  1.00  0.00    -0.000 C 
BRANCH  19  20
ATOM     20  C   UNL     1       9.181   5.322   2.464  1.00  0.00    -0.000 C 
BRANCH  20  21
ATOM     21  C   UNL     1      10.379   4.522   2.981  1.00  0.00    -0.003 C 
ATOM     22  C   UNL     1       9.950   3.164   3.516  1.00  0.00     0.004 C 
ENDBRANCH  20  21
ENDBRANCH  19  20
ENDBRANCH  18  19
ENDBRANCH  17  18
ENDBRANCH  16  17
ENDBRANCH  12  16
ENDBRANCH   9  12
ENDBRANCH   6   9
ENDBRANCH   3   5
ENDBRANCH   2   3
BRANCH   2  23
ATOM     23  N   UNL     1       7.791   1.708  -5.848  1.00  0.00    -0.332 N 
ATOM     24  C   UNL     1       8.170   3.082  -6.140  1.00  0.00     0.147 C 
BRANCH  23  25
ATOM     25  C   UNL     1       6.330   1.432  -5.920  1.00  0.00     0.174 C 
BRANCH  25  26
ATOM     26  C   UNL     1       5.706   1.129  -4.538  1.00  0.00     0.038 C 
BRANCH  26  27
ATOM     27  C   UNL     1       4.301   1.711  -4.261  1.00  0.00    -0.015 C 
ATOM     28  C   UNL     1       3.181   0.779  -4.723  1.00  0.00     0.007 C 
ATOM     29  C   UNL     1       4.091   2.124  -2.806  1.00  0.00     0.007 C 
ENDBRANCH  26  27
ENDBRANCH  25  26
BRANCH  25  30
ATOM     30  C   UNL     1       6.045   0.346  -6.983  1.00  0.00     0.243 C 
ATOM     31  O   UNL     1       5.911   0.621  -8.174  1.00  0.00    -0.273 OA
ATOM     32  N   UNL     1       5.946  -0.937  -6.508  1.00  0.00    -0.342 N 
ATOM     33  H   UNL     1       6.210  -1.103  -5.533  1.00  0.00     0.164 HD
BRANCH  32  34
ATOM     34  C   UNL     1       5.654  -2.089  -7.365  1.00  0.00     0.175 C 
BRANCH  34  35
ATOM     35  C   UNL     1       6.945  -2.770  -7.846  1.00  0.00     0.070 C 
BRANCH  35  36
ATOM     36  C   UNL     1       6.933  -3.065  -9.329  1.00  0.00    -0.045 A 
ATOM     37  C   UNL     1       5.950  -2.493 -10.150  1.00  0.00     0.007 A 
ATOM     38  C   UNL     1       7.880  -3.926  -9.898  1.00  0.00     0.007 A 
ATOM     39  C   UNL     1       5.922  -2.771 -11.517  1.00  0.00     0.046 A 
ATOM     40  C   UNL     1       7.853  -4.205 -11.266  1.00  0.00     0.046 A 
ATOM     41  C   UNL     1       6.873  -3.623 -12.064  1.00  0.00     0.115 A 
BRANCH  41  42
ATOM     42  O   UNL     1       6.810  -3.871 -13.404  1.00  0.00    -0.508 OA
ATOM     43  H   UNL     1       6.572  -4.804 -13.530  1.00  0.00     0.293 HD
ENDBRANCH  41  42
ENDBRANCH  35  36
ENDBRANCH  34  35
BRANCH  34  44
ATOM     44  C   UNL     1       4.750  -3.059  -6.571  1.00  0.00     0.243 C 
ATOM     45  O   UNL     1       5.165  -3.981  -5.875  1.00  0.00    -0.273 OA
ATOM     46  N   UNL     1       3.405  -2.881  -6.817  1.00  0.00    -0.341 N 
ATOM     47  H   UNL     1       3.115  -2.179  -7.493  1.00  0.00     0.164 HD
BRANCH  46  48
ATOM     48  C   UNL     1       2.361  -3.725  -6.232  1.00  0.00     0.196 C 
BRANCH  48  49
ATOM     49  C   UNL     1       1.002  -3.006  -6.218  1.00  0.00     0.072 C 
BRANCH  49  50
ATOM     50  C   UNL     1       0.764  -2.237  -4.937  1.00  0.00    -0.045 A 
ATOM     51  C   UNL     1       1.326  -2.691  -3.735  1.00  0.00     0.007 A 
ATOM     52  C   UNL     1      -0.030  -1.084  -4.926  1.00  0.00     0.007 A 
ATOM     53  C   UNL     1       1.103  -1.998  -2.545  1.00  0.00     0.046 A 
ATOM     54  C   UNL     1      -0.254  -0.390  -3.734  1.00  0.00     0.046 A 
ATOM     55  C   UNL     1       0.316  -0.853  -2.554  1.00  0.00     0.115 A 
BRANCH  55  56
ATOM     56  O   UNL     1       0.121  -0.206  -1.369  1.00  0.00    -0.508 OA
ATOM     57  H   UNL     1       0.730   0.548  -1.329  1.00  0.00     0.293 HD
ENDBRANCH  55  56
ENDBRANCH  49  50
ENDBRANCH  48  49
BRANCH  48  58
ATOM     58  C   UNL     1       2.249  -5.020  -7.050  1.00  0.00     0.326 C 
ATOM     59  O   UNL     1       2.388  -6.163  -6.647  1.00  0.00    -0.250 OA
BRANCH  58  60
ATOM     60  O   UNL     1       1.947  -4.810  -8.356  1.00  0.00    -0.480 OA
ATOM     61  H   UNL     1       1.010  -4.519  -8.328  1.00  0.00     0.296 HD
ENDBRANCH  58  60
ENDBRANCH  48  58
ENDBRANCH  46  48
ENDBRANCH  34  44
ENDBRANCH  32  34
ENDBRANCH  25  30
ENDBRANCH  23  25
ENDBRANCH   2  23
TORSDOF 28
ENDMDL
MODEL 37
REMARK VINA RESULT:    -5.390      2.333      6.180
REMARK INTER + INTRA:         -18.733
REMARK INTER:                 -13.251
REMARK INTRA:                  -5.482
REMARK UNBOUND:                -5.307
REMARK SMILES CCCCCCC[C@H](N)[C@H](O)C(=O)N[C@H](C)C(=O)N(C)[C@H](CC(C)C)C(=O)N[C@@H](Cc1ccc(O)cc1)C(=O)N[C@@H](Cc1ccc(O)cc1)C(=O)O
REMARK SMILES IDX 18 1 17 2 15 3 16 4 14 5 12 6 13 7 10 9 11 10 8 12 9 13 7 16
REMARK SMILES IDX 6 17 5 18 4 19 3 20 2 21 1 22 19 23 20 24 21 25 22 26 23 27
REMARK SMILES IDX 24 28 25 29 26 30 27 31 28 32 29 34 30 35 31 36 32 37 37 38
REMARK SMILES IDX 33 39 36 40 34 41 35 42 38 44 39 45 40 46 41 48 42 49 43 50
REMARK SMILES IDX 44 51 49 52 45 53 48 54 46 55 47 56 50 58 51 59 52 60
REMARK H PARENT 14 8 11 11 9 14 9 15 28 33 35 43 40 47 47 57 52 61
ROOT
ATOM      1  O   UNL     1      10.552   3.167   1.509  1.00  0.00    -0.272 OA
ATOM      2  C   UNL     1      10.963   4.257   1.084  1.00  0.00     0.245 C 
ENDROOT
BRANCH   2   3
ATOM      3  C   UNL     1      11.270   4.394  -0.428  1.00  0.00     0.168 C 
ATOM      4  C   UNL     1      12.761   4.613  -0.660  1.00  0.00     0.041 C 
BRANCH   3   5
ATOM      5  N   UNL     1      10.744   3.322  -1.259  1.00  0.00    -0.342 N 
ATOM      6  C   UNL     1      11.539   2.286  -1.700  1.00  0.00     0.251 C 
ATOM      7  O   UNL     1      12.741   2.209  -1.468  1.00  0.00    -0.272 OA
ATOM      8  H   UNL     1       9.768   3.296  -1.546  1.00  0.00     0.164 HD
BRANCH   6   9
ATOM      9  C   UNL     1      10.743   1.198  -2.439  1.00  0.00     0.219 C 
BRANCH   9  10
ATOM     10  O   UNL     1      11.550   0.448  -3.355  1.00  0.00    -0.382 OA
ATOM     11  H   UNL     1      12.348   0.223  -2.828  1.00  0.00     0.211 HD
ENDBRANCH   9  10
BRANCH   9  12
ATOM     12  C   UNL     1       9.972   0.252  -1.481  1.00  0.00     0.089 C 
BRANCH  12  13
ATOM     13  N   UNL     1      10.535   0.405  -0.120  1.00  0.00    -0.325 NA
ATOM     14  H   UNL     1       9.940   1.035   0.420  1.00  0.00     0.119 HD
ATOM     15  H   UNL     1      11.437   0.881  -0.187  1.00  0.00     0.119 HD
ENDBRANCH  12  13
BRANCH  12  16
ATOM     16  C   UNL     1       8.435   0.430  -1.444  1.00  0.00     0.022 C 
BRANCH  16  17
ATOM     17  C   UNL     1       7.824   1.446  -0.469  1.00  0.00     0.002 C 
BRANCH  17  18
ATOM     18  C   UNL     1       6.302   1.399  -0.359  1.00  0.00     0.000 C 
BRANCH  18  19
ATOM     19  C   UNL     1       5.570   2.086  -1.520  1.00  0.00    -0.000 C 
BRANCH  19  20
ATOM     20  C   UNL     1       4.072   1.781  -1.616  1.00  0.00    -0.000 C 
BRANCH  20  21
ATOM     21  C   UNL     1       3.615   0.704  -0.629  1.00  0.00    -0.003 C 
ATOM     22  C   UNL     1       2.117   0.462  -0.726  1.00  0.00     0.004 C 
ENDBRANCH  20  21
ENDBRANCH  19  20
ENDBRANCH  18  19
ENDBRANCH  17  18
ENDBRANCH  16  17
ENDBRANCH  12  16
ENDBRANCH   9  12
ENDBRANCH   6   9
ENDBRANCH   3   5
ENDBRANCH   2   3
BRANCH   2  23
ATOM     23  N   UNL     1      11.023   5.357   1.933  1.00  0.00    -0.332 N 
ATOM     24  C   UNL     1      12.127   5.641   2.839  1.00  0.00     0.147 C 
BRANCH  23  25
ATOM     25  C   UNL     1       9.978   6.415   1.868  1.00  0.00     0.174 C 
BRANCH  25  26
ATOM     26  C   UNL     1       9.910   7.274   3.153  1.00  0.00     0.038 C 
BRANCH  26  27
ATOM     27  C   UNL     1       9.370   8.714   3.004  1.00  0.00    -0.015 C 
ATOM     28  C   UNL     1       9.893   9.408   1.747  1.00  0.00     0.007 C 
ATOM     29  C   UNL     1       7.847   8.800   3.071  1.00  0.00     0.007 C 
ENDBRANCH  26  27
ENDBRANCH  25  26
BRANCH  25  30
ATOM     30  C   UNL     1       8.620   5.797   1.462  1.00  0.00     0.243 C 
ATOM     31  O   UNL     1       7.903   5.212   2.273  1.00  0.00    -0.273 OA
ATOM     32  N   UNL     1       8.276   5.938   0.142  1.00  0.00    -0.342 N 
ATOM     33  H   UNL     1       8.853   6.555  -0.435  1.00  0.00     0.164 HD
BRANCH  32  34
ATOM     34  C   UNL     1       7.040   5.393  -0.426  1.00  0.00     0.175 C 
BRANCH  34  35
ATOM     35  C   UNL     1       5.867   6.371  -0.256  1.00  0.00     0.070 C 
BRANCH  35  36
ATOM     36  C   UNL     1       4.878   5.920   0.795  1.00  0.00    -0.045 A 
ATOM     37  C   UNL     1       4.483   6.803   1.812  1.00  0.00     0.007 A 
ATOM     38  C   UNL     1       4.362   4.617   0.785  1.00  0.00     0.007 A 
ATOM     39  C   UNL     1       3.581   6.392   2.794  1.00  0.00     0.046 A 
ATOM     40  C   UNL     1       3.460   4.204   1.769  1.00  0.00     0.046 A 
ATOM     41  C   UNL     1       3.077   5.097   2.765  1.00  0.00     0.115 A 
BRANCH  41  42
ATOM     42  O   UNL     1       2.201   4.734   3.744  1.00  0.00    -0.508 OA
ATOM     43  H   UNL     1       1.690   3.971   3.428  1.00  0.00     0.293 HD
ENDBRANCH  41  42
ENDBRANCH  35  36
ENDBRANCH  34  35
BRANCH  34  44
ATOM     44  C   UNL     1       7.303   5.060  -1.912  1.00  0.00     0.243 C 
ATOM     45  O   UNL     1       8.345   4.572  -2.340  1.00  0.00    -0.273 OA
ATOM     46  N   UNL     1       6.297   5.484  -2.756  1.00  0.00    -0.341 N 
ATOM     47  H   UNL     1       5.505   5.988  -2.366  1.00  0.00     0.164 HD
BRANCH  46  48
ATOM     48  C   UNL     1       6.354   5.340  -4.212  1.00  0.00     0.196 C 
BRANCH  48  49
ATOM     49  C   UNL     1       5.607   4.080  -4.680  1.00  0.00     0.072 C 
BRANCH  49  50
ATOM     50  C   UNL     1       6.542   2.938  -5.008  1.00  0.00    -0.045 A 
ATOM     51  C   UNL     1       7.869   3.204  -5.375  1.00  0.00     0.007 A 
ATOM     52  C   UNL     1       6.097   1.610  -4.971  1.00  0.00     0.007 A 
ATOM     53  C   UNL     1       8.737   2.159  -5.692  1.00  0.00     0.046 A 
ATOM     54  C   UNL     1       6.966   0.563  -5.290  1.00  0.00     0.046 A 
ATOM     55  C   UNL     1       8.280   0.847  -5.646  1.00  0.00     0.115 A 
BRANCH  55  56
ATOM     56  O   UNL     1       9.159  -0.145  -5.965  1.00  0.00    -0.508 OA
ATOM     57  H   UNL     1       9.988   0.016  -5.487  1.00  0.00     0.293 HD
ENDBRANCH  55  56
ENDBRANCH  49  50
ENDBRANCH  48  49
BRANCH  48  58
ATOM     58  C   UNL     1       5.725   6.582  -4.861  1.00  0.00     0.326 C 
ATOM     59  O   UNL     1       6.075   7.134  -5.891  1.00  0.00    -0.250 OA
BRANCH  58  60
ATOM     60  O   UNL     1       4.660   7.069  -4.177  1.00  0.00    -0.480 OA
ATOM     61  H   UNL     1       5.027   7.852  -3.713  1.00  0.00     0.296 HD
ENDBRANCH  58  60
ENDBRANCH  48  58
ENDBRANCH  46  48
ENDBRANCH  34  44
ENDBRANCH  32  34
ENDBRANCH  25  30
ENDBRANCH  23  25
ENDBRANCH   2  23
TORSDOF 28
ENDMDL
MODEL 38
REMARK VINA RESULT:    -5.390      3.303      7.469
REMARK INTER + INTRA:         -18.731
REMARK INTER:                 -13.120
REMARK INTRA:                  -5.611
REMARK UNBOUND:                -5.307
REMARK SMILES CCCCCCC[C@H](N)[C@H](O)C(=O)N[C@H](C)C(=O)N(C)[C@H](CC(C)C)C(=O)N[C@@H](Cc1ccc(O)cc1)C(=O)N[C@@H](Cc1ccc(O)cc1)C(=O)O
REMARK SMILES IDX 18 1 17 2 15 3 16 4 14 5 12 6 13 7 10 9 11 10 8 12 9 13 7 16
REMARK SMILES IDX 6 17 5 18 4 19 3 20 2 21 1 22 19 23 20 24 21 25 22 26 23 27
REMARK SMILES IDX 24 28 25 29 26 30 27 31 28 32 29 34 30 35 31 36 32 37 37 38
REMARK SMILES IDX 33 39 36 40 34 41 35 42 38 44 39 45 40 46 41 48 42 49 43 50
REMARK SMILES IDX 44 51 49 52 45 53 48 54 46 55 47 56 50 58 51 59 52 60
REMARK H PARENT 14 8 11 11 9 14 9 15 28 33 35 43 40 47 47 57 52 61
ROOT
ATOM      1  O   UNL     1       9.040   8.346  -1.476  1.00  0.00    -0.272 OA
ATOM      2  C   UNL     1       9.946   8.636  -0.680  1.00  0.00     0.245 C 
ENDROOT
BRANCH   2   3
ATOM      3  C   UNL     1       9.580   8.864   0.808  1.00  0.00     0.168 C 
ATOM      4  C   UNL     1       9.886  10.298   1.227  1.00  0.00     0.041 C 
BRANCH   3   5
ATOM      5  N   UNL     1       8.228   8.470   1.173  1.00  0.00    -0.342 N 
ATOM      6  C   UNL     1       7.940   7.205   1.638  1.00  0.00     0.251 C 
ATOM      7  O   UNL     1       8.777   6.314   1.740  1.00  0.00    -0.272 OA
ATOM      8  H   UNL     1       7.444   9.113   1.097  1.00  0.00     0.164 HD
BRANCH   6   9
ATOM      9  C   UNL     1       6.480   7.058   2.095  1.00  0.00     0.219 C 
BRANCH   9  10
ATOM     10  O   UNL     1       5.543   7.480   1.096  1.00  0.00    -0.382 OA
ATOM     11  H   UNL     1       4.697   7.075   1.387  1.00  0.00     0.211 HD
ENDBRANCH   9  10
BRANCH   9  12
ATOM     12  C   UNL     1       6.140   5.631   2.600  1.00  0.00     0.089 C 
BRANCH  12  13
ATOM     13  N   UNL     1       6.944   5.362   3.814  1.00  0.00    -0.325 NA
ATOM     14  H   UNL     1       7.213   4.376   3.827  1.00  0.00     0.119 HD
ATOM     15  H   UNL     1       6.351   5.487   4.638  1.00  0.00     0.119 HD
ENDBRANCH  12  13
BRANCH  12  16
ATOM     16  C   UNL     1       4.644   5.349   2.880  1.00  0.00     0.022 C 
BRANCH  16  17
ATOM     17  C   UNL     1       3.827   4.563   1.846  1.00  0.00     0.002 C 
BRANCH  17  18
ATOM     18  C   UNL     1       2.677   3.741   2.424  1.00  0.00     0.000 C 
BRANCH  18  19
ATOM     19  C   UNL     1       1.289   4.348   2.178  1.00  0.00    -0.000 C 
BRANCH  19  20
ATOM     20  C   UNL     1       0.137   3.341   2.133  1.00  0.00    -0.000 C 
BRANCH  20  21
ATOM     21  C   UNL     1       0.314   2.275   1.048  1.00  0.00    -0.003 C 
ATOM     22  C   UNL     1      -0.793   2.353   0.008  1.00  0.00     0.004 C 
ENDBRANCH  20  21
ENDBRANCH  19  20
ENDBRANCH  18  19
ENDBRANCH  17  18
ENDBRANCH  16  17
ENDBRANCH  12  16
ENDBRANCH   9  12
ENDBRANCH   6   9
ENDBRANCH   3   5
ENDBRANCH   2   3
BRANCH   2  23
ATOM     23  N   UNL     1      11.270   8.632  -1.103  1.00  0.00    -0.332 N 
ATOM     24  C   UNL     1      12.374   8.045  -0.357  1.00  0.00     0.147 C 
BRANCH  23  25
ATOM     25  C   UNL     1      11.628   9.137  -2.457  1.00  0.00     0.174 C 
BRANCH  25  26
ATOM     26  C   UNL     1      10.736  10.314  -2.916  1.00  0.00     0.038 C 
BRANCH  26  27
ATOM     27  C   UNL     1      11.456  11.600  -3.378  1.00  0.00    -0.015 C 
ATOM     28  C   UNL     1      12.482  12.094  -2.359  1.00  0.00     0.007 C 
ATOM     29  C   UNL     1      12.088  11.478  -4.762  1.00  0.00     0.007 C 
ENDBRANCH  26  27
ENDBRANCH  25  26
BRANCH  25  30
ATOM     30  C   UNL     1      11.680   7.967  -3.465  1.00  0.00     0.243 C 
ATOM     31  O   UNL     1      12.533   7.909  -4.351  1.00  0.00    -0.273 OA
ATOM     32  N   UNL     1      10.714   7.007  -3.311  1.00  0.00    -0.342 N 
ATOM     33  H   UNL     1      10.132   7.052  -2.470  1.00  0.00     0.164 HD
BRANCH  32  34
ATOM     34  C   UNL     1      10.593   5.842  -4.191  1.00  0.00     0.175 C 
BRANCH  34  35
ATOM     35  C   UNL     1      11.731   4.839  -3.949  1.00  0.00     0.070 C 
BRANCH  35  36
ATOM     36  C   UNL     1      11.409   3.838  -2.862  1.00  0.00    -0.045 A 
ATOM     37  C   UNL     1      11.158   2.498  -3.194  1.00  0.00     0.007 A 
ATOM     38  C   UNL     1      11.332   4.234  -1.521  1.00  0.00     0.007 A 
ATOM     39  C   UNL     1      10.846   1.570  -2.200  1.00  0.00     0.046 A 
ATOM     40  C   UNL     1      11.019   3.306  -0.525  1.00  0.00     0.046 A 
ATOM     41  C   UNL     1      10.779   1.981  -0.874  1.00  0.00     0.115 A 
BRANCH  41  42
ATOM     42  O   UNL     1      10.468   1.044   0.066  1.00  0.00    -0.508 OA
ATOM     43  H   UNL     1       9.530   1.145   0.298  1.00  0.00     0.293 HD
ENDBRANCH  41  42
ENDBRANCH  35  36
ENDBRANCH  34  35
BRANCH  34  44
ATOM     44  C   UNL     1       9.204   5.206  -3.956  1.00  0.00     0.243 C 
ATOM     45  O   UNL     1       8.662   4.418  -4.726  1.00  0.00    -0.273 OA
ATOM     46  N   UNL     1       8.552   5.706  -2.848  1.00  0.00    -0.341 N 
ATOM     47  H   UNL     1       8.994   6.444  -2.306  1.00  0.00     0.164 HD
BRANCH  46  48
ATOM     48  C   UNL     1       7.197   5.306  -2.462  1.00  0.00     0.196 C 
BRANCH  48  49
ATOM     49  C   UNL     1       7.175   4.693  -1.052  1.00  0.00     0.072 C 
BRANCH  49  50
ATOM     50  C   UNL     1       7.160   3.181  -1.075  1.00  0.00    -0.045 A 
ATOM     51  C   UNL     1       7.146   2.464   0.130  1.00  0.00     0.007 A 
ATOM     52  C   UNL     1       7.180   2.479  -2.286  1.00  0.00     0.007 A 
ATOM     53  C   UNL     1       7.145   1.069   0.122  1.00  0.00     0.046 A 
ATOM     54  C   UNL     1       7.181   1.082  -2.295  1.00  0.00     0.046 A 
ATOM     55  C   UNL     1       7.162   0.389  -1.090  1.00  0.00     0.115 A 
BRANCH  55  56
ATOM     56  O   UNL     1       7.163  -0.974  -1.054  1.00  0.00    -0.508 OA
ATOM     57  H   UNL     1       7.696  -1.261  -0.296  1.00  0.00     0.293 HD
ENDBRANCH  55  56
ENDBRANCH  49  50
ENDBRANCH  48  49
BRANCH  48  58
ATOM     58  C   UNL     1       6.282   6.538  -2.503  1.00  0.00     0.326 C 
ATOM     59  O   UNL     1       5.409   6.784  -3.319  1.00  0.00    -0.250 OA
BRANCH  58  60
ATOM     60  O   UNL     1       6.503   7.410  -1.487  1.00  0.00    -0.480 OA
ATOM     61  H   UNL     1       7.483   7.469  -1.448  1.00  0.00     0.296 HD
ENDBRANCH  58  60
ENDBRANCH  48  58
ENDBRANCH  46  48
ENDBRANCH  34  44
ENDBRANCH  32  34
ENDBRANCH  25  30
ENDBRANCH  23  25
ENDBRANCH   2  23
TORSDOF 28
ENDMDL
MODEL 39
REMARK VINA RESULT:    -5.389      3.034      6.753
REMARK INTER + INTRA:         -18.730
REMARK INTER:                 -13.194
REMARK INTRA:                  -5.536
REMARK UNBOUND:                -5.307
REMARK SMILES CCCCCCC[C@H](N)[C@H](O)C(=O)N[C@H](C)C(=O)N(C)[C@H](CC(C)C)C(=O)N[C@@H](Cc1ccc(O)cc1)C(=O)N[C@@H](Cc1ccc(O)cc1)C(=O)O
REMARK SMILES IDX 18 1 17 2 15 3 16 4 14 5 12 6 13 7 10 9 11 10 8 12 9 13 7 16
REMARK SMILES IDX 6 17 5 18 4 19 3 20 2 21 1 22 19 23 20 24 21 25 22 26 23 27
REMARK SMILES IDX 24 28 25 29 26 30 27 31 28 32 29 34 30 35 31 36 32 37 37 38
REMARK SMILES IDX 33 39 36 40 34 41 35 42 38 44 39 45 40 46 41 48 42 49 43 50
REMARK SMILES IDX 44 51 49 52 45 53 48 54 46 55 47 56 50 58 51 59 52 60
REMARK H PARENT 14 8 11 11 9 14 9 15 28 33 35 43 40 47 47 57 52 61
ROOT
ATOM      1  O   UNL     1       7.566   2.150   0.830  1.00  0.00    -0.272 OA
ATOM      2  C   UNL     1       8.149   1.569  -0.097  1.00  0.00     0.245 C 
ENDROOT
BRANCH   2   3
ATOM      3  C   UNL     1       7.315   0.684  -1.057  1.00  0.00     0.168 C 
ATOM      4  C   UNL     1       5.857   0.631  -0.615  1.00  0.00     0.041 C 
BRANCH   3   5
ATOM      5  N   UNL     1       7.443   1.024  -2.466  1.00  0.00    -0.342 N 
ATOM      6  C   UNL     1       7.747   0.075  -3.419  1.00  0.00     0.251 C 
ATOM      7  O   UNL     1       7.972  -1.102  -3.154  1.00  0.00    -0.272 OA
ATOM      8  H   UNL     1       7.312   1.975  -2.802  1.00  0.00     0.164 HD
BRANCH   6   9
ATOM      9  C   UNL     1       7.689   0.630  -4.851  1.00  0.00     0.219 C 
BRANCH   9  10
ATOM     10  O   UNL     1       7.283  -0.354  -5.809  1.00  0.00    -0.382 OA
ATOM     11  H   UNL     1       8.106  -0.863  -5.981  1.00  0.00     0.211 HD
ENDBRANCH   9  10
BRANCH   9  12
ATOM     12  C   UNL     1       6.821   1.909  -4.973  1.00  0.00     0.089 C 
BRANCH  12  13
ATOM     13  N   UNL     1       7.693   3.028  -5.397  1.00  0.00    -0.325 NA
ATOM     14  H   UNL     1       7.241   3.537  -6.158  1.00  0.00     0.119 HD
ATOM     15  H   UNL     1       8.550   2.644  -5.803  1.00  0.00     0.119 HD
ENDBRANCH  12  13
BRANCH  12  16
ATOM     16  C   UNL     1       5.593   1.808  -5.910  1.00  0.00     0.022 C 
BRANCH  16  17
ATOM     17  C   UNL     1       4.190   1.713  -5.296  1.00  0.00     0.002 C 
BRANCH  17  18
ATOM     18  C   UNL     1       4.156   1.682  -3.769  1.00  0.00     0.000 C 
BRANCH  18  19
ATOM     19  C   UNL     1       2.740   1.655  -3.177  1.00  0.00    -0.000 C 
BRANCH  19  20
ATOM     20  C   UNL     1       2.375   0.371  -2.426  1.00  0.00    -0.000 C 
BRANCH  20  21
ATOM     21  C   UNL     1       1.519   0.626  -1.182  1.00  0.00    -0.003 C 
ATOM     22  C   UNL     1       2.371   1.080  -0.007  1.00  0.00     0.004 C 
ENDBRANCH  20  21
ENDBRANCH  19  20
ENDBRANCH  18  19
ENDBRANCH  17  18
ENDBRANCH  16  17
ENDBRANCH  12  16
ENDBRANCH   9  12
ENDBRANCH   6   9
ENDBRANCH   3   5
ENDBRANCH   2   3
BRANCH   2  23
ATOM     23  N   UNL     1       9.498   1.812  -0.331  1.00  0.00    -0.332 N 
ATOM     24  C   UNL     1      10.486   0.781  -0.613  1.00  0.00     0.147 C 
BRANCH  23  25
ATOM     25  C   UNL     1      10.003   3.208  -0.436  1.00  0.00     0.174 C 
BRANCH  25  26
ATOM     26  C   UNL     1       9.997   3.954   0.919  1.00  0.00     0.038 C 
BRANCH  26  27
ATOM     27  C   UNL     1      11.122   4.986   1.155  1.00  0.00    -0.015 C 
ATOM     28  C   UNL     1      11.583   5.026   2.612  1.00  0.00     0.007 C 
ATOM     29  C   UNL     1      12.315   4.809   0.219  1.00  0.00     0.007 C 
ENDBRANCH  26  27
ENDBRANCH  25  26
BRANCH  25  30
ATOM     30  C   UNL     1       9.257   3.961  -1.562  1.00  0.00     0.243 C 
ATOM     31  O   UNL     1       9.212   3.529  -2.713  1.00  0.00    -0.273 OA
ATOM     32  N   UNL     1       8.658   5.138  -1.193  1.00  0.00    -0.342 N 
ATOM     33  H   UNL     1       8.618   5.356  -0.194  1.00  0.00     0.164 HD
BRANCH  32  34
ATOM     34  C   UNL     1       7.931   5.996  -2.132  1.00  0.00     0.175 C 
BRANCH  34  35
ATOM     35  C   UNL     1       6.462   6.163  -1.715  1.00  0.00     0.070 C 
BRANCH  35  36
ATOM     36  C   UNL     1       6.242   5.921  -0.239  1.00  0.00    -0.045 A 
ATOM     37  C   UNL     1       5.413   4.871   0.185  1.00  0.00     0.007 A 
ATOM     38  C   UNL     1       6.839   6.748   0.722  1.00  0.00     0.007 A 
ATOM     39  C   UNL     1       5.193   4.649   1.545  1.00  0.00     0.046 A 
ATOM     40  C   UNL     1       6.618   6.527   2.084  1.00  0.00     0.046 A 
ATOM     41  C   UNL     1       5.798   5.478   2.483  1.00  0.00     0.115 A 
BRANCH  41  42
ATOM     42  O   UNL     1       5.555   5.229   3.801  1.00  0.00    -0.508 OA
ATOM     43  H   UNL     1       6.400   5.015   4.231  1.00  0.00     0.293 HD
ENDBRANCH  41  42
ENDBRANCH  35  36
ENDBRANCH  34  35
BRANCH  34  44
ATOM     44  C   UNL     1       8.667   7.353  -2.209  1.00  0.00     0.243 C 
ATOM     45  O   UNL     1       8.386   8.251  -2.998  1.00  0.00    -0.273 OA
ATOM     46  N   UNL     1       9.772   7.424  -1.388  1.00  0.00    -0.341 N 
ATOM     47  H   UNL     1      10.033   6.609  -0.838  1.00  0.00     0.164 HD
BRANCH  46  48
ATOM     48  C   UNL     1      10.666   8.584  -1.339  1.00  0.00     0.196 C 
BRANCH  48  49
ATOM     49  C   UNL     1      11.337   8.716   0.039  1.00  0.00     0.072 C 
BRANCH  49  50
ATOM     50  C   UNL     1      10.412   9.299   1.083  1.00  0.00    -0.045 A 
ATOM     51  C   UNL     1      10.049   8.534   2.201  1.00  0.00     0.007 A 
ATOM     52  C   UNL     1       9.891  10.591   0.944  1.00  0.00     0.007 A 
ATOM     53  C   UNL     1       9.186   9.056   3.164  1.00  0.00     0.046 A 
ATOM     54  C   UNL     1       9.026  11.114   1.908  1.00  0.00     0.046 A 
ATOM     55  C   UNL     1       8.682  10.342   3.011  1.00  0.00     0.115 A 
BRANCH  55  56
ATOM     56  O   UNL     1       7.840  10.815   3.974  1.00  0.00    -0.508 OA
ATOM     57  H   UNL     1       7.935  11.779   4.017  1.00  0.00     0.293 HD
ENDBRANCH  55  56
ENDBRANCH  49  50
ENDBRANCH  48  49
BRANCH  48  58
ATOM     58  C   UNL     1      11.741   8.432  -2.423  1.00  0.00     0.326 C 
ATOM     59  O   UNL     1      12.058   9.251  -3.270  1.00  0.00    -0.250 OA
BRANCH  58  60
ATOM     60  O   UNL     1      12.389   7.240  -2.379  1.00  0.00    -0.480 OA
ATOM     61  H   UNL     1      12.440   7.045  -1.418  1.00  0.00     0.296 HD
ENDBRANCH  58  60
ENDBRANCH  48  58
ENDBRANCH  46  48
ENDBRANCH  34  44
ENDBRANCH  32  34
ENDBRANCH  25  30
ENDBRANCH  23  25
ENDBRANCH   2  23
TORSDOF 28
ENDMDL
MODEL 40
REMARK VINA RESULT:    -5.387      2.485      5.989
REMARK INTER + INTRA:         -18.724
REMARK INTER:                 -12.549
REMARK INTRA:                  -6.175
REMARK UNBOUND:                -5.307
REMARK SMILES CCCCCCC[C@H](N)[C@H](O)C(=O)N[C@H](C)C(=O)N(C)[C@H](CC(C)C)C(=O)N[C@@H](Cc1ccc(O)cc1)C(=O)N[C@@H](Cc1ccc(O)cc1)C(=O)O
REMARK SMILES IDX 18 1 17 2 15 3 16 4 14 5 12 6 13 7 10 9 11 10 8 12 9 13 7 16
REMARK SMILES IDX 6 17 5 18 4 19 3 20 2 21 1 22 19 23 20 24 21 25 22 26 23 27
REMARK SMILES IDX 24 28 25 29 26 30 27 31 28 32 29 34 30 35 31 36 32 37 37 38
REMARK SMILES IDX 33 39 36 40 34 41 35 42 38 44 39 45 40 46 41 48 42 49 43 50
REMARK SMILES IDX 44 51 49 52 45 53 48 54 46 55 47 56 50 58 51 59 52 60
REMARK H PARENT 14 8 11 11 9 14 9 15 28 33 35 43 40 47 47 57 52 61
ROOT
ATOM      1  O   UNL     1      12.737   8.066   0.833  1.00  0.00    -0.272 OA
ATOM      2  C   UNL     1      11.815   7.243   0.733  1.00  0.00     0.245 C 
ENDROOT
BRANCH   2   3
ATOM      3  C   UNL     1      11.522   6.622  -0.655  1.00  0.00     0.168 C 
ATOM      4  C   UNL     1      12.251   5.293  -0.819  1.00  0.00     0.041 C 
BRANCH   3   5
ATOM      5  N   UNL     1      10.111   6.512  -0.990  1.00  0.00    -0.342 N 
ATOM      6  C   UNL     1       9.389   7.586  -1.464  1.00  0.00     0.251 C 
ATOM      7  O   UNL     1       9.860   8.710  -1.600  1.00  0.00    -0.272 OA
ATOM      8  H   UNL     1       9.602   5.637  -0.885  1.00  0.00     0.164 HD
BRANCH   6   9
ATOM      9  C   UNL     1       7.961   7.203  -1.885  1.00  0.00     0.219 C 
BRANCH   9  10
ATOM     10  O   UNL     1       7.050   8.307  -1.815  1.00  0.00    -0.382 OA
ATOM     11  H   UNL     1       7.514   9.021  -2.305  1.00  0.00     0.211 HD
ENDBRANCH   9  10
BRANCH   9  12
ATOM     12  C   UNL     1       7.897   6.524  -3.277  1.00  0.00     0.089 C 
BRANCH  12  13
ATOM     13  N   UNL     1       9.205   6.709  -3.948  1.00  0.00    -0.325 NA
ATOM     14  H   UNL     1       9.491   7.686  -3.861  1.00  0.00     0.119 HD
ATOM     15  H   UNL     1       9.087   6.554  -4.952  1.00  0.00     0.119 HD
ENDBRANCH  12  13
BRANCH  12  16
ATOM     16  C   UNL     1       7.503   5.027  -3.284  1.00  0.00     0.022 C 
BRANCH  16  17
ATOM     17  C   UNL     1       7.951   4.142  -4.456  1.00  0.00     0.002 C 
BRANCH  17  18
ATOM     18  C   UNL     1       6.890   3.909  -5.529  1.00  0.00     0.000 C 
BRANCH  18  19
ATOM     19  C   UNL     1       6.640   2.430  -5.850  1.00  0.00    -0.000 C 
BRANCH  19  20
ATOM     20  C   UNL     1       7.452   1.873  -7.023  1.00  0.00    -0.000 C 
BRANCH  20  21
ATOM     21  C   UNL     1       8.242   0.612  -6.662  1.00  0.00    -0.003 C 
ATOM     22  C   UNL     1       8.536   0.551  -5.171  1.00  0.00     0.004 C 
ENDBRANCH  20  21
ENDBRANCH  19  20
ENDBRANCH  18  19
ENDBRANCH  17  18
ENDBRANCH  16  17
ENDBRANCH  12  16
ENDBRANCH   9  12
ENDBRANCH   6   9
ENDBRANCH   3   5
ENDBRANCH   2   3
BRANCH   2  23
ATOM     23  N   UNL     1      11.149   6.803   1.873  1.00  0.00    -0.332 N 
ATOM     24  C   UNL     1      11.647   5.775   2.775  1.00  0.00     0.147 C 
BRANCH  23  25
ATOM     25  C   UNL     1       9.899   7.477   2.319  1.00  0.00     0.174 C 
BRANCH  25  26
ATOM     26  C   UNL     1      10.130   8.463   3.487  1.00  0.00     0.038 C 
BRANCH  26  27
ATOM     27  C   UNL     1       9.636   9.914   3.288  1.00  0.00    -0.015 C 
ATOM     28  C   UNL     1       9.699  10.356   1.826  1.00  0.00     0.007 C 
ATOM     29  C   UNL     1       8.247  10.167   3.866  1.00  0.00     0.007 C 
ENDBRANCH  26  27
ENDBRANCH  25  26
BRANCH  25  30
ATOM     30  C   UNL     1       8.800   6.427   2.600  1.00  0.00     0.243 C 
ATOM     31  O   UNL     1       8.457   6.135   3.745  1.00  0.00    -0.273 OA
ATOM     32  N   UNL     1       8.241   5.842   1.493  1.00  0.00    -0.342 N 
ATOM     33  H   UNL     1       8.476   6.237   0.579  1.00  0.00     0.164 HD
BRANCH  32  34
ATOM     34  C   UNL     1       7.206   4.807   1.569  1.00  0.00     0.175 C 
BRANCH  34  35
ATOM     35  C   UNL     1       6.059   5.091   0.587  1.00  0.00     0.070 C 
BRANCH  35  36
ATOM     36  C   UNL     1       4.698   5.014   1.240  1.00  0.00    -0.045 A 
ATOM     37  C   UNL     1       4.277   6.033   2.107  1.00  0.00     0.007 A 
ATOM     38  C   UNL     1       3.850   3.922   1.009  1.00  0.00     0.007 A 
ATOM     39  C   UNL     1       3.028   5.965   2.725  1.00  0.00     0.046 A 
ATOM     40  C   UNL     1       2.600   3.852   1.629  1.00  0.00     0.046 A 
ATOM     41  C   UNL     1       2.200   4.876   2.481  1.00  0.00     0.115 A 
BRANCH  41  42
ATOM     42  O   UNL     1       0.989   4.846   3.107  1.00  0.00    -0.508 OA
ATOM     43  H   UNL     1       0.456   5.588   2.776  1.00  0.00     0.293 HD
ENDBRANCH  41  42
ENDBRANCH  35  36
ENDBRANCH  34  35
BRANCH  34  44
ATOM     44  C   UNL     1       7.874   3.440   1.297  1.00  0.00     0.243 C 
ATOM     45  O   UNL     1       8.658   2.886   2.063  1.00  0.00    -0.273 OA
ATOM     46  N   UNL     1       7.613   2.943   0.038  1.00  0.00    -0.341 N 
ATOM     47  H   UNL     1       7.052   3.495  -0.605  1.00  0.00     0.164 HD
BRANCH  46  48
ATOM     48  C   UNL     1       8.191   1.697  -0.472  1.00  0.00     0.196 C 
BRANCH  48  49
ATOM     49  C   UNL     1       7.502   1.251  -1.772  1.00  0.00     0.072 C 
BRANCH  49  50
ATOM     50  C   UNL     1       5.995   1.351  -1.696  1.00  0.00    -0.045 A 
ATOM     51  C   UNL     1       5.308   2.227  -2.549  1.00  0.00     0.007 A 
ATOM     52  C   UNL     1       5.268   0.594  -0.768  1.00  0.00     0.007 A 
ATOM     53  C   UNL     1       3.920   2.337  -2.479  1.00  0.00     0.046 A 
ATOM     54  C   UNL     1       3.878   0.706  -0.696  1.00  0.00     0.046 A 
ATOM     55  C   UNL     1       3.215   1.576  -1.554  1.00  0.00     0.115 A 
BRANCH  55  56
ATOM     56  O   UNL     1       1.859   1.715  -1.516  1.00  0.00    -0.508 OA
ATOM     57  H   UNL     1       1.484   0.934  -1.080  1.00  0.00     0.293 HD
ENDBRANCH  55  56
ENDBRANCH  49  50
ENDBRANCH  48  49
BRANCH  48  58
ATOM     58  C   UNL     1       9.689   1.910  -0.730  1.00  0.00     0.326 C 
ATOM     59  O   UNL     1      10.200   2.509  -1.662  1.00  0.00    -0.250 OA
BRANCH  58  60
ATOM     60  O   UNL     1      10.485   1.362   0.222  1.00  0.00    -0.480 OA
ATOM     61  H   UNL     1      11.389   1.616  -0.066  1.00  0.00     0.296 HD
ENDBRANCH  58  60
ENDBRANCH  48  58
ENDBRANCH  46  48
ENDBRANCH  34  44
ENDBRANCH  32  34
ENDBRANCH  25  30
ENDBRANCH  23  25
ENDBRANCH   2  23
TORSDOF 28
ENDMDL
MODEL 41
REMARK VINA RESULT:    -5.368      2.980      6.503
REMARK INTER + INTRA:         -18.677
REMARK INTER:                 -12.607
REMARK INTRA:                  -6.070
REMARK UNBOUND:                -5.307
REMARK SMILES CCCCCCC[C@H](N)[C@H](O)C(=O)N[C@H](C)C(=O)N(C)[C@H](CC(C)C)C(=O)N[C@@H](Cc1ccc(O)cc1)C(=O)N[C@@H](Cc1ccc(O)cc1)C(=O)O
REMARK SMILES IDX 18 1 17 2 15 3 16 4 14 5 12 6 13 7 10 9 11 10 8 12 9 13 7 16
REMARK SMILES IDX 6 17 5 18 4 19 3 20 2 21 1 22 19 23 20 24 21 25 22 26 23 27
REMARK SMILES IDX 24 28 25 29 26 30 27 31 28 32 29 34 30 35 31 36 32 37 37 38
REMARK SMILES IDX 33 39 36 40 34 41 35 42 38 44 39 45 40 46 41 48 42 49 43 50
REMARK SMILES IDX 44 51 49 52 45 53 48 54 46 55 47 56 50 58 51 59 52 60
REMARK H PARENT 14 8 11 11 9 14 9 15 28 33 35 43 40 47 47 57 52 61
ROOT
ATOM      1  O   UNL     1      11.256   3.170  -2.984  1.00  0.00    -0.272 OA
ATOM      2  C   UNL     1      10.232   2.743  -3.538  1.00  0.00     0.245 C 
ENDROOT
BRANCH   2   3
ATOM      3  C   UNL     1       9.763   1.302  -3.218  1.00  0.00     0.168 C 
ATOM      4  C   UNL     1      10.941   0.334  -3.224  1.00  0.00     0.041 C 
BRANCH   3   5
ATOM      5  N   UNL     1       8.963   1.174  -2.010  1.00  0.00    -0.342 N 
ATOM      6  C   UNL     1       7.901   0.297  -1.929  1.00  0.00     0.251 C 
ATOM      7  O   UNL     1       7.528  -0.400  -2.866  1.00  0.00    -0.272 OA
ATOM      8  H   UNL     1       9.156   1.726  -1.178  1.00  0.00     0.164 HD
BRANCH   6   9
ATOM      9  C   UNL     1       7.295   0.227  -0.518  1.00  0.00     0.219 C 
BRANCH   9  10
ATOM     10  O   UNL     1       8.285   0.308   0.514  1.00  0.00    -0.382 OA
ATOM     11  H   UNL     1       7.857  -0.132   1.280  1.00  0.00     0.211 HD
ENDBRANCH   9  10
BRANCH   9  12
ATOM     12  C   UNL     1       6.171   1.270  -0.286  1.00  0.00     0.089 C 
BRANCH  12  13
ATOM     13  N   UNL     1       6.736   2.622  -0.497  1.00  0.00    -0.325 NA
ATOM     14  H   UNL     1       7.031   3.006   0.403  1.00  0.00     0.119 HD
ATOM     15  H   UNL     1       5.994   3.244  -0.823  1.00  0.00     0.119 HD
ENDBRANCH  12  13
BRANCH  12  16
ATOM     16  C   UNL     1       4.892   1.090  -1.139  1.00  0.00     0.022 C 
BRANCH  16  17
ATOM     17  C   UNL     1       3.539   1.520  -0.556  1.00  0.00     0.002 C 
BRANCH  17  18
ATOM     18  C   UNL     1       2.444   0.457  -0.618  1.00  0.00     0.000 C 
BRANCH  18  19
ATOM     19  C   UNL     1       1.940   0.160  -2.036  1.00  0.00    -0.000 C 
BRANCH  19  20
ATOM     20  C   UNL     1       1.335   1.357  -2.775  1.00  0.00    -0.000 C 
BRANCH  20  21
ATOM     21  C   UNL     1       1.751   1.425  -4.247  1.00  0.00    -0.003 C 
ATOM     22  C   UNL     1       3.176   0.931  -4.444  1.00  0.00     0.004 C 
ENDBRANCH  20  21
ENDBRANCH  19  20
ENDBRANCH  18  19
ENDBRANCH  17  18
ENDBRANCH  16  17
ENDBRANCH  12  16
ENDBRANCH   9  12
ENDBRANCH   6   9
ENDBRANCH   3   5
ENDBRANCH   2   3
BRANCH   2  23
ATOM     23  N   UNL     1       9.464   3.591  -4.329  1.00  0.00    -0.332 N 
ATOM     24  C   UNL     1       9.707   3.848  -5.740  1.00  0.00     0.147 C 
BRANCH  23  25
ATOM     25  C   UNL     1       8.226   4.211  -3.783  1.00  0.00     0.174 C 
BRANCH  25  26
ATOM     26  C   UNL     1       7.409   4.969  -4.855  1.00  0.00     0.038 C 
BRANCH  26  27
ATOM     27  C   UNL     1       5.901   5.162  -4.579  1.00  0.00    -0.015 C 
ATOM     28  C   UNL     1       5.297   3.999  -3.792  1.00  0.00     0.007 C 
ATOM     29  C   UNL     1       5.571   6.493  -3.909  1.00  0.00     0.007 C 
ENDBRANCH  26  27
ENDBRANCH  25  26
BRANCH  25  30
ATOM     30  C   UNL     1       8.562   5.064  -2.538  1.00  0.00     0.243 C 
ATOM     31  O   UNL     1       7.929   4.959  -1.488  1.00  0.00    -0.273 OA
ATOM     32  N   UNL     1       9.602   5.945  -2.686  1.00  0.00    -0.342 N 
ATOM     33  H   UNL     1      10.166   5.873  -3.537  1.00  0.00     0.164 HD
BRANCH  32  34
ATOM     34  C   UNL     1      10.042   6.852  -1.623  1.00  0.00     0.175 C 
BRANCH  34  35
ATOM     35  C   UNL     1       8.864   7.651  -1.047  1.00  0.00     0.070 C 
BRANCH  35  36
ATOM     36  C   UNL     1       9.275   9.013  -0.535  1.00  0.00    -0.045 A 
ATOM     37  C   UNL     1       9.610   9.184   0.817  1.00  0.00     0.007 A 
ATOM     38  C   UNL     1       9.307  10.123  -1.391  1.00  0.00     0.007 A 
ATOM     39  C   UNL     1       9.977  10.440   1.300  1.00  0.00     0.046 A 
ATOM     40  C   UNL     1       9.673  11.381  -0.907  1.00  0.00     0.046 A 
ATOM     41  C   UNL     1      10.007  11.528   0.436  1.00  0.00     0.115 A 
BRANCH  41  42
ATOM     42  O   UNL     1      10.368  12.738   0.949  1.00  0.00    -0.508 OA
ATOM     43  H   UNL     1      11.090  12.596   1.584  1.00  0.00     0.293 HD
ENDBRANCH  41  42
ENDBRANCH  35  36
ENDBRANCH  34  35
BRANCH  34  44
ATOM     44  C   UNL     1      10.753   6.010  -0.539  1.00  0.00     0.243 C 
ATOM     45  O   UNL     1      11.921   5.635  -0.606  1.00  0.00    -0.273 OA
ATOM     46  N   UNL     1       9.913   5.595   0.472  1.00  0.00    -0.341 N 
ATOM     47  H   UNL     1       8.926   5.833   0.423  1.00  0.00     0.164 HD
BRANCH  46  48
ATOM     48  C   UNL     1      10.344   4.731   1.574  1.00  0.00     0.196 C 
BRANCH  48  49
ATOM     49  C   UNL     1       9.646   5.112   2.890  1.00  0.00     0.072 C 
BRANCH  49  50
ATOM     50  C   UNL     1       8.254   5.662   2.673  1.00  0.00    -0.045 A 
ATOM     51  C   UNL     1       8.013   7.035   2.832  1.00  0.00     0.007 A 
ATOM     52  C   UNL     1       7.190   4.817   2.333  1.00  0.00     0.007 A 
ATOM     53  C   UNL     1       6.730   7.552   2.647  1.00  0.00     0.046 A 
ATOM     54  C   UNL     1       5.906   5.335   2.149  1.00  0.00     0.046 A 
ATOM     55  C   UNL     1       5.687   6.699   2.307  1.00  0.00     0.115 A 
BRANCH  55  56
ATOM     56  O   UNL     1       4.449   7.244   2.137  1.00  0.00    -0.508 OA
ATOM     57  H   UNL     1       3.824   6.528   1.940  1.00  0.00     0.293 HD
ENDBRANCH  55  56
ENDBRANCH  49  50
ENDBRANCH  48  49
BRANCH  48  58
ATOM     58  C   UNL     1      10.017   3.273   1.222  1.00  0.00     0.326 C 
ATOM     59  O   UNL     1       9.816   2.808   0.112  1.00  0.00    -0.250 OA
BRANCH  58  60
ATOM     60  O   UNL     1       9.974   2.452   2.301  1.00  0.00    -0.480 OA
ATOM     61  H   UNL     1       9.106   2.660   2.709  1.00  0.00     0.296 HD
ENDBRANCH  58  60
ENDBRANCH  48  58
ENDBRANCH  46  48
ENDBRANCH  34  44
ENDBRANCH  32  34
ENDBRANCH  25  30
ENDBRANCH  23  25
ENDBRANCH   2  23
TORSDOF 28
ENDMDL
MODEL 42
REMARK VINA RESULT:    -5.356      3.627      6.341
REMARK INTER + INTRA:         -18.647
REMARK INTER:                 -15.033
REMARK INTRA:                  -3.614
REMARK UNBOUND:                -5.307
REMARK SMILES CCCCCCC[C@H](N)[C@H](O)C(=O)N[C@H](C)C(=O)N(C)[C@H](CC(C)C)C(=O)N[C@@H](Cc1ccc(O)cc1)C(=O)N[C@@H](Cc1ccc(O)cc1)C(=O)O
REMARK SMILES IDX 18 1 17 2 15 3 16 4 14 5 12 6 13 7 10 9 11 10 8 12 9 13 7 16
REMARK SMILES IDX 6 17 5 18 4 19 3 20 2 21 1 22 19 23 20 24 21 25 22 26 23 27
REMARK SMILES IDX 24 28 25 29 26 30 27 31 28 32 29 34 30 35 31 36 32 37 37 38
REMARK SMILES IDX 33 39 36 40 34 41 35 42 38 44 39 45 40 46 41 48 42 49 43 50
REMARK SMILES IDX 44 51 49 52 45 53 48 54 46 55 47 56 50 58 51 59 52 60
REMARK H PARENT 14 8 11 11 9 14 9 15 28 33 35 43 40 47 47 57 52 61
ROOT
ATOM      1  O   UNL     1       4.470   0.917  -4.072  1.00  0.00    -0.272 OA
ATOM      2  C   UNL     1       5.383   1.064  -4.898  1.00  0.00     0.245 C 
ENDROOT
BRANCH   2   3
ATOM      3  C   UNL     1       5.290   0.310  -6.248  1.00  0.00     0.168 C 
ATOM      4  C   UNL     1       6.478   0.650  -7.142  1.00  0.00     0.041 C 
BRANCH   3   5
ATOM      5  N   UNL     1       5.092  -1.127  -6.132  1.00  0.00    -0.342 N 
ATOM      6  C   UNL     1       3.948  -1.744  -6.594  1.00  0.00     0.251 C 
ATOM      7  O   UNL     1       3.006  -1.136  -7.091  1.00  0.00    -0.272 OA
ATOM      8  H   UNL     1       5.790  -1.732  -5.706  1.00  0.00     0.164 HD
BRANCH   6   9
ATOM      9  C   UNL     1       4.019  -3.276  -6.497  1.00  0.00     0.219 C 
BRANCH   9  10
ATOM     10  O   UNL     1       5.095  -3.728  -5.666  1.00  0.00    -0.382 OA
ATOM     11  H   UNL     1       5.760  -3.008  -5.736  1.00  0.00     0.211 HD
ENDBRANCH   9  10
BRANCH   9  12
ATOM     12  C   UNL     1       2.678  -3.921  -6.061  1.00  0.00     0.089 C 
BRANCH  12  13
ATOM     13  N   UNL     1       2.794  -5.390  -6.215  1.00  0.00    -0.325 NA
ATOM     14  H   UNL     1       3.385  -5.760  -5.469  1.00  0.00     0.119 HD
ATOM     15  H   UNL     1       3.298  -5.593  -7.081  1.00  0.00     0.119 HD
ENDBRANCH  12  13
BRANCH  12  16
ATOM     16  C   UNL     1       2.190  -3.573  -4.634  1.00  0.00     0.022 C 
BRANCH  16  17
ATOM     17  C   UNL     1       1.081  -2.527  -4.458  1.00  0.00     0.002 C 
BRANCH  17  18
ATOM     18  C   UNL     1       1.473  -1.305  -3.630  1.00  0.00     0.000 C 
BRANCH  18  19
ATOM     19  C   UNL     1       1.107  -1.414  -2.144  1.00  0.00    -0.000 C 
BRANCH  19  20
ATOM     20  C   UNL     1       1.580  -0.248  -1.271  1.00  0.00    -0.000 C 
BRANCH  20  21
ATOM     21  C   UNL     1       0.954   1.091  -1.669  1.00  0.00    -0.003 C 
ATOM     22  C   UNL     1      -0.208   1.453  -0.758  1.00  0.00     0.004 C 
ENDBRANCH  20  21
ENDBRANCH  19  20
ENDBRANCH  18  19
ENDBRANCH  17  18
ENDBRANCH  16  17
ENDBRANCH  12  16
ENDBRANCH   9  12
ENDBRANCH   6   9
ENDBRANCH   3   5
ENDBRANCH   2   3
BRANCH   2  23
ATOM     23  N   UNL     1       6.398   1.984  -4.657  1.00  0.00    -0.332 N 
ATOM     24  C   UNL     1       6.396   3.360  -5.130  1.00  0.00     0.147 C 
BRANCH  23  25
ATOM     25  C   UNL     1       7.531   1.633  -3.757  1.00  0.00     0.174 C 
BRANCH  25  26
ATOM     26  C   UNL     1       8.337   0.409  -4.253  1.00  0.00     0.038 C 
BRANCH  26  27
ATOM     27  C   UNL     1       9.865   0.439  -4.029  1.00  0.00    -0.015 C 
ATOM     28  C   UNL     1      10.455   1.837  -4.214  1.00  0.00     0.007 C 
ATOM     29  C   UNL     1      10.295  -0.152  -2.689  1.00  0.00     0.007 C 
ENDBRANCH  26  27
ENDBRANCH  25  26
BRANCH  25  30
ATOM     30  C   UNL     1       7.032   1.499  -2.300  1.00  0.00     0.243 C 
ATOM     31  O   UNL     1       6.741   0.409  -1.810  1.00  0.00    -0.273 OA
ATOM     32  N   UNL     1       6.931   2.673  -1.598  1.00  0.00    -0.342 N 
ATOM     33  H   UNL     1       7.325   3.516  -2.025  1.00  0.00     0.164 HD
BRANCH  32  34
ATOM     34  C   UNL     1       6.451   2.741  -0.215  1.00  0.00     0.175 C 
BRANCH  34  35
ATOM     35  C   UNL     1       7.617   2.885   0.775  1.00  0.00     0.070 C 
BRANCH  35  36
ATOM     36  C   UNL     1       8.840   3.517   0.151  1.00  0.00    -0.045 A 
ATOM     37  C   UNL     1       8.884   4.904  -0.058  1.00  0.00     0.007 A 
ATOM     38  C   UNL     1       9.931   2.734  -0.248  1.00  0.00     0.007 A 
ATOM     39  C   UNL     1      10.002   5.496  -0.646  1.00  0.00     0.046 A 
ATOM     40  C   UNL     1      11.051   3.325  -0.838  1.00  0.00     0.046 A 
ATOM     41  C   UNL     1      11.076   4.702  -1.031  1.00  0.00     0.115 A 
BRANCH  41  42
ATOM     42  O   UNL     1      12.148   5.319  -1.604  1.00  0.00    -0.508 OA
ATOM     43  H   UNL     1      11.972   6.274  -1.631  1.00  0.00     0.293 HD
ENDBRANCH  41  42
ENDBRANCH  35  36
ENDBRANCH  34  35
BRANCH  34  44
ATOM     44  C   UNL     1       5.457   3.919  -0.111  1.00  0.00     0.243 C 
ATOM     45  O   UNL     1       5.046   4.567  -1.070  1.00  0.00    -0.273 OA
ATOM     46  N   UNL     1       5.161   4.275   1.188  1.00  0.00    -0.341 N 
ATOM     47  H   UNL     1       5.618   3.782   1.951  1.00  0.00     0.164 HD
BRANCH  46  48
ATOM     48  C   UNL     1       4.297   5.405   1.537  1.00  0.00     0.196 C 
BRANCH  48  49
ATOM     49  C   UNL     1       3.596   5.177   2.887  1.00  0.00     0.072 C 
BRANCH  49  50
ATOM     50  C   UNL     1       2.282   4.442   2.743  1.00  0.00    -0.045 A 
ATOM     51  C   UNL     1       1.082   5.164   2.667  1.00  0.00     0.007 A 
ATOM     52  C   UNL     1       2.239   3.042   2.705  1.00  0.00     0.007 A 
ATOM     53  C   UNL     1      -0.137   4.497   2.547  1.00  0.00     0.046 A 
ATOM     54  C   UNL     1       1.018   2.374   2.587  1.00  0.00     0.046 A 
ATOM     55  C   UNL     1      -0.160   3.108   2.508  1.00  0.00     0.115 A 
BRANCH  55  56
ATOM     56  O   UNL     1      -1.372   2.494   2.393  1.00  0.00    -0.508 OA
ATOM     57  H   UNL     1      -1.235   1.616   2.003  1.00  0.00     0.293 HD
ENDBRANCH  55  56
ENDBRANCH  49  50
ENDBRANCH  48  49
BRANCH  48  58
ATOM     58  C   UNL     1       5.147   6.681   1.608  1.00  0.00     0.326 C 
ATOM     59  O   UNL     1       5.759   7.108   2.573  1.00  0.00    -0.250 OA
BRANCH  58  60
ATOM     60  O   UNL     1       5.198   7.362   0.436  1.00  0.00    -0.480 OA
ATOM     61  H   UNL     1       5.029   6.668  -0.237  1.00  0.00     0.296 HD
ENDBRANCH  58  60
ENDBRANCH  48  58
ENDBRANCH  46  48
ENDBRANCH  34  44
ENDBRANCH  32  34
ENDBRANCH  25  30
ENDBRANCH  23  25
ENDBRANCH   2  23
TORSDOF 28
ENDMDL
MODEL 43
REMARK VINA RESULT:    -5.345      4.607      6.897
REMARK INTER + INTRA:         -18.619
REMARK INTER:                 -14.399
REMARK INTRA:                  -4.219
REMARK UNBOUND:                -5.307
REMARK SMILES CCCCCCC[C@H](N)[C@H](O)C(=O)N[C@H](C)C(=O)N(C)[C@H](CC(C)C)C(=O)N[C@@H](Cc1ccc(O)cc1)C(=O)N[C@@H](Cc1ccc(O)cc1)C(=O)O
REMARK SMILES IDX 18 1 17 2 15 3 16 4 14 5 12 6 13 7 10 9 11 10 8 12 9 13 7 16
REMARK SMILES IDX 6 17 5 18 4 19 3 20 2 21 1 22 19 23 20 24 21 25 22 26 23 27
REMARK SMILES IDX 24 28 25 29 26 30 27 31 28 32 29 34 30 35 31 36 32 37 37 38
REMARK SMILES IDX 33 39 36 40 34 41 35 42 38 44 39 45 40 46 41 48 42 49 43 50
REMARK SMILES IDX 44 51 49 52 45 53 48 54 46 55 47 56 50 58 51 59 52 60
REMARK H PARENT 14 8 11 11 9 14 9 15 28 33 35 43 40 47 47 57 52 61
ROOT
ATOM      1  O   UNL     1       8.946  -1.187  -2.751  1.00  0.00    -0.272 OA
ATOM      2  C   UNL     1       9.418  -0.042  -2.693  1.00  0.00     0.245 C 
ENDROOT
BRANCH   2   3
ATOM      3  C   UNL     1       9.501   0.792  -3.996  1.00  0.00     0.168 C 
ATOM      4  C   UNL     1      10.907   1.349  -4.194  1.00  0.00     0.041 C 
BRANCH   3   5
ATOM      5  N   UNL     1       9.013   0.116  -5.187  1.00  0.00    -0.342 N 
ATOM      6  C   UNL     1       7.980   0.628  -5.944  1.00  0.00     0.251 C 
ATOM      7  O   UNL     1       7.375   1.655  -5.655  1.00  0.00    -0.272 OA
ATOM      8  H   UNL     1       9.414  -0.763  -5.507  1.00  0.00     0.164 HD
BRANCH   6   9
ATOM      9  C   UNL     1       7.730  -0.176  -7.230  1.00  0.00     0.219 C 
BRANCH   9  10
ATOM     10  O   UNL     1       6.336  -0.337  -7.518  1.00  0.00    -0.382 OA
ATOM     11  H   UNL     1       6.286  -1.225  -7.934  1.00  0.00     0.211 HD
ENDBRANCH   9  10
BRANCH   9  12
ATOM     12  C   UNL     1       8.485   0.391  -8.460  1.00  0.00     0.089 C 
BRANCH  12  13
ATOM     13  N   UNL     1       9.410   1.449  -7.993  1.00  0.00    -0.325 NA
ATOM     14  H   UNL     1       9.740   1.986  -8.798  1.00  0.00     0.119 HD
ATOM     15  H   UNL     1      10.247   1.009  -7.605  1.00  0.00     0.119 HD
ENDBRANCH  12  13
BRANCH  12  16
ATOM     16  C   UNL     1       9.251  -0.642  -9.321  1.00  0.00     0.022 C 
BRANCH  16  17
ATOM     17  C   UNL     1       8.519  -1.341 -10.475  1.00  0.00     0.002 C 
BRANCH  17  18
ATOM     18  C   UNL     1       8.349  -2.850 -10.311  1.00  0.00     0.000 C 
BRANCH  18  19
ATOM     19  C   UNL     1       7.027  -3.394 -10.870  1.00  0.00    -0.000 C 
BRANCH  19  20
ATOM     20  C   UNL     1       6.885  -3.316 -12.392  1.00  0.00    -0.000 C 
BRANCH  20  21
ATOM     21  C   UNL     1       5.625  -4.014 -12.913  1.00  0.00    -0.003 C 
ATOM     22  C   UNL     1       5.239  -3.505 -14.293  1.00  0.00     0.004 C 
ENDBRANCH  20  21
ENDBRANCH  19  20
ENDBRANCH  18  19
ENDBRANCH  17  18
ENDBRANCH  16  17
ENDBRANCH  12  16
ENDBRANCH   9  12
ENDBRANCH   6   9
ENDBRANCH   3   5
ENDBRANCH   2   3
BRANCH   2  23
ATOM     23  N   UNL     1       9.747   0.513  -1.461  1.00  0.00    -0.332 N 
ATOM     24  C   UNL     1      10.922   0.153  -0.681  1.00  0.00     0.147 C 
BRANCH  23  25
ATOM     25  C   UNL     1       8.950   1.642  -0.909  1.00  0.00     0.174 C 
BRANCH  25  26
ATOM     26  C   UNL     1       9.648   2.350   0.276  1.00  0.00     0.038 C 
BRANCH  26  27
ATOM     27  C   UNL     1      10.187   3.775   0.021  1.00  0.00    -0.015 C 
ATOM     28  C   UNL     1       9.566   4.421  -1.217  1.00  0.00     0.007 C 
ATOM     29  C   UNL     1      10.059   4.698   1.230  1.00  0.00     0.007 C 
ENDBRANCH  26  27
ENDBRANCH  25  26
BRANCH  25  30
ATOM     30  C   UNL     1       7.511   1.172  -0.592  1.00  0.00     0.243 C 
ATOM     31  O   UNL     1       7.289   0.156   0.066  1.00  0.00    -0.273 OA
ATOM     32  N   UNL     1       6.506   1.957  -1.095  1.00  0.00    -0.342 N 
ATOM     33  H   UNL     1       6.769   2.856  -1.507  1.00  0.00     0.164 HD
BRANCH  32  34
ATOM     34  C   UNL     1       5.084   1.651  -0.917  1.00  0.00     0.175 C 
BRANCH  34  35
ATOM     35  C   UNL     1       4.354   2.791  -0.190  1.00  0.00     0.070 C 
BRANCH  35  36
ATOM     36  C   UNL     1       5.168   4.064  -0.134  1.00  0.00    -0.045 A 
ATOM     37  C   UNL     1       5.267   4.885  -1.267  1.00  0.00     0.007 A 
ATOM     38  C   UNL     1       5.849   4.431   1.035  1.00  0.00     0.007 A 
ATOM     39  C   UNL     1       6.026   6.054  -1.229  1.00  0.00     0.046 A 
ATOM     40  C   UNL     1       6.611   5.601   1.074  1.00  0.00     0.046 A 
ATOM     41  C   UNL     1       6.691   6.403  -0.060  1.00  0.00     0.115 A 
BRANCH  41  42
ATOM     42  O   UNL     1       7.425   7.553  -0.065  1.00  0.00    -0.508 OA
ATOM     43  H   UNL     1       8.340   7.329  -0.303  1.00  0.00     0.293 HD
ENDBRANCH  41  42
ENDBRANCH  35  36
ENDBRANCH  34  35
BRANCH  34  44
ATOM     44  C   UNL     1       4.477   1.372  -2.310  1.00  0.00     0.243 C 
ATOM     45  O   UNL     1       5.090   0.868  -3.247  1.00  0.00    -0.273 OA
ATOM     46  N   UNL     1       3.197   1.864  -2.460  1.00  0.00    -0.341 N 
ATOM     47  H   UNL     1       2.773   2.379  -1.692  1.00  0.00     0.164 HD
BRANCH  46  48
ATOM     48  C   UNL     1       2.443   1.780  -3.712  1.00  0.00     0.196 C 
BRANCH  48  49
ATOM     49  C   UNL     1       1.021   1.245  -3.474  1.00  0.00     0.072 C 
BRANCH  49  50
ATOM     50  C   UNL     1       0.999  -0.238  -3.180  1.00  0.00    -0.045 A 
ATOM     51  C   UNL     1       0.576  -0.696  -1.924  1.00  0.00     0.007 A 
ATOM     52  C   UNL     1       1.418  -1.170  -4.139  1.00  0.00     0.007 A 
ATOM     53  C   UNL     1       0.565  -2.061  -1.636  1.00  0.00     0.046 A 
ATOM     54  C   UNL     1       1.407  -2.536  -3.851  1.00  0.00     0.046 A 
ATOM     55  C   UNL     1       0.980  -2.970  -2.601  1.00  0.00     0.115 A 
BRANCH  55  56
ATOM     56  O   UNL     1       0.955  -4.295  -2.280  1.00  0.00    -0.508 OA
ATOM     57  H   UNL     1       1.431  -4.416  -1.443  1.00  0.00     0.293 HD
ENDBRANCH  55  56
ENDBRANCH  49  50
ENDBRANCH  48  49
BRANCH  48  58
ATOM     58  C   UNL     1       2.367   3.177  -4.344  1.00  0.00     0.326 C 
ATOM     59  O   UNL     1       3.275   3.799  -4.873  1.00  0.00    -0.250 OA
BRANCH  58  60
ATOM     60  O   UNL     1       1.128   3.728  -4.294  1.00  0.00    -0.480 OA
ATOM     61  H   UNL     1       0.668   3.319  -5.058  1.00  0.00     0.296 HD
ENDBRANCH  58  60
ENDBRANCH  48  58
ENDBRANCH  46  48
ENDBRANCH  34  44
ENDBRANCH  32  34
ENDBRANCH  25  30
ENDBRANCH  23  25
ENDBRANCH   2  23
TORSDOF 28
ENDMDL
MODEL 44
REMARK VINA RESULT:    -5.331      4.688      9.872
REMARK INTER + INTRA:         -18.584
REMARK INTER:                 -14.487
REMARK INTRA:                  -4.097
REMARK UNBOUND:                -5.307
REMARK SMILES CCCCCCC[C@H](N)[C@H](O)C(=O)N[C@H](C)C(=O)N(C)[C@H](CC(C)C)C(=O)N[C@@H](Cc1ccc(O)cc1)C(=O)N[C@@H](Cc1ccc(O)cc1)C(=O)O
REMARK SMILES IDX 18 1 17 2 15 3 16 4 14 5 12 6 13 7 10 9 11 10 8 12 9 13 7 16
REMARK SMILES IDX 6 17 5 18 4 19 3 20 2 21 1 22 19 23 20 24 21 25 22 26 23 27
REMARK SMILES IDX 24 28 25 29 26 30 27 31 28 32 29 34 30 35 31 36 32 37 37 38
REMARK SMILES IDX 33 39 36 40 34 41 35 42 38 44 39 45 40 46 41 48 42 49 43 50
REMARK SMILES IDX 44 51 49 52 45 53 48 54 46 55 47 56 50 58 51 59 52 60
REMARK H PARENT 14 8 11 11 9 14 9 15 28 33 35 43 40 47 47 57 52 61
ROOT
ATOM      1  O   UNL     1       7.042  -0.737  -5.282  1.00  0.00    -0.272 OA
ATOM      2  C   UNL     1       6.421  -0.262  -6.244  1.00  0.00     0.245 C 
ENDROOT
BRANCH   2   3
ATOM      3  C   UNL     1       7.089  -0.286  -7.642  1.00  0.00     0.168 C 
ATOM      4  C   UNL     1       7.981   0.935  -7.836  1.00  0.00     0.041 C 
BRANCH   3   5
ATOM      5  N   UNL     1       7.783  -1.522  -7.967  1.00  0.00    -0.342 N 
ATOM      6  C   UNL     1       7.109  -2.639  -8.414  1.00  0.00     0.251 C 
ATOM      7  O   UNL     1       5.889  -2.692  -8.531  1.00  0.00    -0.272 OA
ATOM      8  H   UNL     1       8.792  -1.610  -7.875  1.00  0.00     0.164 HD
BRANCH   6   9
ATOM      9  C   UNL     1       8.055  -3.777  -8.830  1.00  0.00     0.219 C 
BRANCH   9  10
ATOM     10  O   UNL     1       7.762  -5.011  -8.163  1.00  0.00    -0.382 OA
ATOM     11  H   UNL     1       8.307  -4.967  -7.346  1.00  0.00     0.211 HD
ENDBRANCH   9  10
BRANCH   9  12
ATOM     12  C   UNL     1       8.122  -3.983 -10.366  1.00  0.00     0.089 C 
BRANCH  12  13
ATOM     13  N   UNL     1       6.738  -4.031 -10.891  1.00  0.00    -0.325 NA
ATOM     14  H   UNL     1       6.768  -4.117 -11.909  1.00  0.00     0.119 HD
ATOM     15  H   UNL     1       6.285  -3.131 -10.713  1.00  0.00     0.119 HD
ENDBRANCH  12  13
BRANCH  12  16
ATOM     16  C   UNL     1       8.954  -2.943 -11.154  1.00  0.00     0.022 C 
BRANCH  16  17
ATOM     17  C   UNL     1       8.399  -2.386 -12.471  1.00  0.00     0.002 C 
BRANCH  17  18
ATOM     18  C   UNL     1       8.353  -0.862 -12.558  1.00  0.00     0.000 C 
BRANCH  18  19
ATOM     19  C   UNL     1       9.722  -0.186 -12.404  1.00  0.00    -0.000 C 
BRANCH  19  20
ATOM     20  C   UNL     1       9.821   0.829 -11.263  1.00  0.00    -0.000 C 
BRANCH  20  21
ATOM     21  C   UNL     1      11.093   0.668 -10.425  1.00  0.00    -0.003 C 
ATOM     22  C   UNL     1      12.316   0.470 -11.307  1.00  0.00     0.004 C 
ENDBRANCH  20  21
ENDBRANCH  19  20
ENDBRANCH  18  19
ENDBRANCH  17  18
ENDBRANCH  16  17
ENDBRANCH  12  16
ENDBRANCH   9  12
ENDBRANCH   6   9
ENDBRANCH   3   5
ENDBRANCH   2   3
BRANCH   2  23
ATOM     23  N   UNL     1       5.108   0.167  -6.082  1.00  0.00    -0.332 N 
ATOM     24  C   UNL     1       3.935  -0.673  -6.277  1.00  0.00     0.147 C 
BRANCH  23  25
ATOM     25  C   UNL     1       4.822   1.530  -5.555  1.00  0.00     0.174 C 
BRANCH  25  26
ATOM     26  C   UNL     1       4.705   2.594  -6.671  1.00  0.00     0.038 C 
BRANCH  26  27
ATOM     27  C   UNL     1       3.586   3.649  -6.517  1.00  0.00    -0.015 C 
ATOM     28  C   UNL     1       2.336   3.082  -5.845  1.00  0.00     0.007 C 
ATOM     29  C   UNL     1       4.046   4.922  -5.810  1.00  0.00     0.007 C 
ENDBRANCH  26  27
ENDBRANCH  25  26
BRANCH  25  30
ATOM     30  C   UNL     1       5.840   1.897  -4.450  1.00  0.00     0.243 C 
ATOM     31  O   UNL     1       6.678   2.783  -4.607  1.00  0.00    -0.273 OA
ATOM     32  N   UNL     1       5.748   1.167  -3.293  1.00  0.00    -0.342 N 
ATOM     33  H   UNL     1       4.940   0.549  -3.185  1.00  0.00     0.164 HD
BRANCH  32  34
ATOM     34  C   UNL     1       6.647   1.359  -2.151  1.00  0.00     0.175 C 
BRANCH  34  35
ATOM     35  C   UNL     1       5.877   1.322  -0.822  1.00  0.00     0.070 C 
BRANCH  35  36
ATOM     36  C   UNL     1       5.992   2.614  -0.044  1.00  0.00    -0.045 A 
ATOM     37  C   UNL     1       4.861   3.420   0.151  1.00  0.00     0.007 A 
ATOM     38  C   UNL     1       7.225   3.034   0.472  1.00  0.00     0.007 A 
ATOM     39  C   UNL     1       4.960   4.619   0.856  1.00  0.00     0.046 A 
ATOM     40  C   UNL     1       7.326   4.236   1.177  1.00  0.00     0.046 A 
ATOM     41  C   UNL     1       6.191   5.018   1.364  1.00  0.00     0.115 A 
BRANCH  41  42
ATOM     42  O   UNL     1       6.246   6.198   2.044  1.00  0.00    -0.508 OA
ATOM     43  H   UNL     1       5.965   6.036   2.959  1.00  0.00     0.293 HD
ENDBRANCH  41  42
ENDBRANCH  35  36
ENDBRANCH  34  35
BRANCH  34  44
ATOM     44  C   UNL     1       7.741   0.269  -2.215  1.00  0.00     0.243 C 
ATOM     45  O   UNL     1       7.553  -0.917  -1.962  1.00  0.00    -0.273 OA
ATOM     46  N   UNL     1       9.001   0.771  -2.459  1.00  0.00    -0.341 N 
ATOM     47  H   UNL     1       9.124   1.777  -2.546  1.00  0.00     0.164 HD
BRANCH  46  48
ATOM     48  C   UNL     1      10.206  -0.060  -2.497  1.00  0.00     0.196 C 
BRANCH  48  49
ATOM     49  C   UNL     1      11.124   0.337  -3.666  1.00  0.00     0.072 C 
BRANCH  49  50
ATOM     50  C   UNL     1      10.966   1.787  -4.063  1.00  0.00    -0.045 A 
ATOM     51  C   UNL     1      11.617   2.788  -3.328  1.00  0.00     0.007 A 
ATOM     52  C   UNL     1      10.158   2.153  -5.147  1.00  0.00     0.007 A 
ATOM     53  C   UNL     1      11.468   4.130  -3.677  1.00  0.00     0.046 A 
ATOM     54  C   UNL     1      10.008   3.497  -5.496  1.00  0.00     0.046 A 
ATOM     55  C   UNL     1      10.665   4.475  -4.757  1.00  0.00     0.115 A 
BRANCH  55  56
ATOM     56  O   UNL     1      10.544   5.798  -5.064  1.00  0.00    -0.508 OA
ATOM     57  H   UNL     1       9.978   5.880  -5.848  1.00  0.00     0.293 HD
ENDBRANCH  55  56
ENDBRANCH  49  50
ENDBRANCH  48  49
BRANCH  48  58
ATOM     58  C   UNL     1      10.964   0.097  -1.171  1.00  0.00     0.326 C 
ATOM     59  O   UNL     1      10.484   0.230  -0.057  1.00  0.00    -0.250 OA
BRANCH  58  60
ATOM     60  O   UNL     1      12.313   0.064  -1.311  1.00  0.00    -0.480 OA
ATOM     61  H   UNL     1      12.635   0.012  -0.385  1.00  0.00     0.296 HD
ENDBRANCH  58  60
ENDBRANCH  48  58
ENDBRANCH  46  48
ENDBRANCH  34  44
ENDBRANCH  32  34
ENDBRANCH  25  30
ENDBRANCH  23  25
ENDBRANCH   2  23
TORSDOF 28
ENDMDL
MODEL 45
REMARK VINA RESULT:    -5.314      3.930      9.267
REMARK INTER + INTRA:         -18.543
REMARK INTER:                 -13.216
REMARK INTRA:                  -5.326
REMARK UNBOUND:                -5.307
REMARK SMILES CCCCCCC[C@H](N)[C@H](O)C(=O)N[C@H](C)C(=O)N(C)[C@H](CC(C)C)C(=O)N[C@@H](Cc1ccc(O)cc1)C(=O)N[C@@H](Cc1ccc(O)cc1)C(=O)O
REMARK SMILES IDX 18 1 17 2 15 3 16 4 14 5 12 6 13 7 10 9 11 10 8 12 9 13 7 16
REMARK SMILES IDX 6 17 5 18 4 19 3 20 2 21 1 22 19 23 20 24 21 25 22 26 23 27
REMARK SMILES IDX 24 28 25 29 26 30 27 31 28 32 29 34 30 35 31 36 32 37 37 38
REMARK SMILES IDX 33 39 36 40 34 41 35 42 38 44 39 45 40 46 41 48 42 49 43 50
REMARK SMILES IDX 44 51 49 52 45 53 48 54 46 55 47 56 50 58 51 59 52 60
REMARK H PARENT 14 8 11 11 9 14 9 15 28 33 35 43 40 47 47 57 52 61
ROOT
ATOM      1  O   UNL     1       8.780   1.755  -2.556  1.00  0.00    -0.272 OA
ATOM      2  C   UNL     1       8.200   2.164  -1.539  1.00  0.00     0.245 C 
ENDROOT
BRANCH   2   3
ATOM      3  C   UNL     1       8.635   3.521  -0.933  1.00  0.00     0.168 C 
ATOM      4  C   UNL     1       8.026   4.682  -1.711  1.00  0.00     0.041 C 
BRANCH   3   5
ATOM      5  N   UNL     1       8.411   3.651   0.499  1.00  0.00    -0.342 N 
ATOM      6  C   UNL     1       9.366   3.282   1.422  1.00  0.00     0.251 C 
ATOM      7  O   UNL     1      10.445   2.784   1.116  1.00  0.00    -0.272 OA
ATOM      8  H   UNL     1       7.540   4.020   0.874  1.00  0.00     0.164 HD
BRANCH   6   9
ATOM      9  C   UNL     1       8.970   3.640   2.863  1.00  0.00     0.219 C 
BRANCH   9  10
ATOM     10  O   UNL     1       9.388   2.652   3.813  1.00  0.00    -0.382 OA
ATOM     11  H   UNL     1       8.542   2.282   4.149  1.00  0.00     0.211 HD
ENDBRANCH   9  10
BRANCH   9  12
ATOM     12  C   UNL     1       9.446   5.052   3.292  1.00  0.00     0.089 C 
BRANCH  12  13
ATOM     13  N   UNL     1      10.148   5.677   2.148  1.00  0.00    -0.325 NA
ATOM     14  H   UNL     1      10.806   5.004   1.750  1.00  0.00     0.119 HD
ATOM     15  H   UNL     1      10.728   6.445   2.494  1.00  0.00     0.119 HD
ENDBRANCH  12  13
BRANCH  12  16
ATOM     16  C   UNL     1       8.349   6.004   3.827  1.00  0.00     0.022 C 
BRANCH  16  17
ATOM     17  C   UNL     1       8.294   7.447   3.307  1.00  0.00     0.002 C 
BRANCH  17  18
ATOM     18  C   UNL     1       7.150   7.740   2.339  1.00  0.00     0.000 C 
BRANCH  18  19
ATOM     19  C   UNL     1       5.998   6.728   2.408  1.00  0.00    -0.000 C 
BRANCH  19  20
ATOM     20  C   UNL     1       5.024   6.770   1.227  1.00  0.00    -0.000 C 
BRANCH  20  21
ATOM     21  C   UNL     1       5.077   5.507   0.362  1.00  0.00    -0.003 C 
ATOM     22  C   UNL     1       4.494   4.309   1.095  1.00  0.00     0.004 C 
ENDBRANCH  20  21
ENDBRANCH  19  20
ENDBRANCH  18  19
ENDBRANCH  17  18
ENDBRANCH  16  17
ENDBRANCH  12  16
ENDBRANCH   9  12
ENDBRANCH   6   9
ENDBRANCH   3   5
ENDBRANCH   2   3
BRANCH   2  23
ATOM     23  N   UNL     1       7.105   1.470  -1.037  1.00  0.00    -0.332 N 
ATOM     24  C   UNL     1       7.179   0.437  -0.014  1.00  0.00     0.147 C 
BRANCH  23  25
ATOM     25  C   UNL     1       5.724   1.849  -1.444  1.00  0.00     0.174 C 
BRANCH  25  26
ATOM     26  C   UNL     1       4.654   0.847  -0.953  1.00  0.00     0.038 C 
BRANCH  26  27
ATOM     27  C   UNL     1       3.178   1.295  -1.047  1.00  0.00    -0.015 C 
ATOM     28  C   UNL     1       2.388   0.492  -2.080  1.00  0.00     0.007 C 
ATOM     29  C   UNL     1       2.457   1.298   0.298  1.00  0.00     0.007 C 
ENDBRANCH  26  27
ENDBRANCH  25  26
BRANCH  25  30
ATOM     30  C   UNL     1       5.673   2.116  -2.966  1.00  0.00     0.243 C 
ATOM     31  O   UNL     1       5.368   3.217  -3.423  1.00  0.00    -0.273 OA
ATOM     32  N   UNL     1       5.983   1.047  -3.767  1.00  0.00    -0.342 N 
ATOM     33  H   UNL     1       6.362   0.211  -3.315  1.00  0.00     0.164 HD
BRANCH  32  34
ATOM     34  C   UNL     1       5.960   1.108  -5.231  1.00  0.00     0.175 C 
BRANCH  34  35
ATOM     35  C   UNL     1       7.348   0.821  -5.824  1.00  0.00     0.070 C 
BRANCH  35  36
ATOM     36  C   UNL     1       7.788   1.870  -6.820  1.00  0.00    -0.045 A 
ATOM     37  C   UNL     1       9.148   2.017  -7.131  1.00  0.00     0.007 A 
ATOM     38  C   UNL     1       6.855   2.722  -7.425  1.00  0.00     0.007 A 
ATOM     39  C   UNL     1       9.564   2.991  -8.038  1.00  0.00     0.046 A 
ATOM     40  C   UNL     1       7.271   3.699  -8.333  1.00  0.00     0.046 A 
ATOM     41  C   UNL     1       8.623   3.824  -8.632  1.00  0.00     0.115 A 
BRANCH  41  42
ATOM     42  O   UNL     1       9.072   4.765  -9.511  1.00  0.00    -0.508 OA
ATOM     43  H   UNL     1       8.941   5.641  -9.112  1.00  0.00     0.293 HD
ENDBRANCH  41  42
ENDBRANCH  35  36
ENDBRANCH  34  35
BRANCH  34  44
ATOM     44  C   UNL     1       4.898   0.106  -5.735  1.00  0.00     0.243 C 
ATOM     45  O   UNL     1       3.747   0.044  -5.314  1.00  0.00    -0.273 OA
ATOM     46  N   UNL     1       5.397  -0.820  -6.627  1.00  0.00    -0.341 N 
ATOM     47  H   UNL     1       6.387  -0.800  -6.857  1.00  0.00     0.164 HD
BRANCH  46  48
ATOM     48  C   UNL     1       4.596  -1.910  -7.190  1.00  0.00     0.196 C 
BRANCH  48  49
ATOM     49  C   UNL     1       5.039  -2.247  -8.624  1.00  0.00     0.072 C 
BRANCH  49  50
ATOM     50  C   UNL     1       6.405  -1.692  -8.957  1.00  0.00    -0.045 A 
ATOM     51  C   UNL     1       7.558  -2.375  -8.543  1.00  0.00     0.007 A 
ATOM     52  C   UNL     1       6.542  -0.487  -9.658  1.00  0.00     0.007 A 
ATOM     53  C   UNL     1       8.823  -1.866  -8.833  1.00  0.00     0.046 A 
ATOM     54  C   UNL     1       7.809   0.024  -9.947  1.00  0.00     0.046 A 
ATOM     55  C   UNL     1       8.940  -0.671  -9.533  1.00  0.00     0.115 A 
BRANCH  55  56
ATOM     56  O   UNL     1      10.195  -0.206  -9.795  1.00  0.00    -0.508 OA
ATOM     57  H   UNL     1      10.649  -0.851 -10.359  1.00  0.00     0.293 HD
ENDBRANCH  55  56
ENDBRANCH  49  50
ENDBRANCH  48  49
BRANCH  48  58
ATOM     58  C   UNL     1       4.746  -3.151  -6.299  1.00  0.00     0.326 C 
ATOM     59  O   UNL     1       3.938  -4.052  -6.145  1.00  0.00    -0.250 OA
BRANCH  58  60
ATOM     60  O   UNL     1       5.933  -3.207  -5.645  1.00  0.00    -0.480 OA
ATOM     61  H   UNL     1       5.853  -2.498  -4.970  1.00  0.00     0.296 HD
ENDBRANCH  58  60
ENDBRANCH  48  58
ENDBRANCH  46  48
ENDBRANCH  34  44
ENDBRANCH  32  34
ENDBRANCH  25  30
ENDBRANCH  23  25
ENDBRANCH   2  23
TORSDOF 28
ENDMDL
MODEL 46
REMARK VINA RESULT:    -5.302      2.678      6.718
REMARK INTER + INTRA:         -18.512
REMARK INTER:                 -13.821
REMARK INTRA:                  -4.691
REMARK UNBOUND:                -5.307
REMARK SMILES CCCCCCC[C@H](N)[C@H](O)C(=O)N[C@H](C)C(=O)N(C)[C@H](CC(C)C)C(=O)N[C@@H](Cc1ccc(O)cc1)C(=O)N[C@@H](Cc1ccc(O)cc1)C(=O)O
REMARK SMILES IDX 18 1 17 2 15 3 16 4 14 5 12 6 13 7 10 9 11 10 8 12 9 13 7 16
REMARK SMILES IDX 6 17 5 18 4 19 3 20 2 21 1 22 19 23 20 24 21 25 22 26 23 27
REMARK SMILES IDX 24 28 25 29 26 30 27 31 28 32 29 34 30 35 31 36 32 37 37 38
REMARK SMILES IDX 33 39 36 40 34 41 35 42 38 44 39 45 40 46 41 48 42 49 43 50
REMARK SMILES IDX 44 51 49 52 45 53 48 54 46 55 47 56 50 58 51 59 52 60
REMARK H PARENT 14 8 11 11 9 14 9 15 28 33 35 43 40 47 47 57 52 61
ROOT
ATOM      1  O   UNL     1      10.386   2.163   0.608  1.00  0.00    -0.272 OA
ATOM      2  C   UNL     1      10.717   2.953  -0.290  1.00  0.00     0.245 C 
ENDROOT
BRANCH   2   3
ATOM      3  C   UNL     1      10.630   2.479  -1.762  1.00  0.00     0.168 C 
ATOM      4  C   UNL     1      11.882   1.703  -2.156  1.00  0.00     0.041 C 
BRANCH   3   5
ATOM      5  N   UNL     1       9.415   1.754  -2.101  1.00  0.00    -0.342 N 
ATOM      6  C   UNL     1       9.289   0.399  -1.879  1.00  0.00     0.251 C 
ATOM      7  O   UNL     1      10.191  -0.298  -1.426  1.00  0.00    -0.272 OA
ATOM      8  H   UNL     1       8.611   2.220  -2.515  1.00  0.00     0.164 HD
BRANCH   6   9
ATOM      9  C   UNL     1       7.875  -0.124  -2.178  1.00  0.00     0.219 C 
BRANCH   9  10
ATOM     10  O   UNL     1       7.880  -1.449  -2.721  1.00  0.00    -0.382 OA
ATOM     11  H   UNL     1       6.930  -1.632  -2.893  1.00  0.00     0.211 HD
ENDBRANCH   9  10
BRANCH   9  12
ATOM     12  C   UNL     1       6.921  -0.031  -0.959  1.00  0.00     0.089 C 
BRANCH  12  13
ATOM     13  N   UNL     1       7.726   0.291   0.241  1.00  0.00    -0.325 NA
ATOM     14  H   UNL     1       7.835   1.304   0.310  1.00  0.00     0.119 HD
ATOM     15  H   UNL     1       8.674  -0.071   0.111  1.00  0.00     0.119 HD
ENDBRANCH  12  13
BRANCH  12  16
ATOM     16  C   UNL     1       5.744   0.965  -1.093  1.00  0.00     0.022 C 
BRANCH  16  17
ATOM     17  C   UNL     1       4.336   0.517  -0.679  1.00  0.00     0.002 C 
BRANCH  17  18
ATOM     18  C   UNL     1       3.256   1.591  -0.802  1.00  0.00     0.000 C 
BRANCH  18  19
ATOM     19  C   UNL     1       2.032   1.155  -1.618  1.00  0.00    -0.000 C 
BRANCH  19  20
ATOM     20  C   UNL     1       2.349   0.523  -2.977  1.00  0.00    -0.000 C 
BRANCH  20  21
ATOM     21  C   UNL     1       1.629  -0.810  -3.200  1.00  0.00    -0.003 C 
ATOM     22  C   UNL     1       0.830  -1.221  -1.973  1.00  0.00     0.004 C 
ENDBRANCH  20  21
ENDBRANCH  19  20
ENDBRANCH  18  19
ENDBRANCH  17  18
ENDBRANCH  16  17
ENDBRANCH  12  16
ENDBRANCH   9  12
ENDBRANCH   6   9
ENDBRANCH   3   5
ENDBRANCH   2   3
BRANCH   2  23
ATOM     23  N   UNL     1      11.037   4.269   0.025  1.00  0.00    -0.332 N 
ATOM     24  C   UNL     1      12.385   4.818   0.008  1.00  0.00     0.147 C 
BRANCH  23  25
ATOM     25  C   UNL     1       9.959   5.263   0.284  1.00  0.00     0.174 C 
BRANCH  25  26
ATOM     26  C   UNL     1      10.101   5.960   1.658  1.00  0.00     0.038 C 
BRANCH  26  27
ATOM     27  C   UNL     1       9.013   6.989   2.036  1.00  0.00    -0.015 C 
ATOM     28  C   UNL     1       8.427   6.736   3.425  1.00  0.00     0.007 C 
ATOM     29  C   UNL     1       9.475   8.438   1.904  1.00  0.00     0.007 C 
ENDBRANCH  26  27
ENDBRANCH  25  26
BRANCH  25  30
ATOM     30  C   UNL     1       8.573   4.616   0.056  1.00  0.00     0.243 C 
ATOM     31  O   UNL     1       8.051   3.885   0.896  1.00  0.00    -0.273 OA
ATOM     32  N   UNL     1       7.973   4.907  -1.142  1.00  0.00    -0.342 N 
ATOM     33  H   UNL     1       8.403   5.632  -1.723  1.00  0.00     0.164 HD
BRANCH  32  34
ATOM     34  C   UNL     1       6.672   4.362  -1.540  1.00  0.00     0.175 C 
BRANCH  34  35
ATOM     35  C   UNL     1       5.555   5.403  -1.369  1.00  0.00     0.070 C 
BRANCH  35  36
ATOM     36  C   UNL     1       5.101   5.543   0.067  1.00  0.00    -0.045 A 
ATOM     37  C   UNL     1       4.410   4.493   0.690  1.00  0.00     0.007 A 
ATOM     38  C   UNL     1       5.342   6.722   0.785  1.00  0.00     0.007 A 
ATOM     39  C   UNL     1       3.975   4.619   2.010  1.00  0.00     0.046 A 
ATOM     40  C   UNL     1       4.906   6.849   2.106  1.00  0.00     0.046 A 
ATOM     41  C   UNL     1       4.228   5.794   2.707  1.00  0.00     0.115 A 
BRANCH  41  42
ATOM     42  O   UNL     1       3.784   5.877   3.994  1.00  0.00    -0.508 OA
ATOM     43  H   UNL     1       2.907   5.460   4.041  1.00  0.00     0.293 HD
ENDBRANCH  41  42
ENDBRANCH  35  36
ENDBRANCH  34  35
BRANCH  34  44
ATOM     44  C   UNL     1       6.786   3.872  -3.001  1.00  0.00     0.243 C 
ATOM     45  O   UNL     1       7.846   3.730  -3.605  1.00  0.00    -0.273 OA
ATOM     46  N   UNL     1       5.566   3.727  -3.628  1.00  0.00    -0.341 N 
ATOM     47  H   UNL     1       4.719   3.969  -3.121  1.00  0.00     0.164 HD
BRANCH  46  48
ATOM     48  C   UNL     1       5.423   3.338  -5.033  1.00  0.00     0.196 C 
BRANCH  48  49
ATOM     49  C   UNL     1       5.189   1.825  -5.174  1.00  0.00     0.072 C 
BRANCH  49  50
ATOM     50  C   UNL     1       6.227   1.155  -6.046  1.00  0.00    -0.045 A 
ATOM     51  C   UNL     1       7.352   1.876  -6.474  1.00  0.00     0.007 A 
ATOM     52  C   UNL     1       6.075  -0.176  -6.454  1.00  0.00     0.007 A 
ATOM     53  C   UNL     1       8.309   1.272  -7.289  1.00  0.00     0.046 A 
ATOM     54  C   UNL     1       7.033  -0.781  -7.271  1.00  0.00     0.046 A 
ATOM     55  C   UNL     1       8.144  -0.050  -7.681  1.00  0.00     0.115 A 
BRANCH  55  56
ATOM     56  O   UNL     1       9.101  -0.603  -8.479  1.00  0.00    -0.508 OA
ATOM     57  H   UNL     1       9.733   0.092  -8.725  1.00  0.00     0.293 HD
ENDBRANCH  55  56
ENDBRANCH  49  50
ENDBRANCH  48  49
BRANCH  48  58
ATOM     58  C   UNL     1       4.240   4.102  -5.644  1.00  0.00     0.326 C 
ATOM     59  O   UNL     1       3.996   4.262  -6.829  1.00  0.00    -0.250 OA
BRANCH  58  60
ATOM     60  O   UNL     1       3.396   4.623  -4.718  1.00  0.00    -0.480 OA
ATOM     61  H   UNL     1       2.641   3.995  -4.721  1.00  0.00     0.296 HD
ENDBRANCH  58  60
ENDBRANCH  48  58
ENDBRANCH  46  48
ENDBRANCH  34  44
ENDBRANCH  32  34
ENDBRANCH  25  30
ENDBRANCH  23  25
ENDBRANCH   2  23
TORSDOF 28
ENDMDL
MODEL 47
REMARK VINA RESULT:    -5.297      6.061     11.744
REMARK INTER + INTRA:         -18.500
REMARK INTER:                 -13.868
REMARK INTRA:                  -4.633
REMARK UNBOUND:                -5.307
REMARK SMILES CCCCCCC[C@H](N)[C@H](O)C(=O)N[C@H](C)C(=O)N(C)[C@H](CC(C)C)C(=O)N[C@@H](Cc1ccc(O)cc1)C(=O)N[C@@H](Cc1ccc(O)cc1)C(=O)O
REMARK SMILES IDX 18 1 17 2 15 3 16 4 14 5 12 6 13 7 10 9 11 10 8 12 9 13 7 16
REMARK SMILES IDX 6 17 5 18 4 19 3 20 2 21 1 22 19 23 20 24 21 25 22 26 23 27
REMARK SMILES IDX 24 28 25 29 26 30 27 31 28 32 29 34 30 35 31 36 32 37 37 38
REMARK SMILES IDX 33 39 36 40 34 41 35 42 38 44 39 45 40 46 41 48 42 49 43 50
REMARK SMILES IDX 44 51 49 52 45 53 48 54 46 55 47 56 50 58 51 59 52 60
REMARK H PARENT 14 8 11 11 9 14 9 15 28 33 35 43 40 47 47 57 52 61
ROOT
ATOM      1  O   UNL     1       9.333   1.101  -6.944  1.00  0.00    -0.272 OA
ATOM      2  C   UNL     1       9.024   1.747  -5.932  1.00  0.00     0.245 C 
ENDROOT
BRANCH   2   3
ATOM      3  C   UNL     1      10.018   1.784  -4.745  1.00  0.00     0.168 C 
ATOM      4  C   UNL     1      10.433   3.218  -4.431  1.00  0.00     0.041 C 
BRANCH   3   5
ATOM      5  N   UNL     1       9.575   1.075  -3.554  1.00  0.00    -0.342 N 
ATOM      6  C   UNL     1      10.449   0.352  -2.771  1.00  0.00     0.251 C 
ATOM      7  O   UNL     1      11.639   0.216  -3.034  1.00  0.00    -0.272 OA
ATOM      8  H   UNL     1       8.603   1.086  -3.254  1.00  0.00     0.164 HD
BRANCH   6   9
ATOM      9  C   UNL     1       9.791  -0.192  -1.492  1.00  0.00     0.219 C 
BRANCH   9  10
ATOM     10  O   UNL     1      10.500   0.182  -0.305  1.00  0.00    -0.382 OA
ATOM     11  H   UNL     1      10.119  -0.404   0.386  1.00  0.00     0.211 HD
ENDBRANCH   9  10
BRANCH   9  12
ATOM     12  C   UNL     1       8.289   0.178  -1.376  1.00  0.00     0.089 C 
BRANCH  12  13
ATOM     13  N   UNL     1       7.488  -0.949  -1.908  1.00  0.00    -0.325 NA
ATOM     14  H   UNL     1       6.495  -0.721  -1.831  1.00  0.00     0.119 HD
ATOM     15  H   UNL     1       7.622  -1.764  -1.304  1.00  0.00     0.119 HD
ENDBRANCH  12  13
BRANCH  12  16
ATOM     16  C   UNL     1       7.793   0.562   0.038  1.00  0.00     0.022 C 
BRANCH  16  17
ATOM     17  C   UNL     1       7.628   2.046   0.394  1.00  0.00     0.002 C 
BRANCH  17  18
ATOM     18  C   UNL     1       8.176   3.023  -0.644  1.00  0.00     0.000 C 
BRANCH  18  19
ATOM     19  C   UNL     1       8.439   4.433  -0.098  1.00  0.00    -0.000 C 
BRANCH  19  20
ATOM     20  C   UNL     1       9.908   4.753   0.193  1.00  0.00    -0.000 C 
BRANCH  20  21
ATOM     21  C   UNL     1      10.872   3.699  -0.357  1.00  0.00    -0.003 C 
ATOM     22  C   UNL     1      11.967   4.335  -1.199  1.00  0.00     0.004 C 
ENDBRANCH  20  21
ENDBRANCH  19  20
ENDBRANCH  18  19
ENDBRANCH  17  18
ENDBRANCH  16  17
ENDBRANCH  12  16
ENDBRANCH   9  12
ENDBRANCH   6   9
ENDBRANCH   3   5
ENDBRANCH   2   3
BRANCH   2  23
ATOM     23  N   UNL     1       7.864   2.515  -5.924  1.00  0.00    -0.332 N 
ATOM     24  C   UNL     1       7.709   3.783  -6.623  1.00  0.00     0.147 C 
BRANCH  23  25
ATOM     25  C   UNL     1       6.626   2.000  -5.278  1.00  0.00     0.174 C 
BRANCH  25  26
ATOM     26  C   UNL     1       6.560   2.316  -3.765  1.00  0.00     0.038 C 
BRANCH  26  27
ATOM     27  C   UNL     1       5.157   2.534  -3.156  1.00  0.00    -0.015 C 
ATOM     28  C   UNL     1       4.088   2.776  -4.222  1.00  0.00     0.007 C 
ATOM     29  C   UNL     1       4.727   1.418  -2.208  1.00  0.00     0.007 C 
ENDBRANCH  26  27
ENDBRANCH  25  26
BRANCH  25  30
ATOM     30  C   UNL     1       6.437   0.502  -5.609  1.00  0.00     0.243 C 
ATOM     31  O   UNL     1       6.886  -0.386  -4.884  1.00  0.00    -0.273 OA
ATOM     32  N   UNL     1       5.744   0.231  -6.761  1.00  0.00    -0.342 N 
ATOM     33  H   UNL     1       5.283   1.014  -7.231  1.00  0.00     0.164 HD
BRANCH  32  34
ATOM     34  C   UNL     1       5.494  -1.129  -7.245  1.00  0.00     0.175 C 
BRANCH  34  35
ATOM     35  C   UNL     1       4.004  -1.346  -7.555  1.00  0.00     0.070 C 
BRANCH  35  36
ATOM     36  C   UNL     1       3.263  -2.017  -6.421  1.00  0.00    -0.045 A 
ATOM     37  C   UNL     1       2.418  -1.264  -5.591  1.00  0.00     0.007 A 
ATOM     38  C   UNL     1       3.422  -3.386  -6.168  1.00  0.00     0.007 A 
ATOM     39  C   UNL     1       1.740  -1.871  -4.534  1.00  0.00     0.046 A 
ATOM     40  C   UNL     1       2.745  -3.995  -5.109  1.00  0.00     0.046 A 
ATOM     41  C   UNL     1       1.908  -3.231  -4.302  1.00  0.00     0.115 A 
BRANCH  41  42
ATOM     42  O   UNL     1       1.230  -3.786  -3.257  1.00  0.00    -0.508 OA
ATOM     43  H   UNL     1       1.741  -3.629  -2.445  1.00  0.00     0.293 HD
ENDBRANCH  41  42
ENDBRANCH  35  36
ENDBRANCH  34  35
BRANCH  34  44
ATOM     44  C   UNL     1       6.383  -1.367  -8.486  1.00  0.00     0.243 C 
ATOM     45  O   UNL     1       7.356  -0.681  -8.784  1.00  0.00    -0.273 OA
ATOM     46  N   UNL     1       5.906  -2.356  -9.321  1.00  0.00    -0.341 N 
ATOM     47  H   UNL     1       5.030  -2.817  -9.090  1.00  0.00     0.164 HD
BRANCH  46  48
ATOM     48  C   UNL     1       6.542  -2.714 -10.591  1.00  0.00     0.196 C 
BRANCH  48  49
ATOM     49  C   UNL     1       7.466  -3.932 -10.431  1.00  0.00     0.072 C 
BRANCH  49  50
ATOM     50  C   UNL     1       8.232  -4.251 -11.695  1.00  0.00    -0.045 A 
ATOM     51  C   UNL     1       8.067  -5.498 -12.316  1.00  0.00     0.007 A 
ATOM     52  C   UNL     1       9.125  -3.326 -12.250  1.00  0.00     0.007 A 
ATOM     53  C   UNL     1       8.779  -5.809 -13.475  1.00  0.00     0.046 A 
ATOM     54  C   UNL     1       9.838  -3.637 -13.410  1.00  0.00     0.046 A 
ATOM     55  C   UNL     1       9.658  -4.877 -14.014  1.00  0.00     0.115 A 
BRANCH  55  56
ATOM     56  O   UNL     1      10.335  -5.220 -15.146  1.00  0.00    -0.508 OA
ATOM     57  H   UNL     1      10.301  -4.470 -15.762  1.00  0.00     0.293 HD
ENDBRANCH  55  56
ENDBRANCH  49  50
ENDBRANCH  48  49
BRANCH  48  58
ATOM     58  C   UNL     1       5.451  -3.027 -11.624  1.00  0.00     0.326 C 
ATOM     59  O   UNL     1       5.378  -2.614 -12.770  1.00  0.00    -0.250 OA
BRANCH  58  60
ATOM     60  O   UNL     1       4.495  -3.872 -11.163  1.00  0.00    -0.480 OA
ATOM     61  H   UNL     1       3.917  -4.008 -11.945  1.00  0.00     0.296 HD
ENDBRANCH  58  60
ENDBRANCH  48  58
ENDBRANCH  46  48
ENDBRANCH  34  44
ENDBRANCH  32  34
ENDBRANCH  25  30
ENDBRANCH  23  25
ENDBRANCH   2  23
TORSDOF 28
ENDMDL
MODEL 48
REMARK VINA RESULT:    -5.263      4.001      9.066
REMARK INTER + INTRA:         -18.416
REMARK INTER:                 -13.223
REMARK INTRA:                  -5.194
REMARK UNBOUND:                -5.307
REMARK SMILES CCCCCCC[C@H](N)[C@H](O)C(=O)N[C@H](C)C(=O)N(C)[C@H](CC(C)C)C(=O)N[C@@H](Cc1ccc(O)cc1)C(=O)N[C@@H](Cc1ccc(O)cc1)C(=O)O
REMARK SMILES IDX 18 1 17 2 15 3 16 4 14 5 12 6 13 7 10 9 11 10 8 12 9 13 7 16
REMARK SMILES IDX 6 17 5 18 4 19 3 20 2 21 1 22 19 23 20 24 21 25 22 26 23 27
REMARK SMILES IDX 24 28 25 29 26 30 27 31 28 32 29 34 30 35 31 36 32 37 37 38
REMARK SMILES IDX 33 39 36 40 34 41 35 42 38 44 39 45 40 46 41 48 42 49 43 50
REMARK SMILES IDX 44 51 49 52 45 53 48 54 46 55 47 56 50 58 51 59 52 60
REMARK H PARENT 14 8 11 11 9 14 9 15 28 33 35 43 40 47 47 57 52 61
ROOT
ATOM      1  O   UNL     1      12.679   9.517  -0.377  1.00  0.00    -0.272 OA
ATOM      2  C   UNL     1      11.695  10.104  -0.851  1.00  0.00     0.245 C 
ENDROOT
BRANCH   2   3
ATOM      3  C   UNL     1      10.673  10.741   0.123  1.00  0.00     0.168 C 
ATOM      4  C   UNL     1       9.389  11.116  -0.608  1.00  0.00     0.041 C 
BRANCH   3   5
ATOM      5  N   UNL     1      10.406   9.963   1.323  1.00  0.00    -0.342 N 
ATOM      6  C   UNL     1       9.771   8.740   1.272  1.00  0.00     0.251 C 
ATOM      7  O   UNL     1       9.351   8.239   0.234  1.00  0.00    -0.272 OA
ATOM      8  H   UNL     1      10.677  10.292   2.247  1.00  0.00     0.164 HD
BRANCH   6   9
ATOM      9  C   UNL     1       9.724   8.036   2.638  1.00  0.00     0.219 C 
BRANCH   9  10
ATOM     10  O   UNL     1      10.671   8.574   3.569  1.00  0.00    -0.382 OA
ATOM     11  H   UNL     1      10.792   9.501   3.266  1.00  0.00     0.211 HD
ENDBRANCH   9  10
BRANCH   9  12
ATOM     12  C   UNL     1       8.302   8.002   3.257  1.00  0.00     0.089 C 
BRANCH  12  13
ATOM     13  N   UNL     1       7.528   9.140   2.711  1.00  0.00    -0.325 NA
ATOM     14  H   UNL     1       7.940   9.433   1.823  1.00  0.00     0.119 HD
ATOM     15  H   UNL     1       7.637   9.944   3.334  1.00  0.00     0.119 HD
ENDBRANCH  12  13
BRANCH  12  16
ATOM     16  C   UNL     1       7.513   6.684   3.070  1.00  0.00     0.022 C 
BRANCH  16  17
ATOM     17  C   UNL     1       6.982   6.322   1.676  1.00  0.00     0.002 C 
BRANCH  17  18
ATOM     18  C   UNL     1       5.461   6.338   1.542  1.00  0.00     0.000 C 
BRANCH  18  19
ATOM     19  C   UNL     1       4.915   5.349   0.504  1.00  0.00    -0.000 C 
BRANCH  19  20
ATOM     20  C   UNL     1       5.566   5.435  -0.880  1.00  0.00    -0.000 C 
BRANCH  20  21
ATOM     21  C   UNL     1       5.345   6.787  -1.564  1.00  0.00    -0.003 C 
ATOM     22  C   UNL     1       6.666   7.475  -1.871  1.00  0.00     0.004 C 
ENDBRANCH  20  21
ENDBRANCH  19  20
ENDBRANCH  18  19
ENDBRANCH  17  18
ENDBRANCH  16  17
ENDBRANCH  12  16
ENDBRANCH   9  12
ENDBRANCH   6   9
ENDBRANCH   3   5
ENDBRANCH   2   3
BRANCH   2  23
ATOM     23  N   UNL     1      11.589  10.286  -2.226  1.00  0.00    -0.332 N 
ATOM     24  C   UNL     1      12.160  11.407  -2.957  1.00  0.00     0.147 C 
BRANCH  23  25
ATOM     25  C   UNL     1      10.966   9.235  -3.076  1.00  0.00     0.174 C 
BRANCH  25  26
ATOM     26  C   UNL     1       9.444   9.434  -3.262  1.00  0.00     0.038 C 
BRANCH  26  27
ATOM     27  C   UNL     1       8.956   9.824  -4.675  1.00  0.00    -0.015 C 
ATOM     28  C   UNL     1      10.092   9.859  -5.697  1.00  0.00     0.007 C 
ATOM     29  C   UNL     1       7.805   8.958  -5.181  1.00  0.00     0.007 C 
ENDBRANCH  26  27
ENDBRANCH  25  26
BRANCH  25  30
ATOM     30  C   UNL     1      11.350   7.831  -2.554  1.00  0.00     0.243 C 
ATOM     31  O   UNL     1      12.516   7.526  -2.308  1.00  0.00    -0.273 OA
ATOM     32  N   UNL     1      10.310   6.953  -2.392  1.00  0.00    -0.342 N 
ATOM     33  H   UNL     1       9.360   7.323  -2.481  1.00  0.00     0.164 HD
BRANCH  32  34
ATOM     34  C   UNL     1      10.489   5.573  -1.933  1.00  0.00     0.175 C 
BRANCH  34  35
ATOM     35  C   UNL     1       9.166   4.976  -1.428  1.00  0.00     0.070 C 
BRANCH  35  36
ATOM     36  C   UNL     1       9.284   4.381  -0.043  1.00  0.00    -0.045 A 
ATOM     37  C   UNL     1      10.252   4.866   0.849  1.00  0.00     0.007 A 
ATOM     38  C   UNL     1       8.452   3.328   0.360  1.00  0.00     0.007 A 
ATOM     39  C   UNL     1      10.377   4.314   2.124  1.00  0.00     0.046 A 
ATOM     40  C   UNL     1       8.578   2.774   1.636  1.00  0.00     0.046 A 
ATOM     41  C   UNL     1       9.540   3.274   2.508  1.00  0.00     0.115 A 
BRANCH  41  42
ATOM     42  O   UNL     1       9.697   2.760   3.761  1.00  0.00    -0.508 OA
ATOM     43  H   UNL     1       9.807   1.798   3.684  1.00  0.00     0.293 HD
ENDBRANCH  41  42
ENDBRANCH  35  36
ENDBRANCH  34  35
BRANCH  34  44
ATOM     44  C   UNL     1      11.085   4.754  -3.100  1.00  0.00     0.243 C 
ATOM     45  O   UNL     1      12.284   4.679  -3.354  1.00  0.00    -0.273 OA
ATOM     46  N   UNL     1      10.129   4.206  -3.929  1.00  0.00    -0.341 N 
ATOM     47  H   UNL     1       9.147   4.393  -3.743  1.00  0.00     0.164 HD
BRANCH  46  48
ATOM     48  C   UNL     1      10.452   3.445  -5.138  1.00  0.00     0.196 C 
BRANCH  48  49
ATOM     49  C   UNL     1       9.962   1.991  -5.033  1.00  0.00     0.072 C 
BRANCH  49  50
ATOM     50  C   UNL     1      10.255   1.374  -3.684  1.00  0.00    -0.045 A 
ATOM     51  C   UNL     1       9.199   1.033  -2.827  1.00  0.00     0.007 A 
ATOM     52  C   UNL     1      11.573   1.155  -3.264  1.00  0.00     0.007 A 
ATOM     53  C   UNL     1       9.458   0.475  -1.575  1.00  0.00     0.046 A 
ATOM     54  C   UNL     1      11.833   0.597  -2.010  1.00  0.00     0.046 A 
ATOM     55  C   UNL     1      10.772   0.261  -1.176  1.00  0.00     0.115 A 
BRANCH  55  56
ATOM     56  O   UNL     1      10.982  -0.284   0.056  1.00  0.00    -0.508 OA
ATOM     57  H   UNL     1      11.156  -1.233  -0.055  1.00  0.00     0.293 HD
ENDBRANCH  55  56
ENDBRANCH  49  50
ENDBRANCH  48  49
BRANCH  48  58
ATOM     58  C   UNL     1       9.794   4.125  -6.347  1.00  0.00     0.326 C 
ATOM     59  O   UNL     1       9.829   3.759  -7.510  1.00  0.00    -0.250 OA
BRANCH  58  60
ATOM     60  O   UNL     1       9.097   5.244  -6.025  1.00  0.00    -0.480 OA
ATOM     61  H   UNL     1       9.698   5.714  -5.406  1.00  0.00     0.296 HD
ENDBRANCH  58  60
ENDBRANCH  48  58
ENDBRANCH  46  48
ENDBRANCH  34  44
ENDBRANCH  32  34
ENDBRANCH  25  30
ENDBRANCH  23  25
ENDBRANCH   2  23
TORSDOF 28
ENDMDL
MODEL 49
REMARK VINA RESULT:    -5.252      2.395      6.241
REMARK INTER + INTRA:         -18.388
REMARK INTER:                 -13.196
REMARK INTRA:                  -5.192
REMARK UNBOUND:                -5.307
REMARK SMILES CCCCCCC[C@H](N)[C@H](O)C(=O)N[C@H](C)C(=O)N(C)[C@H](CC(C)C)C(=O)N[C@@H](Cc1ccc(O)cc1)C(=O)N[C@@H](Cc1ccc(O)cc1)C(=O)O
REMARK SMILES IDX 18 1 17 2 15 3 16 4 14 5 12 6 13 7 10 9 11 10 8 12 9 13 7 16
REMARK SMILES IDX 6 17 5 18 4 19 3 20 2 21 1 22 19 23 20 24 21 25 22 26 23 27
REMARK SMILES IDX 24 28 25 29 26 30 27 31 28 32 29 34 30 35 31 36 32 37 37 38
REMARK SMILES IDX 33 39 36 40 34 41 35 42 38 44 39 45 40 46 41 48 42 49 43 50
REMARK SMILES IDX 44 51 49 52 45 53 48 54 46 55 47 56 50 58 51 59 52 60
REMARK H PARENT 14 8 11 11 9 14 9 15 28 33 35 43 40 47 47 57 52 61
ROOT
ATOM      1  O   UNL     1      11.381   5.784  -4.146  1.00  0.00    -0.272 OA
ATOM      2  C   UNL     1      10.225   5.476  -3.819  1.00  0.00     0.245 C 
ENDROOT
BRANCH   2   3
ATOM      3  C   UNL     1       9.200   6.610  -3.566  1.00  0.00     0.168 C 
ATOM      4  C   UNL     1       8.082   6.571  -4.602  1.00  0.00     0.041 C 
BRANCH   3   5
ATOM      5  N   UNL     1       8.679   6.671  -2.209  1.00  0.00    -0.342 N 
ATOM      6  C   UNL     1       9.285   7.431  -1.230  1.00  0.00     0.251 C 
ATOM      7  O   UNL     1      10.316   8.070  -1.411  1.00  0.00    -0.272 OA
ATOM      8  H   UNL     1       7.848   6.155  -1.930  1.00  0.00     0.164 HD
BRANCH   6   9
ATOM      9  C   UNL     1       8.484   7.458   0.081  1.00  0.00     0.219 C 
BRANCH   9  10
ATOM     10  O   UNL     1       8.059   6.155   0.497  1.00  0.00    -0.382 OA
ATOM     11  H   UNL     1       7.137   6.095   0.163  1.00  0.00     0.211 HD
ENDBRANCH   9  10
BRANCH   9  12
ATOM     12  C   UNL     1       9.224   8.189   1.232  1.00  0.00     0.089 C 
BRANCH  12  13
ATOM     13  N   UNL     1       8.238   9.001   1.981  1.00  0.00    -0.325 NA
ATOM     14  H   UNL     1       8.536   9.978   1.978  1.00  0.00     0.119 HD
ATOM     15  H   UNL     1       8.255   8.719   2.964  1.00  0.00     0.119 HD
ENDBRANCH  12  13
BRANCH  12  16
ATOM     16  C   UNL     1      10.020   7.288   2.206  1.00  0.00     0.022 C 
BRANCH  16  17
ATOM     17  C   UNL     1      11.366   6.706   1.753  1.00  0.00     0.002 C 
BRANCH  17  18
ATOM     18  C   UNL     1      11.738   5.370   2.392  1.00  0.00     0.000 C 
BRANCH  18  19
ATOM     19  C   UNL     1      10.762   4.905   3.482  1.00  0.00    -0.000 C 
BRANCH  19  20
ATOM     20  C   UNL     1      10.073   3.565   3.209  1.00  0.00    -0.000 C 
BRANCH  20  21
ATOM     21  C   UNL     1       9.802   3.322   1.722  1.00  0.00    -0.003 C 
ATOM     22  C   UNL     1       8.473   2.615   1.509  1.00  0.00     0.004 C 
ENDBRANCH  20  21
ENDBRANCH  19  20
ENDBRANCH  18  19
ENDBRANCH  17  18
ENDBRANCH  16  17
ENDBRANCH  12  16
ENDBRANCH   9  12
ENDBRANCH   6   9
ENDBRANCH   3   5
ENDBRANCH   2   3
BRANCH   2  23
ATOM     23  N   UNL     1       9.839   4.140  -3.804  1.00  0.00    -0.332 N 
ATOM     24  C   UNL     1       9.952   3.235  -4.938  1.00  0.00     0.147 C 
BRANCH  23  25
ATOM     25  C   UNL     1       9.385   3.504  -2.537  1.00  0.00     0.174 C 
BRANCH  25  26
ATOM     26  C   UNL     1      10.154   2.203  -2.208  1.00  0.00     0.038 C 
BRANCH  26  27
ATOM     27  C   UNL     1       9.431   0.869  -2.502  1.00  0.00    -0.015 C 
ATOM     28  C   UNL     1      10.324  -0.129  -3.239  1.00  0.00     0.007 C 
ATOM     29  C   UNL     1       8.815   0.226  -1.263  1.00  0.00     0.007 C 
ENDBRANCH  26  27
ENDBRANCH  25  26
BRANCH  25  30
ATOM     30  C   UNL     1       7.849   3.332  -2.547  1.00  0.00     0.243 C 
ATOM     31  O   UNL     1       7.233   3.057  -3.575  1.00  0.00    -0.273 OA
ATOM     32  N   UNL     1       7.223   3.514  -1.341  1.00  0.00    -0.342 N 
ATOM     33  H   UNL     1       7.814   3.600  -0.509  1.00  0.00     0.164 HD
BRANCH  32  34
ATOM     34  C   UNL     1       5.772   3.418  -1.168  1.00  0.00     0.175 C 
BRANCH  34  35
ATOM     35  C   UNL     1       5.373   2.081  -0.524  1.00  0.00     0.070 C 
BRANCH  35  36
ATOM     36  C   UNL     1       4.180   1.440  -1.197  1.00  0.00    -0.045 A 
ATOM     37  C   UNL     1       3.236   0.738  -0.433  1.00  0.00     0.007 A 
ATOM     38  C   UNL     1       4.011   1.518  -2.586  1.00  0.00     0.007 A 
ATOM     39  C   UNL     1       2.140   0.132  -1.047  1.00  0.00     0.046 A 
ATOM     40  C   UNL     1       2.914   0.910  -3.202  1.00  0.00     0.046 A 
ATOM     41  C   UNL     1       1.987   0.223  -2.425  1.00  0.00     0.115 A 
BRANCH  41  42
ATOM     42  O   UNL     1       0.904  -0.386  -2.986  1.00  0.00    -0.508 OA
ATOM     43  H   UNL     1       1.075  -0.499  -3.936  1.00  0.00     0.293 HD
ENDBRANCH  41  42
ENDBRANCH  35  36
ENDBRANCH  34  35
BRANCH  34  44
ATOM     44  C   UNL     1       5.309   4.626  -0.322  1.00  0.00     0.243 C 
ATOM     45  O   UNL     1       5.291   5.787  -0.723  1.00  0.00    -0.273 OA
ATOM     46  N   UNL     1       5.034   4.305   0.990  1.00  0.00    -0.341 N 
ATOM     47  H   UNL     1       5.176   3.348   1.304  1.00  0.00     0.164 HD
BRANCH  46  48
ATOM     48  C   UNL     1       4.643   5.294   1.997  1.00  0.00     0.196 C 
BRANCH  48  49
ATOM     49  C   UNL     1       3.687   4.687   3.037  1.00  0.00     0.072 C 
BRANCH  49  50
ATOM     50  C   UNL     1       2.320   5.334   3.018  1.00  0.00    -0.045 A 
ATOM     51  C   UNL     1       2.176   6.675   3.401  1.00  0.00     0.007 A 
ATOM     52  C   UNL     1       1.184   4.607   2.641  1.00  0.00     0.007 A 
ATOM     53  C   UNL     1       0.919   7.279   3.400  1.00  0.00     0.046 A 
ATOM     54  C   UNL     1      -0.076   5.211   2.641  1.00  0.00     0.046 A 
ATOM     55  C   UNL     1      -0.197   6.543   3.020  1.00  0.00     0.115 A 
BRANCH  55  56
ATOM     56  O   UNL     1      -1.408   7.170   3.035  1.00  0.00    -0.508 OA
ATOM     57  H   UNL     1      -1.385   7.894   2.389  1.00  0.00     0.293 HD
ENDBRANCH  55  56
ENDBRANCH  49  50
ENDBRANCH  48  49
BRANCH  48  58
ATOM     58  C   UNL     1       5.905   5.815   2.700  1.00  0.00     0.326 C 
ATOM     59  O   UNL     1       6.789   5.152   3.218  1.00  0.00    -0.250 OA
BRANCH  58  60
ATOM     60  O   UNL     1       6.001   7.168   2.705  1.00  0.00    -0.480 OA
ATOM     61  H   UNL     1       6.467   7.358   3.549  1.00  0.00     0.296 HD
ENDBRANCH  58  60
ENDBRANCH  48  58
ENDBRANCH  46  48
ENDBRANCH  34  44
ENDBRANCH  32  34
ENDBRANCH  25  30
ENDBRANCH  23  25
ENDBRANCH   2  23
TORSDOF 28
ENDMDL
MODEL 50
REMARK VINA RESULT:    -5.251      4.192     10.429
REMARK INTER + INTRA:         -18.385
REMARK INTER:                 -13.267
REMARK INTRA:                  -5.118
REMARK UNBOUND:                -5.307
REMARK SMILES CCCCCCC[C@H](N)[C@H](O)C(=O)N[C@H](C)C(=O)N(C)[C@H](CC(C)C)C(=O)N[C@@H](Cc1ccc(O)cc1)C(=O)N[C@@H](Cc1ccc(O)cc1)C(=O)O
REMARK SMILES IDX 18 1 17 2 15 3 16 4 14 5 12 6 13 7 10 9 11 10 8 12 9 13 7 16
REMARK SMILES IDX 6 17 5 18 4 19 3 20 2 21 1 22 19 23 20 24 21 25 22 26 23 27
REMARK SMILES IDX 24 28 25 29 26 30 27 31 28 32 29 34 30 35 31 36 32 37 37 38
REMARK SMILES IDX 33 39 36 40 34 41 35 42 38 44 39 45 40 46 41 48 42 49 43 50
REMARK SMILES IDX 44 51 49 52 45 53 48 54 46 55 47 56 50 58 51 59 52 60
REMARK H PARENT 14 8 11 11 9 14 9 15 28 33 35 43 40 47 47 57 52 61
ROOT
ATOM      1  O   UNL     1      -3.434   7.268   0.697  1.00  0.00    -0.272 OA
ATOM      2  C   UNL     1      -2.946   6.136   0.828  1.00  0.00     0.245 C 
ENDROOT
BRANCH   2   3
ATOM      3  C   UNL     1      -2.206   5.795   2.145  1.00  0.00     0.168 C 
ATOM      4  C   UNL     1      -3.179   5.258   3.189  1.00  0.00     0.041 C 
BRANCH   3   5
ATOM      5  N   UNL     1      -1.047   4.930   1.989  1.00  0.00    -0.342 N 
ATOM      6  C   UNL     1       0.221   5.342   2.338  1.00  0.00     0.251 C 
ATOM      7  O   UNL     1       0.475   6.465   2.761  1.00  0.00    -0.272 OA
ATOM      8  H   UNL     1      -1.128   3.987   1.615  1.00  0.00     0.164 HD
BRANCH   6   9
ATOM      9  C   UNL     1       1.264   4.219   2.223  1.00  0.00     0.219 C 
BRANCH   9  10
ATOM     10  O   UNL     1       1.143   3.476   1.004  1.00  0.00    -0.382 OA
ATOM     11  H   UNL     1       1.832   3.869   0.424  1.00  0.00     0.211 HD
ENDBRANCH   9  10
BRANCH   9  12
ATOM     12  C   UNL     1       2.720   4.717   2.422  1.00  0.00     0.089 C 
BRANCH  12  13
ATOM     13  N   UNL     1       3.169   4.318   3.775  1.00  0.00    -0.325 NA
ATOM     14  H   UNL     1       2.865   5.021   4.451  1.00  0.00     0.119 HD
ATOM     15  H   UNL     1       4.191   4.343   3.806  1.00  0.00     0.119 HD
ENDBRANCH  12  13
BRANCH  12  16
ATOM     16  C   UNL     1       3.747   4.251   1.362  1.00  0.00     0.022 C 
BRANCH  16  17
ATOM     17  C   UNL     1       5.106   4.959   1.277  1.00  0.00     0.002 C 
BRANCH  17  18
ATOM     18  C   UNL     1       6.269   4.072   0.838  1.00  0.00     0.000 C 
BRANCH  18  19
ATOM     19  C   UNL     1       6.972   4.550  -0.439  1.00  0.00    -0.000 C 
BRANCH  19  20
ATOM     20  C   UNL     1       8.262   3.803  -0.789  1.00  0.00    -0.000 C 
BRANCH  20  21
ATOM     21  C   UNL     1       8.791   2.947   0.364  1.00  0.00    -0.003 C 
ATOM     22  C   UNL     1       9.931   3.642   1.093  1.00  0.00     0.004 C 
ENDBRANCH  20  21
ENDBRANCH  19  20
ENDBRANCH  18  19
ENDBRANCH  17  18
ENDBRANCH  16  17
ENDBRANCH  12  16
ENDBRANCH   9  12
ENDBRANCH   6   9
ENDBRANCH   3   5
ENDBRANCH   2   3
BRANCH   2  23
ATOM     23  N   UNL     1      -3.171   5.165  -0.143  1.00  0.00    -0.332 N 
ATOM     24  C   UNL     1      -4.302   4.249  -0.148  1.00  0.00     0.147 C 
BRANCH  23  25
ATOM     25  C   UNL     1      -2.299   5.091  -1.347  1.00  0.00     0.174 C 
BRANCH  25  26
ATOM     26  C   UNL     1      -3.064   5.369  -2.663  1.00  0.00     0.038 C 
BRANCH  26  27
ATOM     27  C   UNL     1      -2.694   6.659  -3.428  1.00  0.00    -0.015 C 
ATOM     28  C   UNL     1      -3.056   7.924  -2.651  1.00  0.00     0.007 C 
ATOM     29  C   UNL     1      -1.235   6.702  -3.875  1.00  0.00     0.007 C 
ENDBRANCH  26  27
ENDBRANCH  25  26
BRANCH  25  30
ATOM     30  C   UNL     1      -1.515   3.759  -1.354  1.00  0.00     0.243 C 
ATOM     31  O   UNL     1      -1.247   3.157  -0.316  1.00  0.00    -0.273 OA
ATOM     32  N   UNL     1      -1.135   3.300  -2.589  1.00  0.00    -0.342 N 
ATOM     33  H   UNL     1      -1.515   3.779  -3.410  1.00  0.00     0.164 HD
BRANCH  32  34
ATOM     34  C   UNL     1      -0.362   2.071  -2.786  1.00  0.00     0.175 C 
BRANCH  34  35
ATOM     35  C   UNL     1      -1.276   0.886  -3.132  1.00  0.00     0.070 C 
BRANCH  35  36
ATOM     36  C   UNL     1      -0.602  -0.452  -2.928  1.00  0.00    -0.045 A 
ATOM     37  C   UNL     1      -0.309  -1.266  -4.033  1.00  0.00     0.007 A 
ATOM     38  C   UNL     1      -0.281  -0.908  -1.642  1.00  0.00     0.007 A 
ATOM     39  C   UNL     1       0.301  -2.508  -3.854  1.00  0.00     0.046 A 
ATOM     40  C   UNL     1       0.328  -2.152  -1.462  1.00  0.00     0.046 A 
ATOM     41  C   UNL     1       0.615  -2.940  -2.571  1.00  0.00     0.115 A 
BRANCH  41  42
ATOM     42  O   UNL     1       1.208  -4.161  -2.439  1.00  0.00    -0.508 OA
ATOM     43  H   UNL     1       0.599  -4.834  -2.788  1.00  0.00     0.293 HD
ENDBRANCH  41  42
ENDBRANCH  35  36
ENDBRANCH  34  35
BRANCH  34  44
ATOM     44  C   UNL     1       0.685   2.335  -3.892  1.00  0.00     0.243 C 
ATOM     45  O   UNL     1       0.415   2.485  -5.080  1.00  0.00    -0.273 OA
ATOM     46  N   UNL     1       1.987   2.258  -3.444  1.00  0.00    -0.341 N 
ATOM     47  H   UNL     1       2.162   2.015  -2.473  1.00  0.00     0.164 HD
BRANCH  46  48
ATOM     48  C   UNL     1       3.150   2.404  -4.322  1.00  0.00     0.196 C 
BRANCH  48  49
ATOM     49  C   UNL     1       4.324   3.075  -3.588  1.00  0.00     0.072 C 
BRANCH  49  50
ATOM     50  C   UNL     1       5.050   2.125  -2.663  1.00  0.00    -0.045 A 
ATOM     51  C   UNL     1       6.303   1.612  -3.029  1.00  0.00     0.007 A 
ATOM     52  C   UNL     1       4.480   1.728  -1.446  1.00  0.00     0.007 A 
ATOM     53  C   UNL     1       6.976   0.725  -2.190  1.00  0.00     0.046 A 
ATOM     54  C   UNL     1       5.154   0.838  -0.606  1.00  0.00     0.046 A 
ATOM     55  C   UNL     1       6.398   0.345  -0.985  1.00  0.00     0.115 A 
BRANCH  55  56
ATOM     56  O   UNL     1       7.087  -0.525  -0.194  1.00  0.00    -0.508 OA
ATOM     57  H   UNL     1       7.946  -0.129   0.022  1.00  0.00     0.293 HD
ENDBRANCH  55  56
ENDBRANCH  49  50
ENDBRANCH  48  49
BRANCH  48  58
ATOM     58  C   UNL     1       3.579   1.017  -4.819  1.00  0.00     0.326 C 
ATOM     59  O   UNL     1       4.354   0.764  -5.727  1.00  0.00    -0.250 OA
BRANCH  58  60
ATOM     60  O   UNL     1       3.012  -0.004  -4.129  1.00  0.00    -0.480 OA
ATOM     61  H   UNL     1       3.312  -0.801  -4.617  1.00  0.00     0.296 HD
ENDBRANCH  58  60
ENDBRANCH  48  58
ENDBRANCH  46  48
ENDBRANCH  34  44
ENDBRANCH  32  34
ENDBRANCH  25  30
ENDBRANCH  23  25
ENDBRANCH   2  23
TORSDOF 28
ENDMDL
