10327288
     RDKit          3D

 91 93  0  0  1  0  0  0  0  0999 V2000
    2.0827   -4.1832   -5.4035 Cl  0  0  0  0  0  0  0  0  0  0  0  0
   -3.3099    0.1892   -1.5868 S   0  0  0  0  0  0  0  0  0  0  0  0
   -3.6472    1.0205   -0.2304 O   0  0  0  0  0  0  0  0  0  0  0  0
    1.7125    1.0964    3.1978 O   0  0  0  0  0  0  0  0  0  0  0  0
   -2.0598   -1.3851    3.5346 O   0  0  0  0  0  0  0  0  0  0  0  0
   -4.4267    0.7397   -2.6044 O   0  0  0  0  0  0  0  0  0  0  0  0
   -3.6405   -1.1991   -1.3541 O   0  0  0  0  0  0  0  0  0  0  0  0
   -2.0117    0.5874   -2.0910 O   0  0  0  0  0  0  0  0  0  0  0  0
    2.4556    0.0704    0.4214 O   0  0  0  0  0  0  0  0  0  0  0  0
    0.6537    1.4234   -2.4049 O   0  0  0  0  0  0  0  0  0  0  0  0
    3.7326   -5.3765   -3.1790 O   0  0  0  0  0  0  0  0  0  0  0  0
   -0.4157    1.5872    2.6165 N   0  0  0  0  0  0  0  0  0  0  0  0
    0.0990   -1.2651    2.7897 N   0  0  0  0  0  0  0  0  0  0  0  0
    1.3111    2.0220    0.0312 N   0  0  0  0  0  0  0  0  0  0  0  0
   -1.1607   -4.8143   -2.0958 N   0  0  0  0  0  0  0  0  0  0  0  0
   -3.4356   -4.1299   -1.9494 N   0  0  0  0  0  0  0  0  0  0  0  0
   -2.8768   -6.1074   -2.7877 N   0  0  0  0  0  0  0  0  0  0  0  0
   -2.7679    1.6884    2.6003 C   0  0  0  0  0  0  0  0  0  0  0  0
   -1.5167    2.3111    1.9741 C   0  0  0  0  0  0  0  0  0  0  0  0
   -2.3169    1.3875    4.0210 C   0  0  0  0  0  0  0  0  0  0  0  0
   -0.9330    0.7718    3.7429 C   0  0  0  0  0  0  0  0  0  0  0  0
   -1.6468    2.2325    0.4543 C   0  0  0  0  0  0  0  0  0  0  0  0
   -3.9817    2.5685    2.3760 C   0  0  0  0  0  0  0  0  0  0  0  0
   -3.1033    2.3284   -0.0512 C   0  0  0  0  0  0  0  0  0  0  0  0
   -4.0061    3.1044    0.9293 C   0  0  0  0  0  0  0  0  0  0  0  0
    0.9517    1.7325    2.4603 C   0  0  0  0  0  0  0  0  0  0  0  0
   -1.0420   -0.7222    3.3366 C   0  0  0  0  0  0  0  0  0  0  0  0
    1.5023    2.6556    1.3355 C   0  0  1  0  0  0  0  0  0  0  0  0
    2.9754    3.0825    1.5759 C   0  0  1  0  0  0  0  0  0  0  0  0
    3.6160    3.8118    0.3704 C   0  0  0  0  0  0  0  0  0  0  0  0
    0.1098   -2.5695    2.1621 C   0  0  0  0  0  0  0  0  0  0  0  0
    3.0929    3.9488    2.8399 C   0  0  0  0  0  0  0  0  0  0  0  0
    1.8111    0.7911   -0.3302 C   0  0  0  0  0  0  0  0  0  0  0  0
   -0.1424   -2.4259    0.6629 C   0  0  0  0  0  0  0  0  0  0  0  0
    2.9093    5.0867   -0.0709 C   0  0  0  0  0  0  0  0  0  0  0  0
    1.4533    0.4046   -1.7806 C   0  0  0  0  0  0  0  0  0  0  0  0
   -0.4988   -3.7532    0.0015 C   0  0  0  0  0  0  0  0  0  0  0  0
    2.7255    0.1814   -2.6054 C   0  0  0  0  0  0  0  0  0  0  0  0
   -0.6466   -3.5828   -1.5096 C   0  0  0  0  0  0  0  0  0  0  0  0
    3.0207   -1.2903   -2.7926 C   0  0  0  0  0  0  0  0  0  0  0  0
    2.4992   -1.9819   -3.8972 C   0  0  0  0  0  0  0  0  0  0  0  0
    3.7748   -1.9923   -1.8403 C   0  0  0  0  0  0  0  0  0  0  0  0
   -2.4228   -4.9626   -2.2502 C   0  0  0  0  0  0  0  0  0  0  0  0
    2.7335   -3.3500   -4.0412 C   0  0  0  0  0  0  0  0  0  0  0  0
    4.0094   -3.3608   -1.9885 C   0  0  0  0  0  0  0  0  0  0  0  0
    3.4859   -4.0344   -3.0855 C   0  0  0  0  0  0  0  0  0  0  0  0
   -2.9766    0.7183    2.1267 H   0  0  0  0  0  0  0  0  0  0  0  0
   -1.4133    3.3617    2.2779 H   0  0  0  0  0  0  0  0  0  0  0  0
   -3.0028    0.7209    4.5511 H   0  0  0  0  0  0  0  0  0  0  0  0
   -2.2147    2.3139    4.5990 H   0  0  0  0  0  0  0  0  0  0  0  0
   -0.2792    0.8427    4.6189 H   0  0  0  0  0  0  0  0  0  0  0  0
   -1.1879    1.3023    0.1101 H   0  0  0  0  0  0  0  0  0  0  0  0
   -1.0922    3.0702    0.0188 H   0  0  0  0  0  0  0  0  0  0  0  0
   -4.8915    1.9893    2.5741 H   0  0  0  0  0  0  0  0  0  0  0  0
   -3.9932    3.4131    3.0749 H   0  0  0  0  0  0  0  0  0  0  0  0
   -3.1229    2.8454   -1.0188 H   0  0  0  0  0  0  0  0  0  0  0  0
   -5.0425    3.0962    0.5712 H   0  0  0  0  0  0  0  0  0  0  0  0
   -3.6827    4.1530    0.9426 H   0  0  0  0  0  0  0  0  0  0  0  0
    0.8784    3.5567    1.3261 H   0  0  0  0  0  0  0  0  0  0  0  0
    3.5811    2.1824    1.7470 H   0  0  0  0  0  0  0  0  0  0  0  0
    0.9481   -0.6985    2.7618 H   0  0  0  0  0  0  0  0  0  0  0  0
    0.9332    2.5637   -0.7422 H   0  0  0  0  0  0  0  0  0  0  0  0
    3.6732    3.1286   -0.4853 H   0  0  0  0  0  0  0  0  0  0  0  0
    4.6556    4.0608    0.6192 H   0  0  0  0  0  0  0  0  0  0  0  0
   -0.6530   -3.2031    2.6265 H   0  0  0  0  0  0  0  0  0  0  0  0
    1.0901   -3.0204    2.3462 H   0  0  0  0  0  0  0  0  0  0  0  0
    2.4398    4.8260    2.7905 H   0  0  0  0  0  0  0  0  0  0  0  0
    2.8205    3.3857    3.7375 H   0  0  0  0  0  0  0  0  0  0  0  0
    4.1219    4.2978    2.9780 H   0  0  0  0  0  0  0  0  0  0  0  0
    0.7528   -2.0071    0.1913 H   0  0  0  0  0  0  0  0  0  0  0  0
   -0.9549   -1.7093    0.4848 H   0  0  0  0  0  0  0  0  0  0  0  0
    3.4390    5.5282   -0.9216 H   0  0  0  0  0  0  0  0  0  0  0  0
    1.8815    4.8914   -0.3889 H   0  0  0  0  0  0  0  0  0  0  0  0
    2.8899    5.8335    0.7279 H   0  0  0  0  0  0  0  0  0  0  0  0
   -5.2500    0.2335   -2.4461 H   0  0  0  0  0  0  0  0  0  0  0  0
    0.8355   -0.5001   -1.7339 H   0  0  0  0  0  0  0  0  0  0  0  0
    0.2741   -4.5025    0.2120 H   0  0  0  0  0  0  0  0  0  0  0  0
   -1.4335   -4.1331    0.4316 H   0  0  0  0  0  0  0  0  0  0  0  0
    2.6286    0.6462   -3.5953 H   0  0  0  0  0  0  0  0  0  0  0  0
    3.5946    0.6655   -2.1414 H   0  0  0  0  0  0  0  0  0  0  0  0
    0.3373   -3.3822   -1.9470 H   0  0  0  0  0  0  0  0  0  0  0  0
   -1.2608   -2.7112   -1.7594 H   0  0  0  0  0  0  0  0  0  0  0  0
   -0.2793    1.1182   -2.3341 H   0  0  0  0  0  0  0  0  0  0  0  0
    1.9028   -1.4561   -4.6391 H   0  0  0  0  0  0  0  0  0  0  0  0
    4.1753   -1.4807   -0.9657 H   0  0  0  0  0  0  0  0  0  0  0  0
    4.5884   -3.8999   -1.2439 H   0  0  0  0  0  0  0  0  0  0  0  0
   -4.3808   -4.4701   -1.8959 H   0  0  0  0  0  0  0  0  0  0  0  0
   -3.2699   -3.2129   -1.5459 H   0  0  0  0  0  0  0  0  0  0  0  0
   -2.1768   -6.7873   -3.0518 H   0  0  0  0  0  0  0  0  0  0  0  0
   -3.8071   -6.2038   -3.1550 H   0  0  0  0  0  0  0  0  0  0  0  0
    3.2160   -5.7048   -3.9385 H   0  0  0  0  0  0  0  0  0  0  0  0
  1 44  1  0
  2  3  1  0
  2  6  1  0
  2  7  2  0
  2  8  2  0
  3 24  1  0
  4 26  2  0
  5 27  2  0
  6 75  1  0
  9 33  2  0
 10 36  1  0
 10 83  1  0
 11 46  1  0
 11 91  1  0
 12 19  1  0
 12 21  1  0
 12 26  1  0
 13 27  1  0
 13 31  1  0
 13 61  1  0
 28 14  1  0
 14 33  1  0
 14 62  1  0
 15 39  1  0
 15 43  2  3
 16 43  1  0
 16 87  1  0
 16 88  1  0
 17 43  1  0
 17 89  1  0
 17 90  1  0
 18 19  1  0
 18 20  1  0
 18 23  1  0
 18 47  1  0
 19 22  1  0
 19 48  1  0
 20 21  1  0
 20 49  1  0
 20 50  1  0
 21 27  1  0
 21 51  1  0
 22 24  1  0
 22 52  1  0
 22 53  1  0
 23 25  1  0
 23 54  1  0
 23 55  1  0
 24 25  1  0
 24 56  1  0
 25 57  1  0
 25 58  1  0
 26 28  1  0
 28 29  1  0
 28 59  1  6
 29 30  1  0
 29 32  1  0
 29 60  1  1
 30 35  1  0
 30 63  1  0
 30 64  1  0
 31 34  1  0
 31 65  1  0
 31 66  1  0
 32 67  1  0
 32 68  1  0
 32 69  1  0
 33 36  1  0
 34 37  1  0
 34 70  1  0
 34 71  1  0
 35 72  1  0
 35 73  1  0
 35 74  1  0
 36 38  1  0
 36 76  1  0
 37 39  1  0
 37 77  1  0
 37 78  1  0
 38 40  1  0
 38 79  1  0
 38 80  1  0
 39 81  1  0
 39 82  1  0
 40 41  2  0
 40 42  1  0
 41 44  1  0
 41 84  1  0
 42 45  2  0
 42 85  1  0
 44 46  2  0
 45 46  1  0
 45 86  1  0
M  END
>  <PUBCHEM_COMPOUND_CID>  (1) 
10327288

>  <PUBCHEM_COMPOUND_CANONICALIZED>  (1) 
1

>  <PUBCHEM_CACTVS_COMPLEXITY>  (1) 
1180

>  <PUBCHEM_CACTVS_HBOND_ACCEPTOR>  (1) 
10

>  <PUBCHEM_CACTVS_HBOND_DONOR>  (1) 
7

>  <PUBCHEM_CACTVS_ROTATABLE_BOND>  (1) 
15

>  <PUBCHEM_CACTVS_SUBSKEYS>  (1) 
AAADcfB7vABEAAAAAAAAAAAAAAAAAWAAAAAwYAAAAAAAAFgBAAAAHgIQCAAADT7hmCYzBoPAAoCoAiFSNDICAAEgJUAIiIHOC4gKdjKDkzKUcAAm1hGYmAeY2aOeIAAAIAAACABAAABEAAQQAAAAAAAAAA==

>  <PUBCHEM_IUPAC_OPENEYE_NAME>  (1) 
[1-[(2R,3R)-2-[[3-(3-chloro-4-hydroxy-phenyl)-2-hydroxy-propanoyl]amino]-3-methyl-pentanoyl]-2-(4-guanidinobutylcarbamoyl)-2,3,3a,4,5,6,7,7a-octahydroindol-6-yl] hydrogen sulfate

>  <PUBCHEM_IUPAC_CAS_NAME>  (1) 
sulfuric acid [1-[(2R,3R)-2-[[3-(3-chloro-4-hydroxyphenyl)-2-hydroxy-1-oxopropyl]amino]-3-methyl-1-oxopentyl]-2-[[4-(diaminomethylideneamino)butylamino]-oxomethyl]-2,3,3a,4,5,6,7,7a-octahydroindol-6-yl] ester

>  <PUBCHEM_IUPAC_NAME_MARKUP>  (1) 
[1-[(2<I>R</I>,3<I>R</I>)-2-[[3-(3-chloro-4-hydroxyphenyl)-2-hydroxypropanoyl]amino]-3-methylpentanoyl]-2-[4-(diaminomethylideneamino)butylcarbamoyl]-2,3,3<I>a</I>,4,5,6,7,7<I>a</I>-octahydroindol-6-yl] hydrogen sulfate

>  <PUBCHEM_IUPAC_NAME>  (1) 
[1-[(2R,3R)-2-[[3-(3-chloro-4-hydroxyphenyl)-2-hydroxypropanoyl]amino]-3-methylpentanoyl]-2-[4-(diaminomethylideneamino)butylcarbamoyl]-2,3,3a,4,5,6,7,7a-octahydroindol-6-yl] hydrogen sulfate

>  <PUBCHEM_IUPAC_SYSTEMATIC_NAME>  (1) 
[2-[4-[bis(azanyl)methylideneamino]butylcarbamoyl]-1-[(2R,3R)-2-[[3-(3-chloranyl-4-oxidanyl-phenyl)-2-oxidanyl-propanoyl]amino]-3-methyl-pentanoyl]-2,3,3a,4,5,6,7,7a-octahydroindol-6-yl] hydrogen sulfate

>  <PUBCHEM_IUPAC_TRADITIONAL_NAME>  (1) 
sulfuric acid [1-[(2R,3R)-2-[[3-(3-chloro-4-hydroxy-phenyl)-2-hydroxy-propanoyl]amino]-3-methyl-pentanoyl]-2-(4-guanidinobutylcarbamoyl)-2,3,3a,4,5,6,7,7a-octahydroindol-6-yl] ester

>  <PUBCHEM_IUPAC_INCHI>  (1) 
InChI=1S/C29H45ClN6O9S/c1-3-16(2)25(35-27(40)24(38)13-17-6-9-23(37)20(30)12-17)28(41)36-21-15-19(45-46(42,43)44)8-7-18(21)14-22(36)26(39)33-10-4-5-11-34-29(31)32/h6,9,12,16,18-19,21-22,24-25,37-38H,3-5,7-8,10-11,13-15H2,1-2H3,(H,33,39)(H,35,40)(H4,31,32,34)(H,42,43,44)/t16-,18?,19?,21?,22?,24?,25-/m1/s1

>  <PUBCHEM_IUPAC_INCHIKEY>  (1) 
LNRXFFGKAKWQCV-DJKRDFIDSA-N

>  <PUBCHEM_XLOGP3_AA>  (1) 
1.2

>  <PUBCHEM_EXACT_MASS>  (1) 
688.2657259

>  <PUBCHEM_MOLECULAR_FORMULA>  (1) 
C29H45ClN6O9S

>  <PUBCHEM_MOLECULAR_WEIGHT>  (1) 
689.2

>  <PUBCHEM_SMILES>  (1) 
CC[C@@H](C)[C@H](C(=O)N1C2CC(CCC2CC1C(=O)NCCCCN=C(N)N)OS(=O)(=O)O)NC(=O)C(CC3=CC(=C(C=C3)O)Cl)O

>  <PUBCHEM_CONNECTIVITY_SMILES>  (1) 
CCC(C)C(C(=O)N1C2CC(CCC2CC1C(=O)NCCCCN=C(N)N)OS(=O)(=O)O)NC(=O)C(CC3=CC(=C(C=C3)O)Cl)O

>  <PUBCHEM_CACTVS_TPSA>  (1) 
255

>  <PUBCHEM_MONOISOTOPIC_WEIGHT>  (1) 
688.2657259

>  <PUBCHEM_TOTAL_CHARGE>  (1) 
0

>  <PUBCHEM_HEAVY_ATOM_COUNT>  (1) 
46

>  <PUBCHEM_ATOM_DEF_STEREO_COUNT>  (1) 
2

>  <PUBCHEM_ATOM_UDEF_STEREO_COUNT>  (1) 
5

>  <PUBCHEM_BOND_DEF_STEREO_COUNT>  (1) 
0

>  <PUBCHEM_BOND_UDEF_STEREO_COUNT>  (1) 
0

>  <PUBCHEM_ISOTOPIC_ATOM_COUNT>  (1) 
0

>  <PUBCHEM_COMPONENT_COUNT>  (1) 
1

>  <PUBCHEM_CACTVS_TAUTO_COUNT>  (1) 
-1

>  <PUBCHEM_COORDINATE_TYPE>  (1) 
1
5
255

>  <PUBCHEM_BONDANNOTATIONS>  (1) 
36  10  3
28  14  6
18  23  3
19  22  3
21  27  3
29  32  5
24  3  3
40  41  8
40  42  8
41  44  8
42  45  8
44  46  8
45  46  8

$$$$
