24970830
     RDKit          3D

 70 73  0  0  1  0  0  0  0  0999 V2000
    1.2445    0.0708   -2.7038 S   0  0  0  0  0  0  0  0  0  0  0  0
    1.1257    3.2393    3.8374 S   0  0  0  0  0  0  0  0  0  0  0  0
   -4.3886    0.2469    0.0789 O   0  0  0  0  0  0  0  0  0  0  0  0
   -2.4768   -1.8276   -2.7513 O   0  0  0  0  0  0  0  0  0  0  0  0
   -3.5907    3.9220    1.0631 O   0  0  0  0  0  0  0  0  0  0  0  0
    3.6060   -0.2718    2.1626 O   0  0  0  0  0  0  0  0  0  0  0  0
   -1.4486   -1.7541   -0.7074 N   0  0  0  0  0  0  0  0  0  0  0  0
   -2.3235    0.9828   -0.5939 N   0  0  0  0  0  0  0  0  0  0  0  0
    0.9729   -2.2920   -1.6260 N   0  0  0  0  0  0  0  0  0  0  0  0
    2.3365    0.1738    0.2962 N   0  0  0  0  0  0  0  0  0  0  0  0
   -1.5058    3.0109    0.8673 N   0  0  0  0  0  0  0  0  0  0  0  0
    0.9619    2.1030    1.5342 N   0  0  0  0  0  0  0  0  0  0  0  0
   -2.6481   -1.4346    0.0522 C   0  0  1  0  0  0  0  0  0  0  0  0
   -2.4764   -1.6938    1.5723 C   0  0  2  0  0  0  0  0  0  0  0  0
   -3.0841    0.0060   -0.1976 C   0  0  0  0  0  0  0  0  0  0  0  0
    2.7409   -0.9646   -0.5125 C   0  0  2  0  0  0  0  0  0  0  0  0
    4.2028   -0.8892   -1.0225 C   0  0  2  0  0  0  0  0  0  0  0  0
   -4.6322    1.5815   -0.3652 C   0  0  1  0  0  0  0  0  0  0  0  0
   -1.3217   -0.8760    2.1963 C   0  0  0  0  0  0  0  0  0  0  0  0
   -3.2431    2.1554   -0.5857 C   0  0  1  0  0  0  0  0  0  0  0  0
   -0.0763   -2.1900   -2.6893 C   0  0  1  0  0  0  0  0  0  0  0  0
    1.6609   -1.1949   -1.5726 C   0  0  0  0  0  0  0  0  0  0  0  0
   -2.3101   -3.1961    1.8349 C   0  0  0  0  0  0  0  0  0  0  0  0
   -1.4571   -1.9148   -2.0720 C   0  0  0  0  0  0  0  0  0  0  0  0
    0.2917   -1.1046   -3.6890 C   0  0  0  0  0  0  0  0  0  0  0  0
    4.5472    0.3952   -1.8038 C   0  0  0  0  0  0  0  0  0  0  0  0
    4.5552   -2.1475   -1.8265 C   0  0  0  0  0  0  0  0  0  0  0  0
   -5.4523    1.5248   -1.6472 C   0  0  0  0  0  0  0  0  0  0  0  0
   -1.2612   -0.9686    3.7154 C   0  0  0  0  0  0  0  0  0  0  0  0
   -2.8309    3.1135    0.5408 C   0  0  0  0  0  0  0  0  0  0  0  0
    6.0485    0.6222   -1.9446 C   0  0  0  0  0  0  0  0  0  0  0  0
    2.7540    0.3924    1.5864 C   0  0  0  0  0  0  0  0  0  0  0  0
   -0.8571    3.7568    1.9217 C   0  0  0  0  0  0  0  0  0  0  0  0
    2.0228    1.4971    2.2101 C   0  0  0  0  0  0  0  0  0  0  0  0
    0.3843    3.0038    2.3070 C   0  0  0  0  0  0  0  0  0  0  0  0
    2.2597    2.0032    3.4730 C   0  0  0  0  0  0  0  0  0  0  0  0
   -3.4537   -2.0721   -0.3362 H   0  0  0  0  0  0  0  0  0  0  0  0
   -3.4065   -1.3810    2.0669 H   0  0  0  0  0  0  0  0  0  0  0  0
    2.6892   -1.8336    0.1599 H   0  0  0  0  0  0  0  0  0  0  0  0
    4.8432   -0.8970   -0.1295 H   0  0  0  0  0  0  0  0  0  0  0  0
   -5.2027    2.1049    0.4086 H   0  0  0  0  0  0  0  0  0  0  0  0
   -1.4385    0.1811    1.9375 H   0  0  0  0  0  0  0  0  0  0  0  0
   -0.3558   -1.1969    1.7904 H   0  0  0  0  0  0  0  0  0  0  0  0
   -3.1564    2.7082   -1.5279 H   0  0  0  0  0  0  0  0  0  0  0  0
   -0.5600   -1.9069   -0.2433 H   0  0  0  0  0  0  0  0  0  0  0  0
   -0.1493   -3.1590   -3.1970 H   0  0  0  0  0  0  0  0  0  0  0  0
   -2.3741   -3.4208    2.9040 H   0  0  0  0  0  0  0  0  0  0  0  0
   -1.3456   -3.5638    1.4693 H   0  0  0  0  0  0  0  0  0  0  0  0
   -3.1019   -3.7679    1.3391 H   0  0  0  0  0  0  0  0  0  0  0  0
   -0.5660   -0.6203   -4.1631 H   0  0  0  0  0  0  0  0  0  0  0  0
    0.9482   -1.5071   -4.4670 H   0  0  0  0  0  0  0  0  0  0  0  0
    4.1158    0.3628   -2.8091 H   0  0  0  0  0  0  0  0  0  0  0  0
    4.1262    1.2700   -1.2960 H   0  0  0  0  0  0  0  0  0  0  0  0
    4.2788   -3.0523   -1.2745 H   0  0  0  0  0  0  0  0  0  0  0  0
    5.6304   -2.2052   -2.0213 H   0  0  0  0  0  0  0  0  0  0  0  0
    4.0378   -2.1662   -2.7913 H   0  0  0  0  0  0  0  0  0  0  0  0
    1.6350    0.8235   -0.0561 H   0  0  0  0  0  0  0  0  0  0  0  0
   -4.9382    0.9480   -2.4242 H   0  0  0  0  0  0  0  0  0  0  0  0
   -5.6545    2.5294   -2.0307 H   0  0  0  0  0  0  0  0  0  0  0  0
   -6.4074    1.0208   -1.4643 H   0  0  0  0  0  0  0  0  0  0  0  0
   -0.4953   -0.2878    4.1011 H   0  0  0  0  0  0  0  0  0  0  0  0
   -2.2190   -0.6890    4.1650 H   0  0  0  0  0  0  0  0  0  0  0  0
   -1.0009   -1.9777    4.0472 H   0  0  0  0  0  0  0  0  0  0  0  0
    6.2368    1.5795   -2.4413 H   0  0  0  0  0  0  0  0  0  0  0  0
    6.5358    0.6492   -0.9649 H   0  0  0  0  0  0  0  0  0  0  0  0
    6.5202   -0.1601   -2.5459 H   0  0  0  0  0  0  0  0  0  0  0  0
   -0.9699    2.2928    0.3807 H   0  0  0  0  0  0  0  0  0  0  0  0
   -1.5482    3.8673    2.7633 H   0  0  0  0  0  0  0  0  0  0  0  0
   -0.6025    4.7461    1.5295 H   0  0  0  0  0  0  0  0  0  0  0  0
    3.0179    1.6999    4.1820 H   0  0  0  0  0  0  0  0  0  0  0  0
  1 22  1  0
  1 25  1  0
  2 35  1  0
  2 36  1  0
  3 15  1  0
  3 18  1  0
  4 24  2  0
  5 30  2  0
  6 32  2  0
  7 13  1  0
  7 24  1  0
  7 45  1  0
  8 15  2  0
  8 20  1  0
  9 21  1  0
  9 22  2  0
 10 16  1  0
 10 32  1  0
 10 57  1  0
 11 30  1  0
 11 33  1  0
 11 67  1  0
 12 34  1  0
 12 35  2  0
 13 14  1  0
 13 15  1  0
 13 37  1  6
 14 19  1  0
 14 23  1  0
 14 38  1  1
 16 17  1  0
 16 22  1  0
 16 39  1  1
 17 26  1  0
 17 27  1  0
 17 40  1  1
 18 20  1  0
 18 28  1  0
 18 41  1  1
 19 29  1  0
 19 42  1  0
 19 43  1  0
 20 30  1  0
 20 44  1  6
 21 24  1  0
 21 25  1  0
 21 46  1  6
 23 47  1  0
 23 48  1  0
 23 49  1  0
 25 50  1  0
 25 51  1  0
 26 31  1  0
 26 52  1  0
 26 53  1  0
 27 54  1  0
 27 55  1  0
 27 56  1  0
 28 58  1  0
 28 59  1  0
 28 60  1  0
 29 61  1  0
 29 62  1  0
 29 63  1  0
 31 64  1  0
 31 65  1  0
 31 66  1  0
 32 34  1  0
 33 35  1  0
 33 68  1  0
 33 69  1  0
 34 36  2  0
 36 70  1  0
M  END
>  <PUBCHEM_COMPOUND_CID>  (1) 
24970830

>  <PUBCHEM_CONFORMER_RMSD>  (1) 
1

>  <PUBCHEM_CONFORMER_DIVERSEORDER>  (1) 
1
16
14
29
19
11
24
22
9
28
10
18
21
13
26
12
20
6
27
7
23
4
2
17
30
3
15
5
8
25

>  <PUBCHEM_MMFF94_PARTIAL_CHARGES>  (1) 
31
1 -0.37
10 -0.73
11 -0.73
12 -0.57
13 0.36
15 0.54
16 0.36
18 0.28
2 -0.08
20 0.31
21 0.31
22 0.53
24 0.57
25 0.23
3 -0.43
30 0.57
32 0.72
33 0.48
34 0.14
35 0.2
36 -0.11
4 -0.57
45 0.37
5 -0.57
57 0.37
6 -0.57
67 0.37
7 -0.73
70 0.15
8 -0.7
9 -0.7

>  <PUBCHEM_EFFECTIVE_ROTOR_COUNT>  (1) 
6

>  <PUBCHEM_PHARMACOPHORE_FEATURES>  (1) 
15
1 10 donor
1 11 donor
1 12 acceptor
1 23 hydrophobe
1 27 hydrophobe
1 29 hydrophobe
1 31 hydrophobe
1 4 acceptor
1 5 acceptor
1 6 acceptor
1 7 donor
1 9 acceptor
5 1 9 21 22 25 rings
5 2 12 34 35 36 rings
5 3 8 15 18 20 rings

>  <PUBCHEM_HEAVY_ATOM_COUNT>  (1) 
36

>  <PUBCHEM_ATOM_DEF_STEREO_COUNT>  (1) 
7

>  <PUBCHEM_ATOM_UDEF_STEREO_COUNT>  (1) 
0

>  <PUBCHEM_BOND_DEF_STEREO_COUNT>  (1) 
0

>  <PUBCHEM_BOND_UDEF_STEREO_COUNT>  (1) 
0

>  <PUBCHEM_ISOTOPIC_ATOM_COUNT>  (1) 
0

>  <PUBCHEM_COMPONENT_COUNT>  (1) 
1

>  <PUBCHEM_CACTVS_TAUTO_COUNT>  (1) 
8

>  <PUBCHEM_CONFORMER_ID>  (1) 
017D064E00000001

>  <PUBCHEM_MMFF94_ENERGY>  (1) 
56.3448

>  <PUBCHEM_FEATURE_SELFOVERLAP>  (1) 
76.125

>  <PUBCHEM_SHAPE_FINGERPRINT>  (1) 
10653451 467 18271235132582214280
10670039 82 18188500068851408838
11513181 2 17911522313709709158
12107698 1 18060135414464739687
12156800 1 12263254081180917133
12677640 9 18199191681698038465
12712778 12 17110979571321051410
12925494 130 18339072667685279849
13122387 1 18193264192177322992
13402501 40 18410570691354640300
1361 2 18047750683504735851
14040221 299 17840577425545228776
14114211 80 17911252619448235673
14725015 67 18187348961628044507
15840311 113 18058749000108599523
15975801 100 17604144832008690908
161222 619 17684665598525997507
17974551 9 17345182312015323016
19319366 153 17608663708175629435
1979834 28 18124032592341963793
19930381 70 18336256920989407457
20764821 26 18264200327620824052
21133410 38 17841152461684183535
22113638 7 16681740702576937660
22440779 20 15120712969668591724
23559900 14 18410295856323782917
238918 7 18126826404591771904
46194498 28 17988933275149756734
463206 1 17978224963533252361
469060 322 18261690185545650291
5047190 69 18340200784037729474
5081480 168 17838376117166042886
508706 21 18337664200988249133
5252454 2 18047759195644593543
5776283 40 18193572266656566220
6287921 2 18268709591904129456
6823239 73 18412543180902760808

>  <PUBCHEM_SHAPE_MULTIPOLES>  (1) 
695.2
10.67
7.27
1.81
5.63
2.8
0.17
-6.26
-0.13
-0.84
-1.15
-1.87
0.57
2.78

>  <PUBCHEM_SHAPE_SELFOVERLAP>  (1) 
1434.527

>  <PUBCHEM_SHAPE_VOLUME>  (1) 
402.6

>  <PUBCHEM_COORDINATE_TYPE>  (1) 
2
5
10

$$$$
