23724557
     RDKit          3D

140142  0  0  1  0  0  0  0  0999 V2000
   -3.8752    3.2827    2.5066 O   0  0  0  0  0  0  0  0  0  0  0  0
   -3.7761    0.8221   -0.9138 O   0  0  0  0  0  0  0  0  0  0  0  0
   -3.3860    0.0926    2.5807 O   0  0  0  0  0  0  0  0  0  0  0  0
   -1.4386    2.4487    1.0266 O   0  0  0  0  0  0  0  0  0  0  0  0
    0.4729   -1.6336   -0.8945 O   0  0  0  0  0  0  0  0  0  0  0  0
   -1.5440   -3.7250   -0.1405 O   0  0  0  0  0  0  0  0  0  0  0  0
    2.8120    1.1491   -1.1747 O   0  0  0  0  0  0  0  0  0  0  0  0
    0.7864   -2.2871   -3.0609 O   0  0  0  0  0  0  0  0  0  0  0  0
    3.6421   -1.8832    2.5655 O   0  0  0  0  0  0  0  0  0  0  0  0
    8.0082    0.5597    1.1579 O   0  0  0  0  0  0  0  0  0  0  0  0
    6.4477   -4.6110    2.9008 O   0  0  0  0  0  0  0  0  0  0  0  0
    5.9456   -3.8240    0.8721 O   0  0  0  0  0  0  0  0  0  0  0  0
   -4.7463    2.0031    0.7992 N   0  0  0  0  0  0  0  0  0  0  0  0
   -1.8939    2.9697   -1.1531 N   0  0  0  0  0  0  0  0  0  0  0  0
   -4.0980   -1.4720    1.1059 N   0  0  0  0  0  0  0  0  0  0  0  0
    0.9162    1.3029    0.0959 N   0  0  0  0  0  0  0  0  0  0  0  0
   -2.1807   -1.7006   -0.9897 N   0  0  0  0  0  0  0  0  0  0  0  0
    3.7703   -0.7020    0.6164 N   0  0  0  0  0  0  0  0  0  0  0  0
    1.2667    7.4052   -0.9962 N   0  0  0  0  0  0  0  0  0  0  0  0
    6.4731   -1.0032    0.5149 N   0  0  0  0  0  0  0  0  0  0  0  0
    1.4957    9.6159   -1.4285 N   0  0  0  0  0  0  0  0  0  0  0  0
    2.8560    8.7679    0.1154 N   0  0  0  0  0  0  0  0  0  0  0  0
   -5.3508    0.7940    1.3969 C   0  0  0  0  0  0  0  0  0  0  0  0
   -4.8910    3.2389    1.5317 C   0  0  0  0  0  0  0  0  0  0  0  0
   -3.3121    3.2005   -0.8995 C   0  0  0  0  0  0  0  0  0  0  0  0
   -4.8324    4.4740    0.6475 C   0  0  0  0  0  0  0  0  0  0  0  0
   -3.5256    4.4947   -0.1171 C   0  0  0  0  0  0  0  0  0  0  0  0
   -6.7700    0.4555    0.9004 C   0  0  0  0  0  0  0  0  0  0  0  0
   -3.9647    1.9027   -0.3409 C   0  0  0  0  0  0  0  0  0  0  0  0
   -7.0778    0.5041   -0.6125 C   0  0  0  0  0  0  0  0  0  0  0  0
   -4.2387   -0.2542    1.7468 C   0  0  0  0  0  0  0  0  0  0  0  0
   -2.8318   -2.2265    1.3166 C   0  0  0  0  0  0  0  0  0  0  0  0
   -7.4709    1.9072   -1.0850 C   0  0  0  0  0  0  0  0  0  0  0  0
   -8.2317   -0.4533   -0.9382 C   0  0  0  0  0  0  0  0  0  0  0  0
   -1.0392    2.6514   -0.1204 C   0  0  0  0  0  0  0  0  0  0  0  0
    0.4434    2.5436   -0.5034 C   0  0  0  0  0  0  0  0  0  0  0  0
   -2.9029   -3.3137    2.4093 C   0  0  0  0  0  0  0  0  0  0  0  0
   -5.0902   -2.0913    0.2452 C   0  0  0  0  0  0  0  0  0  0  0  0
   -2.1687   -2.6761   -0.0074 C   0  0  0  0  0  0  0  0  0  0  0  0
    1.2188    3.7574    0.0221 C   0  0  0  0  0  0  0  0  0  0  0  0
   -1.5083   -1.8609   -2.2822 C   0  0  0  0  0  0  0  0  0  0  0  0
   -3.9921   -4.3528    2.2756 C   0  0  0  0  0  0  0  0  0  0  0  0
    0.8530    5.0418   -0.7252 C   0  0  0  0  0  0  0  0  0  0  0  0
   -2.1023   -2.9892   -3.1725 C   0  0  0  0  0  0  0  0  0  0  0  0
    2.3363   -0.6840    0.3402 C   0  0  0  0  0  0  0  0  0  0  0  0
    2.0628    0.6747   -0.3204 C   0  0  0  0  0  0  0  0  0  0  0  0
    1.8924   -1.7811   -0.6482 C   0  0  0  0  0  0  0  0  0  0  0  0
    0.0345   -1.9854   -2.1408 C   0  0  0  0  0  0  0  0  0  0  0  0
    1.6909    6.2260   -0.2475 C   0  0  0  0  0  0  0  0  0  0  0  0
   -1.7940   -2.7483   -4.6597 C   0  0  0  0  0  0  0  0  0  0  0  0
   -3.6234   -3.1287   -3.0348 C   0  0  0  0  0  0  0  0  0  0  0  0
   -3.8142   -5.4794    1.4623 C   0  0  0  0  0  0  0  0  0  0  0  0
   -5.2036   -4.2002    2.9663 C   0  0  0  0  0  0  0  0  0  0  0  0
    2.1139   -3.1879   -0.0968 C   0  0  0  0  0  0  0  0  0  0  0  0
    4.3225   -1.3302    1.7064 C   0  0  0  0  0  0  0  0  0  0  0  0
   -4.8317   -6.4258    1.3312 C   0  0  0  0  0  0  0  0  0  0  0  0
   -6.2195   -5.1480    2.8349 C   0  0  0  0  0  0  0  0  0  0  0  0
    5.8473   -1.1399    1.8338 C   0  0  0  0  0  0  0  0  0  0  0  0
   -6.0341   -6.2594    2.0154 C   0  0  0  0  0  0  0  0  0  0  0  0
    6.4828   -2.2555    2.6609 C   0  0  0  0  0  0  0  0  0  0  0  0
    1.8630    8.5142   -0.7552 C   0  0  0  0  0  0  0  0  0  0  0  0
    7.5465   -0.1746    0.2924 C   0  0  0  0  0  0  0  0  0  0  0  0
    8.0674   -0.2363   -1.1317 C   0  0  0  0  0  0  0  0  0  0  0  0
    6.2445   -3.6003    2.0347 C   0  0  0  0  0  0  0  0  0  0  0  0
    9.5211    0.2141   -1.2760 C   0  0  0  0  0  0  0  0  0  0  0  0
   10.5486   -0.8992   -1.0360 C   0  0  0  0  0  0  0  0  0  0  0  0
   10.5630   -1.4422    0.3924 C   0  0  0  0  0  0  0  0  0  0  0  0
   11.6925   -2.4412    0.5945 C   0  0  0  0  0  0  0  0  0  0  0  0
   -5.5811    1.0993    2.4340 H   0  0  0  0  0  0  0  0  0  0  0  0
   -5.8589    3.2396    2.0453 H   0  0  0  0  0  0  0  0  0  0  0  0
   -3.7729    3.3333   -1.8878 H   0  0  0  0  0  0  0  0  0  0  0  0
   -4.8994    5.3799    1.2611 H   0  0  0  0  0  0  0  0  0  0  0  0
   -5.6737    4.4868   -0.0537 H   0  0  0  0  0  0  0  0  0  0  0  0
   -3.5093    5.3474   -0.8074 H   0  0  0  0  0  0  0  0  0  0  0  0
   -2.7045    4.6803    0.5860 H   0  0  0  0  0  0  0  0  0  0  0  0
   -7.4565    1.1699    1.3803 H   0  0  0  0  0  0  0  0  0  0  0  0
   -7.0661   -0.5075    1.3267 H   0  0  0  0  0  0  0  0  0  0  0  0
   -6.2121    0.1870   -1.1958 H   0  0  0  0  0  0  0  0  0  0  0  0
   -1.5313    3.1149   -2.0870 H   0  0  0  0  0  0  0  0  0  0  0  0
   -2.0860   -1.5117    1.6953 H   0  0  0  0  0  0  0  0  0  0  0  0
   -7.7335    1.8969   -2.1487 H   0  0  0  0  0  0  0  0  0  0  0  0
   -8.3360    2.2882   -0.5317 H   0  0  0  0  0  0  0  0  0  0  0  0
   -6.6534    2.6178   -0.9656 H   0  0  0  0  0  0  0  0  0  0  0  0
   -9.1409   -0.1796   -0.3917 H   0  0  0  0  0  0  0  0  0  0  0  0
   -7.9746   -1.4838   -0.6734 H   0  0  0  0  0  0  0  0  0  0  0  0
   -8.4617   -0.4369   -2.0090 H   0  0  0  0  0  0  0  0  0  0  0  0
   -3.1659    2.6734    2.2111 H   0  0  0  0  0  0  0  0  0  0  0  0
    0.5530    2.4566   -1.5905 H   0  0  0  0  0  0  0  0  0  0  0  0
   -1.9378   -3.8332    2.4794 H   0  0  0  0  0  0  0  0  0  0  0  0
   -3.0286   -2.8167    3.3812 H   0  0  0  0  0  0  0  0  0  0  0  0
   -6.0472   -2.1456    0.7602 H   0  0  0  0  0  0  0  0  0  0  0  0
   -5.1714   -1.5202   -0.6768 H   0  0  0  0  0  0  0  0  0  0  0  0
   -4.8076   -3.1112   -0.0193 H   0  0  0  0  0  0  0  0  0  0  0  0
    2.2965    3.5808   -0.0811 H   0  0  0  0  0  0  0  0  0  0  0  0
    1.0287    3.8916    1.0949 H   0  0  0  0  0  0  0  0  0  0  0  0
   -1.6701   -0.8960   -2.7813 H   0  0  0  0  0  0  0  0  0  0  0  0
    0.3554    0.9054    0.8466 H   0  0  0  0  0  0  0  0  0  0  0  0
   -2.7137   -0.8447   -0.8175 H   0  0  0  0  0  0  0  0  0  0  0  0
   -0.2091    5.2739   -0.5824 H   0  0  0  0  0  0  0  0  0  0  0  0
    1.0027    4.8999   -1.8029 H   0  0  0  0  0  0  0  0  0  0  0  0
   -1.6501   -3.9483   -2.8889 H   0  0  0  0  0  0  0  0  0  0  0  0
    1.7758   -0.7549    1.2796 H   0  0  0  0  0  0  0  0  0  0  0  0
    2.4617   -1.6660   -1.5797 H   0  0  0  0  0  0  0  0  0  0  0  0
    1.5329    6.3756    0.8273 H   0  0  0  0  0  0  0  0  0  0  0  0
    2.7526    6.0167   -0.4249 H   0  0  0  0  0  0  0  0  0  0  0  0
   -2.2300   -3.5403   -5.2789 H   0  0  0  0  0  0  0  0  0  0  0  0
   -0.7215   -2.7431   -4.8654 H   0  0  0  0  0  0  0  0  0  0  0  0
   -2.2085   -1.7925   -4.9985 H   0  0  0  0  0  0  0  0  0  0  0  0
   -4.1270   -2.1662   -3.1737 H   0  0  0  0  0  0  0  0  0  0  0  0
   -4.0234   -3.8291   -3.7765 H   0  0  0  0  0  0  0  0  0  0  0  0
   -3.8946   -3.5279   -2.0555 H   0  0  0  0  0  0  0  0  0  0  0  0
   -2.8791   -5.6309    0.9258 H   0  0  0  0  0  0  0  0  0  0  0  0
   -5.3610   -3.3384    3.6116 H   0  0  0  0  0  0  0  0  0  0  0  0
    4.3766   -0.1657   -0.0006 H   0  0  0  0  0  0  0  0  0  0  0  0
    1.5850   -3.3221    0.8532 H   0  0  0  0  0  0  0  0  0  0  0  0
    3.1751   -3.4009    0.0557 H   0  0  0  0  0  0  0  0  0  0  0  0
    1.7144   -3.9402   -0.7855 H   0  0  0  0  0  0  0  0  0  0  0  0
   -4.6810   -7.2962    0.6977 H   0  0  0  0  0  0  0  0  0  0  0  0
   -7.1530   -5.0220    3.3767 H   0  0  0  0  0  0  0  0  0  0  0  0
    5.9871   -0.1925    2.3698 H   0  0  0  0  0  0  0  0  0  0  0  0
   -6.8226   -7.0005    1.9160 H   0  0  0  0  0  0  0  0  0  0  0  0
    6.0474   -2.2614    3.6669 H   0  0  0  0  0  0  0  0  0  0  0  0
    7.5647   -2.1074    2.7469 H   0  0  0  0  0  0  0  0  0  0  0  0
    6.1877   -1.6661   -0.2012 H   0  0  0  0  0  0  0  0  0  0  0  0
    7.9357   -1.2442   -1.5412 H   0  0  0  0  0  0  0  0  0  0  0  0
    7.4277    0.4372   -1.7158 H   0  0  0  0  0  0  0  0  0  0  0  0
    9.6622    0.5683   -2.3051 H   0  0  0  0  0  0  0  0  0  0  0  0
    9.7399    1.0669   -0.6231 H   0  0  0  0  0  0  0  0  0  0  0  0
   11.5418   -0.4993   -1.2765 H   0  0  0  0  0  0  0  0  0  0  0  0
   10.3659   -1.7214   -1.7390 H   0  0  0  0  0  0  0  0  0  0  0  0
    0.7477    9.5139   -2.1004 H   0  0  0  0  0  0  0  0  0  0  0  0
    1.8128   10.5403   -1.1935 H   0  0  0  0  0  0  0  0  0  0  0  0
    3.2375    8.0306    0.6888 H   0  0  0  0  0  0  0  0  0  0  0  0
    3.3261    9.6579    0.1346 H   0  0  0  0  0  0  0  0  0  0  0  0
    9.6155   -1.9421    0.6186 H   0  0  0  0  0  0  0  0  0  0  0  0
   10.6821   -0.6184    1.1050 H   0  0  0  0  0  0  0  0  0  0  0  0
    6.2480   -5.4225    2.3889 H   0  0  0  0  0  0  0  0  0  0  0  0
   12.6665   -1.9742    0.4165 H   0  0  0  0  0  0  0  0  0  0  0  0
   11.5894   -3.2925   -0.0859 H   0  0  0  0  0  0  0  0  0  0  0  0
   11.6815   -2.8227    1.6203 H   0  0  0  0  0  0  0  0  0  0  0  0
  1 24  1  0
  1 87  1  0
  2 29  2  0
  3 31  2  0
  4 35  2  0
  5 47  1  0
  5 48  1  0
  6 39  2  0
  7 46  2  0
  8 48  2  0
  9 55  2  0
 10 62  2  0
 11 64  1  0
 11137  1  0
 12 64  2  0
 13 23  1  0
 13 24  1  0
 13 29  1  0
 14 25  1  0
 14 35  1  0
 14 79  1  0
 15 31  1  0
 15 32  1  0
 15 38  1  0
 16 36  1  0
 16 46  1  0
 16 97  1  0
 17 39  1  0
 17 41  1  0
 17 98  1  0
 18 45  1  0
 18 55  1  0
 18114  1  0
 19 49  1  0
 19 61  2  3
 20 58  1  0
 20 62  1  0
 20124  1  0
 21 61  1  0
 21131  1  0
 21132  1  0
 22 61  1  0
 22133  1  0
 22134  1  0
 23 28  1  0
 23 31  1  0
 23 69  1  0
 24 26  1  0
 24 70  1  0
 25 27  1  0
 25 29  1  0
 25 71  1  0
 26 27  1  0
 26 72  1  0
 26 73  1  0
 27 74  1  0
 27 75  1  0
 28 30  1  0
 28 76  1  0
 28 77  1  0
 30 33  1  0
 30 34  1  0
 30 78  1  0
 32 37  1  0
 32 39  1  0
 32 80  1  0
 33 81  1  0
 33 82  1  0
 33 83  1  0
 34 84  1  0
 34 85  1  0
 34 86  1  0
 35 36  1  0
 36 40  1  0
 36 88  1  0
 37 42  1  0
 37 89  1  0
 37 90  1  0
 38 91  1  0
 38 92  1  0
 38 93  1  0
 40 43  1  0
 40 94  1  0
 40 95  1  0
 41 44  1  0
 41 48  1  0
 41 96  1  0
 42 52  2  0
 42 53  1  0
 43 49  1  0
 43 99  1  0
 43100  1  0
 44 50  1  0
 44 51  1  0
 44101  1  0
 45 46  1  0
 45 47  1  0
 45102  1  0
 47 54  1  0
 47103  1  0
 49104  1  0
 49105  1  0
 50106  1  0
 50107  1  0
 50108  1  0
 51109  1  0
 51110  1  0
 51111  1  0
 52 56  1  0
 52112  1  0
 53 57  2  0
 53113  1  0
 54115  1  0
 54116  1  0
 54117  1  0
 55 58  1  0
 56 59  2  0
 56118  1  0
 57 59  1  0
 57119  1  0
 58 60  1  0
 58120  1  0
 59121  1  0
 60 64  1  0
 60122  1  0
 60123  1  0
 62 63  1  0
 63 65  1  0
 63125  1  0
 63126  1  0
 65 66  1  0
 65127  1  0
 65128  1  0
 66 67  1  0
 66129  1  0
 66130  1  0
 67 68  1  0
 67135  1  0
 67136  1  0
 68138  1  0
 68139  1  0
 68140  1  0
M  END
>  <PUBCHEM_COMPOUND_CID>  (1) 
23724557

>  <PUBCHEM_COMPOUND_CANONICALIZED>  (1) 
1

>  <PUBCHEM_CACTVS_COMPLEXITY>  (1) 
1800

>  <PUBCHEM_CACTVS_HBOND_ACCEPTOR>  (1) 
13

>  <PUBCHEM_CACTVS_HBOND_DONOR>  (1) 
9

>  <PUBCHEM_CACTVS_ROTATABLE_BOND>  (1) 
18

>  <PUBCHEM_CACTVS_SUBSKEYS>  (1) 
AAADcfB//AAAAAAAAAAAAAAAAAAAAAAAAAA8QAAAAAAAAAABAAAAHgAQCAAADTzhmAYzCIPABgCoAiHSPAACAAEgAAAIiIGIAIgKcD6AkTGXYAAmtgCYiAe/nYKOAAAAAAAAAAAAAAAAAAAAAAAAAAAAAA==

>  <PUBCHEM_IUPAC_OPENEYE_NAME>  (1) 
4-[[5-benzyl-15-(3-guanidinopropyl)-21-hydroxy-2-isobutyl-8-isopropyl-4,11-dimethyl-3,6,9,13,16,22-hexaoxo-10-oxa-1,4,7,14,17-pentazabicyclo[16.3.1]docosan-12-yl]amino]-3-(hexanoylamino)-4-oxo-butanoic acid

>  <PUBCHEM_IUPAC_CAS_NAME>  (1) 
4-[[15-[3-(diaminomethylideneamino)propyl]-21-hydroxy-4,11-dimethyl-2-(2-methylpropyl)-3,6,9,13,16,22-hexaoxo-5-(phenylmethyl)-8-propan-2-yl-10-oxa-1,4,7,14,17-pentazabicyclo[16.3.1]docosan-12-yl]amino]-4-oxo-3-(1-oxohexylamino)butanoic acid

>  <PUBCHEM_IUPAC_NAME_MARKUP>  (1) 
4-[[5-benzyl-15-[3-(diaminomethylideneamino)propyl]-21-hydroxy-4,11-dimethyl-2-(2-methylpropyl)-3,6,9,13,16,22-hexaoxo-8-propan-2-yl-10-oxa-1,4,7,14,17-pentazabicyclo[16.3.1]docosan-12-yl]amino]-3-(hexanoylamino)-4-oxobutanoic acid

>  <PUBCHEM_IUPAC_NAME>  (1) 
4-[[5-benzyl-15-[3-(diaminomethylideneamino)propyl]-21-hydroxy-4,11-dimethyl-2-(2-methylpropyl)-3,6,9,13,16,22-hexaoxo-8-propan-2-yl-10-oxa-1,4,7,14,17-pentazabicyclo[16.3.1]docosan-12-yl]amino]-3-(hexanoylamino)-4-oxobutanoic acid

>  <PUBCHEM_IUPAC_SYSTEMATIC_NAME>  (1) 
4-[[15-[3-[bis(azanyl)methylideneamino]propyl]-4,11-dimethyl-2-(2-methylpropyl)-21-oxidanyl-3,6,9,13,16,22-hexakis(oxidanylidene)-5-(phenylmethyl)-8-propan-2-yl-10-oxa-1,4,7,14,17-pentazabicyclo[16.3.1]docosan-12-yl]amino]-3-(hexanoylamino)-4-oxidanylidene-butanoic acid

>  <PUBCHEM_IUPAC_TRADITIONAL_NAME>  (1) 
4-[[5-benzyl-15-(3-guanidinopropyl)-21-hydroxy-2-isobutyl-8-isopropyl-3,6,9,13,16,22-hexaketo-4,11-dimethyl-10-oxa-1,4,7,14,17-pentazabicyclo[16.3.1]docosan-12-yl]amino]-3-(caproylamino)-4-keto-butyric acid

>  <PUBCHEM_IUPAC_INCHI>  (1) 
InChI=1S/C46H72N10O12/c1-8-9-11-18-34(57)50-31(24-36(59)60)40(62)54-38-27(6)68-45(67)37(26(4)5)53-41(63)32(23-28-15-12-10-13-16-28)55(7)44(66)33(22-25(2)3)56-35(58)20-19-30(43(56)65)52-39(61)29(51-42(38)64)17-14-21-49-46(47)48/h10,12-13,15-16,25-27,29-33,35,37-38,58H,8-9,11,14,17-24H2,1-7H3,(H,50,57)(H,51,64)(H,52,61)(H,53,63)(H,54,62)(H,59,60)(H4,47,48,49)

>  <PUBCHEM_IUPAC_INCHIKEY>  (1) 
XKZZUWLVOGBTLH-UHFFFAOYSA-N

>  <PUBCHEM_XLOGP3_AA>  (1) 
1.9

>  <PUBCHEM_EXACT_MASS>  (1) 
956.53311777

>  <PUBCHEM_MOLECULAR_FORMULA>  (1) 
C46H72N10O12

>  <PUBCHEM_MOLECULAR_WEIGHT>  (1) 
957.1

>  <PUBCHEM_SMILES>  (1) 
CCCCCC(=O)NC(CC(=O)O)C(=O)NC1C(OC(=O)C(NC(=O)C(N(C(=O)C(N2C(CCC(C2=O)NC(=O)C(NC1=O)CCCN=C(N)N)O)CC(C)C)C)CC3=CC=CC=C3)C(C)C)C

>  <PUBCHEM_CONNECTIVITY_SMILES>  (1) 
CCCCCC(=O)NC(CC(=O)O)C(=O)NC1C(OC(=O)C(NC(=O)C(N(C(=O)C(N2C(CCC(C2=O)NC(=O)C(NC1=O)CCCN=C(N)N)O)CC(C)C)C)CC3=CC=CC=C3)C(C)C)C

>  <PUBCHEM_CACTVS_TPSA>  (1) 
334

>  <PUBCHEM_MONOISOTOPIC_WEIGHT>  (1) 
956.53311777

>  <PUBCHEM_TOTAL_CHARGE>  (1) 
0

>  <PUBCHEM_HEAVY_ATOM_COUNT>  (1) 
68

>  <PUBCHEM_ATOM_DEF_STEREO_COUNT>  (1) 
0

>  <PUBCHEM_ATOM_UDEF_STEREO_COUNT>  (1) 
9

>  <PUBCHEM_BOND_DEF_STEREO_COUNT>  (1) 
0

>  <PUBCHEM_BOND_UDEF_STEREO_COUNT>  (1) 
0

>  <PUBCHEM_ISOTOPIC_ATOM_COUNT>  (1) 
0

>  <PUBCHEM_COMPONENT_COUNT>  (1) 
1

>  <PUBCHEM_CACTVS_TAUTO_COUNT>  (1) 
-1

>  <PUBCHEM_COORDINATE_TYPE>  (1) 
1
5
255

>  <PUBCHEM_BONDANNOTATIONS>  (1) 
24  1  3
45  18  3
23  28  3
25  27  3
32  37  3
36  40  3
41  44  3
42  52  8
42  53  8
47  54  3
52  56  8
53  57  8
56  59  8
57  59  8
58  60  3

$$$$
