139585806
     RDKit          3D

 71 73  0  0  1  0  0  0  0  0999 V2000
   -4.1835    2.7006    2.4746 S   0  0  0  0  0  0  0  0  0  0  0  0
    0.9361   -3.1451    1.3474 O   0  0  0  0  0  0  0  0  0  0  0  0
    4.3997    0.2221   -0.1111 O   0  0  0  0  0  0  0  0  0  0  0  0
    1.1515   -0.5784   -2.8376 O   0  0  0  0  0  0  0  0  0  0  0  0
   -2.6680   -1.5704    3.0089 O   0  0  0  0  0  0  0  0  0  0  0  0
    2.7549    3.6616   -2.0314 O   0  0  0  0  0  0  0  0  0  0  0  0
   -0.4125    5.1572    1.6972 O   0  0  0  0  0  0  0  0  0  0  0  0
    2.3678   -1.4108   -1.0869 N   0  0  0  0  0  0  0  0  0  0  0  0
   -2.8021   -0.6660    0.8977 N   0  0  0  0  0  0  0  0  0  0  0  0
    2.1542    1.7414   -0.9564 N   0  0  0  0  0  0  0  0  0  0  0  0
   -0.4691   -1.8503    0.1507 N   0  0  0  0  0  0  0  0  0  0  0  0
   -2.1452    2.0458    1.0317 N   0  0  0  0  0  0  0  0  0  0  0  0
    0.2180    3.3301    0.4545 N   0  0  0  0  0  0  0  0  0  0  0  0
   -4.9082    0.2874   -0.0321 C   0  0  2  0  0  0  0  0  0  0  0  0
   -3.9048    0.2405    1.1512 C   0  0  2  0  0  0  0  0  0  0  0  0
    1.6402   -2.6715   -0.9814 C   0  0  1  0  0  0  0  0  0  0  0  0
    2.6022   -3.8836   -0.9537 C   0  0  0  0  0  0  0  0  0  0  0  0
   -5.5725   -1.0809   -0.3081 C   0  0  0  0  0  0  0  0  0  0  0  0
    2.8595    0.8669   -1.9005 C   0  0  2  0  0  0  0  0  0  0  0  0
   -4.2836    0.8044   -1.3386 C   0  0  0  0  0  0  0  0  0  0  0  0
    0.6567   -2.5410    0.1496 C   0  0  0  0  0  0  0  0  0  0  0  0
   -3.3151    1.6066    1.4660 C   0  0  0  0  0  0  0  0  0  0  0  0
    2.0668   -0.4506   -2.0273 C   0  0  0  0  0  0  0  0  0  0  0  0
    3.6379   -3.8809    0.1765 C   0  0  0  0  0  0  0  0  0  0  0  0
    1.8455   -5.2159   -0.9772 C   0  0  0  0  0  0  0  0  0  0  0  0
    4.3302    0.6059   -1.4979 C   0  0  1  0  0  0  0  0  0  0  0  0
   -6.3597   -1.6355    0.8707 C   0  0  0  0  0  0  0  0  0  0  0  0
   -2.2192   -1.4286    1.8781 C   0  0  0  0  0  0  0  0  0  0  0  0
   -0.9779   -2.0328    1.4255 C   0  0  0  0  0  0  0  0  0  0  0  0
    1.4770    3.9118    0.0104 C   0  0  2  0  0  0  0  0  0  0  0  0
    2.1339    3.1095   -1.1252 C   0  0  0  0  0  0  0  0  0  0  0  0
    5.2586    1.7918   -1.7297 C   0  0  0  0  0  0  0  0  0  0  0  0
   -0.1185   -2.8234    2.1476 C   0  0  0  0  0  0  0  0  0  0  0  0
   -1.8956    3.3208    1.5456 C   0  0  0  0  0  0  0  0  0  0  0  0
   -2.9068    3.8287    2.3394 C   0  0  0  0  0  0  0  0  0  0  0  0
   -0.6510    4.0369    1.2593 C   0  0  0  0  0  0  0  0  0  0  0  0
    2.4827    4.0068    1.1592 C   0  0  0  0  0  0  0  0  0  0  0  0
   -5.7096    0.9913    0.2328 H   0  0  0  0  0  0  0  0  0  0  0  0
   -4.4257   -0.1060    2.0517 H   0  0  0  0  0  0  0  0  0  0  0  0
    1.0330   -2.7804   -1.8902 H   0  0  0  0  0  0  0  0  0  0  0  0
    3.1809   -3.8374   -1.8880 H   0  0  0  0  0  0  0  0  0  0  0  0
   -6.2642   -0.9740   -1.1534 H   0  0  0  0  0  0  0  0  0  0  0  0
   -4.8195   -1.8166   -0.6156 H   0  0  0  0  0  0  0  0  0  0  0  0
    2.8446    1.3266   -2.8970 H   0  0  0  0  0  0  0  0  0  0  0  0
   -5.0424    0.8657   -2.1267 H   0  0  0  0  0  0  0  0  0  0  0  0
   -3.4882    0.1441   -1.6983 H   0  0  0  0  0  0  0  0  0  0  0  0
   -3.8678    1.8091   -1.2173 H   0  0  0  0  0  0  0  0  0  0  0  0
    3.0640   -1.1862   -0.3770 H   0  0  0  0  0  0  0  0  0  0  0  0
   -2.2667   -0.5665    0.0397 H   0  0  0  0  0  0  0  0  0  0  0  0
    4.7163   -0.2412   -2.0778 H   0  0  0  0  0  0  0  0  0  0  0  0
    4.2229   -2.9567    0.1860 H   0  0  0  0  0  0  0  0  0  0  0  0
    3.1847   -4.0107    1.1622 H   0  0  0  0  0  0  0  0  0  0  0  0
    4.3461   -4.7061    0.0385 H   0  0  0  0  0  0  0  0  0  0  0  0
    1.2930   -5.3894   -0.0487 H   0  0  0  0  0  0  0  0  0  0  0  0
    1.1338   -5.2456   -1.8090 H   0  0  0  0  0  0  0  0  0  0  0  0
    2.5422   -6.0510   -1.1086 H   0  0  0  0  0  0  0  0  0  0  0  0
   -6.9140   -2.5282    0.5632 H   0  0  0  0  0  0  0  0  0  0  0  0
   -7.0806   -0.9012    1.2435 H   0  0  0  0  0  0  0  0  0  0  0  0
   -5.7013   -1.9278    1.6936 H   0  0  0  0  0  0  0  0  0  0  0  0
    1.6584    1.3168   -0.1813 H   0  0  0  0  0  0  0  0  0  0  0  0
    1.2602    4.9153   -0.3752 H   0  0  0  0  0  0  0  0  0  0  0  0
    6.2915    1.5080   -1.4990 H   0  0  0  0  0  0  0  0  0  0  0  0
    5.2185    2.1331   -2.7682 H   0  0  0  0  0  0  0  0  0  0  0  0
    5.0198    2.6295   -1.0671 H   0  0  0  0  0  0  0  0  0  0  0  0
   -0.1040   -3.2088    3.1567 H   0  0  0  0  0  0  0  0  0  0  0  0
   -2.9406    4.7872    2.8396 H   0  0  0  0  0  0  0  0  0  0  0  0
   -0.1417    2.4622    0.0665 H   0  0  0  0  0  0  0  0  0  0  0  0
    3.4444    4.3947    0.8057 H   0  0  0  0  0  0  0  0  0  0  0  0
    2.6666    3.0241    1.6088 H   0  0  0  0  0  0  0  0  0  0  0  0
    2.1266    4.6699    1.9534 H   0  0  0  0  0  0  0  0  0  0  0  0
    4.3386    1.0451    0.4099 H   0  0  0  0  0  0  0  0  0  0  0  0
  1 22  1  0
  1 35  1  0
  2 21  1  0
  2 33  1  0
  3 26  1  0
  3 71  1  0
  4 23  2  0
  5 28  2  0
  6 31  2  0
  7 36  2  0
  8 16  1  0
  8 23  1  0
  8 48  1  0
  9 15  1  0
  9 28  1  0
  9 49  1  0
 10 19  1  0
 10 31  1  0
 10 60  1  0
 11 21  2  0
 11 29  1  0
 12 22  2  0
 12 34  1  0
 13 30  1  0
 13 36  1  0
 13 67  1  0
 14 15  1  0
 14 18  1  0
 14 20  1  0
 14 38  1  1
 15 22  1  0
 15 39  1  1
 16 17  1  0
 16 21  1  0
 16 40  1  6
 17 24  1  0
 17 25  1  0
 17 41  1  0
 18 27  1  0
 18 42  1  0
 18 43  1  0
 19 23  1  0
 19 26  1  0
 19 44  1  6
 20 45  1  0
 20 46  1  0
 20 47  1  0
 24 51  1  0
 24 52  1  0
 24 53  1  0
 25 54  1  0
 25 55  1  0
 25 56  1  0
 26 32  1  0
 26 50  1  6
 27 57  1  0
 27 58  1  0
 27 59  1  0
 28 29  1  0
 29 33  2  0
 30 31  1  0
 30 37  1  0
 30 61  1  6
 32 62  1  0
 32 63  1  0
 32 64  1  0
 33 65  1  0
 34 35  2  0
 34 36  1  0
 35 66  1  0
 37 68  1  0
 37 69  1  0
 37 70  1  0
M  END
>  <PUBCHEM_COMPOUND_CID>  (1) 
139585806

>  <PUBCHEM_CONFORMER_RMSD>  (1) 
1

>  <PUBCHEM_CONFORMER_DIVERSEORDER>  (1) 
1
5
3
6
10
11
7
4
9
2
8

>  <PUBCHEM_MMFF94_PARTIAL_CHARGES>  (1) 
35
1 -0.08
10 -0.73
11 -0.57
12 -0.57
13 -0.73
15 0.48
16 0.48
19 0.36
2 -0.28
21 0.3
22 0.2
23 0.57
26 0.28
28 0.72
29 0.14
3 -0.68
30 0.36
31 0.57
33 -0.01
34 0.14
35 -0.11
36 0.72
4 -0.57
48 0.37
49 0.37
5 -0.57
6 -0.57
60 0.37
65 0.15
66 0.15
67 0.37
7 -0.57
71 0.4
8 -0.73
9 -0.73

>  <PUBCHEM_EFFECTIVE_ROTOR_COUNT>  (1) 
5.6

>  <PUBCHEM_PHARMACOPHORE_FEATURES>  (1) 
16
1 10 donor
1 12 acceptor
1 13 donor
1 20 hydrophobe
1 27 hydrophobe
1 3 acceptor
1 3 donor
1 4 acceptor
1 5 acceptor
1 6 acceptor
1 7 acceptor
1 8 donor
1 9 donor
3 17 24 25 hydrophobe
5 1 12 22 34 35 rings
5 2 11 21 29 33 rings

>  <PUBCHEM_HEAVY_ATOM_COUNT>  (1) 
37

>  <PUBCHEM_ATOM_DEF_STEREO_COUNT>  (1) 
6

>  <PUBCHEM_ATOM_UDEF_STEREO_COUNT>  (1) 
0

>  <PUBCHEM_BOND_DEF_STEREO_COUNT>  (1) 
0

>  <PUBCHEM_BOND_UDEF_STEREO_COUNT>  (1) 
0

>  <PUBCHEM_ISOTOPIC_ATOM_COUNT>  (1) 
0

>  <PUBCHEM_COMPONENT_COUNT>  (1) 
1

>  <PUBCHEM_CACTVS_TAUTO_COUNT>  (1) 
-1

>  <PUBCHEM_CONFORMER_ID>  (1) 
0851E90E00000001

>  <PUBCHEM_MMFF94_ENERGY>  (1) 
61.005

>  <PUBCHEM_FEATURE_SELFOVERLAP>  (1) 
81.212

>  <PUBCHEM_SHAPE_FINGERPRINT>  (1) 
10439779 11 18338784685394927994
10815517 723 17690269414187662218
11513181 2 16977584617115160189
12788726 201 18342173328159187303
13122387 1 17618227200026032041
14394314 77 18342463612552692289
14725015 67 16680330028995276602
14931854 50 18410295817310212764
14940108 7 16181246789111163549
15001296 14 18192721050750168848
15160629 131 17917720097699888303
15297060 5 17916030044953076466
15320467 1 18412270561657893592
15351339 4 18410005542003508305
15406563 228 17971207047893389940
161222 10 18050321144058969772
17138139 8 18342184358226567100
17627616 140 18264775350300040007
19311894 1 18340498862556367614
20642791 35 18270114742601362691
20764821 26 18194120939284146697
20775438 99 17626357354259008799
21133410 62 18113905940395413035
21796203 349 16752731195327264234
3298306 158 18049707810033764687
437795 70 17986416450125698932
45266715 3 17839152441316288733
463206 1 18341340997910397208
474144 1 18044942268603231914
6608658 132 18272080600667127359

>  <PUBCHEM_SHAPE_MULTIPOLES>  (1) 
700.19
11.63
6.88
2.04
1.74
0.52
0.11
0.1
6.01
-0.06
-3.8
-0.99
-0.07
-3.56

>  <PUBCHEM_SHAPE_SELFOVERLAP>  (1) 
1451.659

>  <PUBCHEM_SHAPE_VOLUME>  (1) 
401.9

>  <PUBCHEM_COORDINATE_TYPE>  (1) 
2
5
10

$$$$
