445434
     RDKit          3D

145146  0  0  1  0  0  0  0  0999 V2000
    1.0693    3.3215   -3.7005 O   0  0  0  0  0  0  0  0  0  0  0  0
   -2.7523    3.3707   -2.5666 O   0  0  0  0  0  0  0  0  0  0  0  0
    6.4876   -2.7793    1.8104 O   0  0  0  0  0  0  0  0  0  0  0  0
   -3.2610    0.1643    1.1361 O   0  0  0  0  0  0  0  0  0  0  0  0
    0.9686   -1.6626   -3.1593 O   0  0  0  0  0  0  0  0  0  0  0  0
   -5.4322    1.9656   -2.8057 O   0  0  0  0  0  0  0  0  0  0  0  0
   -6.2198    3.4797   -1.3692 O   0  0  0  0  0  0  0  0  0  0  0  0
   -7.5905    0.3284    0.5499 O   0  0  0  0  0  0  0  0  0  0  0  0
    2.2976   -3.7428   -0.5436 O   0  0  0  0  0  0  0  0  0  0  0  0
    2.0517   -5.6309   -1.6987 O   0  0  0  0  0  0  0  0  0  0  0  0
   -3.1368   -5.8447   -0.0413 O   0  0  0  0  0  0  0  0  0  0  0  0
   -8.1874   -4.7952   -0.5744 O   0  0  0  0  0  0  0  0  0  0  0  0
   -1.2395    4.1467   -1.0395 N   0  0  0  0  0  0  0  0  0  0  0  0
    0.5255    2.2458   -1.7464 N   0  0  0  0  0  0  0  0  0  0  0  0
   -5.0146    1.4662    0.4580 N   0  0  0  0  0  0  0  0  0  0  0  0
   -6.1554   -1.1541    1.5201 N   0  0  0  0  0  0  0  0  0  0  0  0
    0.0323   -2.6143   -1.3227 N   0  0  0  0  0  0  0  0  0  0  0  0
   -6.7415   -3.0325   -0.3379 N   0  0  0  0  0  0  0  0  0  0  0  0
    2.1503    8.1763   -1.5651 N   0  0  0  0  0  0  0  0  0  0  0  0
   -4.6962   -4.7849   -1.4097 N   0  0  0  0  0  0  0  0  0  0  0  0
    4.0070    9.2966   -2.2067 N   0  0  0  0  0  0  0  0  0  0  0  0
    3.2959    9.6740   -0.1312 N   0  0  0  0  0  0  0  0  0  0  0  0
   -0.2637    4.5502   -2.0653 C   0  0  1  0  0  0  0  0  0  0  0  0
    1.1003    0.9398   -2.0697 C   0  0  2  0  0  0  0  0  0  0  0  0
   -3.3090    3.1536   -0.2255 C   0  0  1  0  0  0  0  0  0  0  0  0
   -5.4193   -0.1358    2.2665 C   0  0  1  0  0  0  0  0  0  0  0  0
    0.2372   -0.1634   -1.3919 C   0  0  1  0  0  0  0  0  0  0  0  0
   -4.3193    2.0799   -0.6773 C   0  0  2  0  0  0  0  0  0  0  0  0
   -4.6654   -0.7459    3.4555 C   0  0  0  0  0  0  0  0  0  0  0  0
   -5.5679   -1.3768    4.5358 C   0  0  0  0  0  0  0  0  0  0  0  0
    0.7644    5.5292   -1.4868 C   0  0  0  0  0  0  0  0  0  0  0  0
    0.4755    3.3090   -2.6265 C   0  0  0  0  0  0  0  0  0  0  0  0
   -2.4351    3.5625   -1.3994 C   0  0  0  0  0  0  0  0  0  0  0  0
   -4.4305    0.5184    1.2696 C   0  0  0  0  0  0  0  0  0  0  0  0
    0.1378    6.8855   -1.1361 C   0  0  0  0  0  0  0  0  0  0  0  0
   -3.9315    4.3912    0.4210 C   0  0  0  0  0  0  0  0  0  0  0  0
    2.5756    1.0295   -1.7277 C   0  0  0  0  0  0  0  0  0  0  0  0
    0.4820   -1.5292   -2.0404 C   0  0  0  0  0  0  0  0  0  0  0  0
    0.3491   -0.1706    0.1420 C   0  0  0  0  0  0  0  0  0  0  0  0
    6.8383   -1.1278    0.0286 C   0  0  2  0  0  0  0  0  0  0  0  0
    6.8932   -1.4229    1.5574 C   0  0  2  0  0  0  0  0  0  0  0  0
   -6.5073   -0.3576    5.1817 C   0  0  0  0  0  0  0  0  0  0  0  0
   -4.7001   -2.0334    5.6130 C   0  0  0  0  0  0  0  0  0  0  0  0
    0.2302   -3.9849   -1.8026 C   0  0  2  0  0  0  0  0  0  0  0  0
   -5.3905    2.6207   -1.6277 C   0  0  0  0  0  0  0  0  0  0  0  0
    3.3549    0.0642   -1.2100 C   0  0  0  0  0  0  0  0  0  0  0  0
    1.1548    7.8654   -0.5485 C   0  0  0  0  0  0  0  0  0  0  0  0
    5.3848   -0.9328   -0.3796 C   0  0  0  0  0  0  0  0  0  0  0  0
    8.2495   -1.0694    2.2178 C   0  0  0  0  0  0  0  0  0  0  0  0
    4.7838    0.1561   -0.9042 C   0  0  0  0  0  0  0  0  0  0  0  0
   -0.8759   -4.8883   -1.2506 C   0  0  0  0  0  0  0  0  0  0  0  0
   -7.1705   -0.8230    0.6432 C   0  0  0  0  0  0  0  0  0  0  0  0
   -7.7760   -2.0239   -0.1116 C   0  0  1  0  0  0  0  0  0  0  0  0
    7.4137   -2.2358   -0.8611 C   0  0  0  0  0  0  0  0  0  0  0  0
   -2.2499   -4.5584   -1.8496 C   0  0  0  0  0  0  0  0  0  0  0  0
    9.4834   -1.7879    1.7287 C   0  0  0  0  0  0  0  0  0  0  0  0
    5.4843    1.4561   -1.2028 C   0  0  0  0  0  0  0  0  0  0  0  0
    1.5985   -4.5413   -1.3810 C   0  0  0  0  0  0  0  0  0  0  0  0
   -8.3985   -1.5748   -1.4279 C   0  0  0  0  0  0  0  0  0  0  0  0
   -3.3917   -5.1483   -1.0254 C   0  0  0  0  0  0  0  0  0  0  0  0
    9.6490   -3.1631    1.9413 C   0  0  0  0  0  0  0  0  0  0  0  0
   10.5025   -1.0791    1.0751 C   0  0  0  0  0  0  0  0  0  0  0  0
   -7.0450   -4.3558   -0.5554 C   0  0  0  0  0  0  0  0  0  0  0  0
    5.9453   -2.9804    3.1085 C   0  0  0  0  0  0  0  0  0  0  0  0
   -5.8209   -5.2304   -0.6961 C   0  0  0  0  0  0  0  0  0  0  0  0
    3.0819    9.0068   -1.2788 C   0  0  0  0  0  0  0  0  0  0  0  0
   10.7996   -3.8176    1.4977 C   0  0  0  0  0  0  0  0  0  0  0  0
   11.6530   -1.7348    0.6327 C   0  0  0  0  0  0  0  0  0  0  0  0
   -4.9275   -3.9293   -2.5810 C   0  0  0  0  0  0  0  0  0  0  0  0
   11.8008   -3.1038    0.8430 C   0  0  0  0  0  0  0  0  0  0  0  0
   -5.9093   -6.4077   -0.0573 C   0  0  0  0  0  0  0  0  0  0  0  0
   -0.8094    5.0056   -2.9006 H   0  0  0  0  0  0  0  0  0  0  0  0
    1.0323    0.8330   -3.1598 H   0  0  0  0  0  0  0  0  0  0  0  0
   -2.6436    2.6971    0.5202 H   0  0  0  0  0  0  0  0  0  0  0  0
   -6.1172    0.6376    2.6056 H   0  0  0  0  0  0  0  0  0  0  0  0
   -0.8144    0.0652   -1.6242 H   0  0  0  0  0  0  0  0  0  0  0  0
   -3.7805    1.2730   -1.1921 H   0  0  0  0  0  0  0  0  0  0  0  0
   -4.0382    0.0299    3.9150 H   0  0  0  0  0  0  0  0  0  0  0  0
   -3.9736   -1.5158    3.0865 H   0  0  0  0  0  0  0  0  0  0  0  0
   -6.1793   -2.1646    4.0789 H   0  0  0  0  0  0  0  0  0  0  0  0
    1.2316    5.0980   -0.5918 H   0  0  0  0  0  0  0  0  0  0  0  0
    1.5697    5.6768   -2.2171 H   0  0  0  0  0  0  0  0  0  0  0  0
   -1.0430    4.3503   -0.0681 H   0  0  0  0  0  0  0  0  0  0  0  0
    0.0894    2.3848   -0.8474 H   0  0  0  0  0  0  0  0  0  0  0  0
   -6.0275    1.6008    0.5306 H   0  0  0  0  0  0  0  0  0  0  0  0
   -0.3148    7.3211   -2.0355 H   0  0  0  0  0  0  0  0  0  0  0  0
   -0.6672    6.7449   -0.4054 H   0  0  0  0  0  0  0  0  0  0  0  0
   -4.6484    4.1182    1.2015 H   0  0  0  0  0  0  0  0  0  0  0  0
   -3.1582    5.0115    0.8881 H   0  0  0  0  0  0  0  0  0  0  0  0
   -4.4373    5.0244   -0.3151 H   0  0  0  0  0  0  0  0  0  0  0  0
    3.0286    1.9825   -1.9958 H   0  0  0  0  0  0  0  0  0  0  0  0
    0.4041    0.8374    0.5623 H   0  0  0  0  0  0  0  0  0  0  0  0
    1.2176   -0.7343    0.4946 H   0  0  0  0  0  0  0  0  0  0  0  0
   -0.5359   -0.6417    0.5847 H   0  0  0  0  0  0  0  0  0  0  0  0
    7.4083   -0.2146   -0.1608 H   0  0  0  0  0  0  0  0  0  0  0  0
   -5.9224   -2.1323    1.6496 H   0  0  0  0  0  0  0  0  0  0  0  0
    6.1552   -0.7606    2.0350 H   0  0  0  0  0  0  0  0  0  0  0  0
   -7.0742   -0.8159    5.9995 H   0  0  0  0  0  0  0  0  0  0  0  0
   -7.2358    0.0260    4.4612 H   0  0  0  0  0  0  0  0  0  0  0  0
   -5.9506    0.4918    5.5915 H   0  0  0  0  0  0  0  0  0  0  0  0
   -4.0676   -1.2958    6.1187 H   0  0  0  0  0  0  0  0  0  0  0  0
   -5.3226   -2.5220    6.3702 H   0  0  0  0  0  0  0  0  0  0  0  0
   -4.0483   -2.7971    5.1757 H   0  0  0  0  0  0  0  0  0  0  0  0
    0.2166   -3.9799   -2.8987 H   0  0  0  0  0  0  0  0  0  0  0  0
   -0.2229   -2.5009   -0.3517 H   0  0  0  0  0  0  0  0  0  0  0  0
    2.9132   -0.9094   -1.0109 H   0  0  0  0  0  0  0  0  0  0  0  0
    0.6244    8.7751   -0.2427 H   0  0  0  0  0  0  0  0  0  0  0  0
    1.6248    7.4211    0.3370 H   0  0  0  0  0  0  0  0  0  0  0  0
    8.4024    0.0129    2.1098 H   0  0  0  0  0  0  0  0  0  0  0  0
    8.1892   -1.2433    3.2993 H   0  0  0  0  0  0  0  0  0  0  0  0
    4.7812   -1.8260   -0.2070 H   0  0  0  0  0  0  0  0  0  0  0  0
   -0.6481   -5.9424   -1.4548 H   0  0  0  0  0  0  0  0  0  0  0  0
   -0.9009   -4.7907   -0.1569 H   0  0  0  0  0  0  0  0  0  0  0  0
   -8.5480   -2.4609    0.5327 H   0  0  0  0  0  0  0  0  0  0  0  0
    6.9234   -3.2003   -0.6890 H   0  0  0  0  0  0  0  0  0  0  0  0
    7.2814   -1.9866   -1.9210 H   0  0  0  0  0  0  0  0  0  0  0  0
    8.4850   -2.3702   -0.7046 H   0  0  0  0  0  0  0  0  0  0  0  0
   -2.3907   -3.4733   -1.8890 H   0  0  0  0  0  0  0  0  0  0  0  0
   -2.2979   -4.9567   -2.8684 H   0  0  0  0  0  0  0  0  0  0  0  0
    6.5447    1.4520   -0.9446 H   0  0  0  0  0  0  0  0  0  0  0  0
    5.4225    1.6886   -2.2717 H   0  0  0  0  0  0  0  0  0  0  0  0
    5.0282    2.2764   -0.6372 H   0  0  0  0  0  0  0  0  0  0  0  0
   -9.1907   -0.8381   -1.2577 H   0  0  0  0  0  0  0  0  0  0  0  0
   -7.6481   -1.1125   -2.0796 H   0  0  0  0  0  0  0  0  0  0  0  0
   -8.8342   -2.4200   -1.9705 H   0  0  0  0  0  0  0  0  0  0  0  0
   -5.7700   -2.7479   -0.3470 H   0  0  0  0  0  0  0  0  0  0  0  0
   -6.1260    2.4317   -3.3171 H   0  0  0  0  0  0  0  0  0  0  0  0
    8.8774   -3.7385    2.4470 H   0  0  0  0  0  0  0  0  0  0  0  0
   10.4073   -0.0099    0.9005 H   0  0  0  0  0  0  0  0  0  0  0  0
    6.6913   -2.7874    3.8833 H   0  0  0  0  0  0  0  0  0  0  0  0
    5.6331   -4.0253    3.1877 H   0  0  0  0  0  0  0  0  0  0  0  0
    5.0670   -2.3461    3.2611 H   0  0  0  0  0  0  0  0  0  0  0  0
   10.9116   -4.8861    1.6613 H   0  0  0  0  0  0  0  0  0  0  0  0
   12.4337   -1.1768    0.1225 H   0  0  0  0  0  0  0  0  0  0  0  0
   -4.3070   -4.2650   -3.4163 H   0  0  0  0  0  0  0  0  0  0  0  0
   -5.9688   -3.9733   -2.9143 H   0  0  0  0  0  0  0  0  0  0  0  0
   -4.6552   -2.8992   -2.3325 H   0  0  0  0  0  0  0  0  0  0  0  0
    3.1406   -4.2277   -0.4116 H   0  0  0  0  0  0  0  0  0  0  0  0
   12.6949   -3.6147    0.4963 H   0  0  0  0  0  0  0  0  0  0  0  0
   -6.8047   -6.6911    0.4895 H   0  0  0  0  0  0  0  0  0  0  0  0
   -5.1134   -7.1436   -0.0749 H   0  0  0  0  0  0  0  0  0  0  0  0
    3.9199    8.8249   -3.0976 H   0  0  0  0  0  0  0  0  0  0  0  0
    4.8566    9.7955   -2.0084 H   0  0  0  0  0  0  0  0  0  0  0  0
    3.9842   10.4070   -0.0752 H   0  0  0  0  0  0  0  0  0  0  0  0
    2.6681    9.5651    0.6501 H   0  0  0  0  0  0  0  0  0  0  0  0
  1 32  2  0
  2 33  2  0
 41  3  1  0
  3 64  1  0
  4 34  2  0
  5 38  2  0
  6 45  1  0
  6127  1  0
  7 45  2  0
  8 52  2  0
  9 58  1  0
  9138  1  0
 10 58  2  0
 11 60  2  0
 12 63  2  0
 13 23  1  0
 13 33  1  0
 13 83  1  0
 14 24  1  0
 14 32  1  0
 14 84  1  0
 15 28  1  0
 15 34  1  0
 15 85  1  0
 16 26  1  0
 16 52  1  0
 16 96  1  0
 17 38  1  0
 17 44  1  0
 17105  1  0
 18 53  1  0
 18 63  1  0
 18126  1  0
 19 47  1  0
 19 66  2  3
 20 60  1  0
 20 65  1  0
 20 69  1  0
 21 66  1  0
 21142  1  0
 21143  1  0
 22 66  1  0
 22144  1  0
 22145  1  0
 23 31  1  0
 23 32  1  0
 23 72  1  6
 24 27  1  0
 24 37  1  0
 24 73  1  6
 25 28  1  0
 25 33  1  0
 25 36  1  0
 25 74  1  1
 26 29  1  0
 26 34  1  0
 26 75  1  1
 27 38  1  0
 27 39  1  0
 27 76  1  1
 28 45  1  0
 28 77  1  6
 29 30  1  0
 29 78  1  0
 29 79  1  0
 30 42  1  0
 30 43  1  0
 30 80  1  0
 31 35  1  0
 31 81  1  0
 31 82  1  0
 35 47  1  0
 35 86  1  0
 35 87  1  0
 36 88  1  0
 36 89  1  0
 36 90  1  0
 37 46  2  0
 37 91  1  0
 39 92  1  0
 39 93  1  0
 39 94  1  0
 40 41  1  0
 40 48  1  0
 40 54  1  0
 40 95  1  1
 41 49  1  0
 41 97  1  1
 42 98  1  0
 42 99  1  0
 42100  1  0
 43101  1  0
 43102  1  0
 43103  1  0
 44 51  1  0
 44 58  1  0
 44104  1  6
 46 50  1  0
 46106  1  0
 47107  1  0
 47108  1  0
 48 50  2  0
 48111  1  0
 49 56  1  0
 49109  1  0
 49110  1  0
 50 57  1  0
 51 55  1  0
 51112  1  0
 51113  1  0
 52 53  1  0
 53 59  1  0
 53114  1  1
 54115  1  0
 54116  1  0
 54117  1  0
 55 60  1  0
 55118  1  0
 55119  1  0
 56 61  2  0
 56 62  1  0
 57120  1  0
 57121  1  0
 57122  1  0
 59123  1  0
 59124  1  0
 59125  1  0
 61 67  1  0
 61128  1  0
 62 68  2  0
 62129  1  0
 63 65  1  0
 64130  1  0
 64131  1  0
 64132  1  0
 65 71  2  0
 67 70  2  0
 67133  1  0
 68 70  1  0
 68134  1  0
 69135  1  0
 69136  1  0
 69137  1  0
 70139  1  0
 71140  1  0
 71141  1  0
M  END
>  <PUBCHEM_COMPOUND_CID>  (1) 
445434

>  <PUBCHEM_COMPOUND_CANONICALIZED>  (1) 
1

>  <PUBCHEM_CACTVS_COMPLEXITY>  (1) 
2000

>  <PUBCHEM_CACTVS_HBOND_ACCEPTOR>  (1) 
13

>  <PUBCHEM_CACTVS_HBOND_DONOR>  (1) 
10

>  <PUBCHEM_CACTVS_ROTATABLE_BOND>  (1) 
15

>  <PUBCHEM_CACTVS_SUBSKEYS>  (1) 
AAADcfB//AAAAAAAAAAAAAAAAAAAAAAAAAAwAAAAAAAAAAABAAAAHgAQCAAADTzhmAYzCIPABgCoAiXSfACCAAEgAgAIiIGIAMgKYDqA0TCUYAAk1gGYiIe/1+IOAAAAAAAAAAAAAAAAAAAAAAAAAAAAAA==

>  <PUBCHEM_IUPAC_OPENEYE_NAME>  (1) 
(5R,8S,11R,12S,15S,18S,19S,22R)-15-(3-guanidinopropyl)-8-isobutyl-18-[(1E,3E,5S,6S)-6-methoxy-3,5-dimethyl-7-phenyl-hepta-1,3-dienyl]-1,5,12,19-tetramethyl-2-methylene-3,6,9,13,16,20,25-heptaoxo-1,4,7,10,14,17,21-heptazacyclopentacosane-11,22-dicarboxylic acid

>  <PUBCHEM_IUPAC_CAS_NAME>  (1) 
(5R,8S,11R,12S,15S,18S,19S,22R)-15-[3-(diaminomethylideneamino)propyl]-18-[(1E,3E,5S,6S)-6-methoxy-3,5-dimethyl-7-phenylhepta-1,3-dienyl]-1,5,12,19-tetramethyl-2-methylene-8-(2-methylpropyl)-3,6,9,13,16,20,25-heptaoxo-1,4,7,10,14,17,21-heptazacyclopentacosane-11,22-dicarboxylic acid

>  <PUBCHEM_IUPAC_NAME_MARKUP>  (1) 
(5<I>R</I>,8<I>S</I>,11<I>R</I>,12<I>S</I>,15<I>S</I>,18<I>S</I>,19<I>S</I>,22<I>R</I>)-15-[3-(diaminomethylideneamino)propyl]-18-[(1<I>E</I>,3<I>E</I>,5<I>S</I>,6<I>S</I>)-6-methoxy-3,5-dimethyl-7-phenylhepta-1,3-dienyl]-1,5,12,19-tetramethyl-2-methylidene-8-(2-methylpropyl)-3,6,9,13,16,20,25-heptaoxo-1,4,7,10,14,17,21-heptazacyclopentacosane-11,22-dicarboxylic acid

>  <PUBCHEM_IUPAC_NAME>  (1) 
(5R,8S,11R,12S,15S,18S,19S,22R)-15-[3-(diaminomethylideneamino)propyl]-18-[(1E,3E,5S,6S)-6-methoxy-3,5-dimethyl-7-phenylhepta-1,3-dienyl]-1,5,12,19-tetramethyl-2-methylidene-8-(2-methylpropyl)-3,6,9,13,16,20,25-heptaoxo-1,4,7,10,14,17,21-heptazacyclopentacosane-11,22-dicarboxylic acid

>  <PUBCHEM_IUPAC_SYSTEMATIC_NAME>  (1) 
(5R,8S,11R,12S,15S,18S,19S,22R)-15-[3-[bis(azanyl)methylideneamino]propyl]-18-[(1E,3E,5S,6S)-6-methoxy-3,5-dimethyl-7-phenyl-hepta-1,3-dienyl]-1,5,12,19-tetramethyl-2-methylidene-8-(2-methylpropyl)-3,6,9,13,16,20,25-heptakis(oxidanylidene)-1,4,7,10,14,17,21-heptazacyclopentacosane-11,22-dicarboxylic acid

>  <PUBCHEM_IUPAC_TRADITIONAL_NAME>  (1) 
(5R,8S,11R,12S,15S,18S,19S,22R)-15-(3-guanidinopropyl)-8-isobutyl-3,6,9,13,16,20,25-heptaketo-18-[(1E,3E,5S,6S)-6-methoxy-3,5-dimethyl-7-phenyl-hepta-1,3-dienyl]-1,5,12,19-tetramethyl-2-methylene-1,4,7,10,14,17,21-heptazacyclopentacosane-11,22-dicarboxylic acid

>  <PUBCHEM_IUPAC_INCHI>  (1) 
InChI=1S/C49H74N10O12/c1-26(2)23-37-46(66)58-40(48(69)70)30(6)42(62)55-35(17-14-22-52-49(50)51)45(65)54-34(19-18-27(3)24-28(4)38(71-10)25-33-15-12-11-13-16-33)29(5)41(61)56-36(47(67)68)20-21-39(60)59(9)32(8)44(64)53-31(7)43(63)57-37/h11-13,15-16,18-19,24,26,28-31,34-38,40H,8,14,17,20-23,25H2,1-7,9-10H3,(H,53,64)(H,54,65)(H,55,62)(H,56,61)(H,57,63)(H,58,66)(H,67,68)(H,69,70)(H4,50,51,52)/b19-18+,27-24+/t28-,29-,30-,31+,34-,35-,36+,37-,38-,40+/m0/s1

>  <PUBCHEM_IUPAC_INCHIKEY>  (1) 
ZYZCGGRZINLQBL-GWRQVWKTSA-N

>  <PUBCHEM_XLOGP3_AA>  (1) 
2.3

>  <PUBCHEM_EXACT_MASS>  (1) 
994.54876783

>  <PUBCHEM_MOLECULAR_FORMULA>  (1) 
C49H74N10O12

>  <PUBCHEM_MOLECULAR_WEIGHT>  (1) 
995.2

>  <PUBCHEM_SMILES>  (1) 
C[C@H]1[C@@H](NC(=O)[C@@H](NC(=O)[C@H]([C@@H](NC(=O)[C@@H](NC(=O)[C@H](NC(=O)C(=C)N(C(=O)CC[C@@H](NC1=O)C(=O)O)C)C)CC(C)C)C(=O)O)C)CCCN=C(N)N)/C=C/C(=C/[C@H](C)[C@H](CC2=CC=CC=C2)OC)/C

>  <PUBCHEM_CONNECTIVITY_SMILES>  (1) 
CC1C(NC(=O)C(NC(=O)C(C(NC(=O)C(NC(=O)C(NC(=O)C(=C)N(C(=O)CCC(NC1=O)C(=O)O)C)C)CC(C)C)C(=O)O)C)CCCN=C(N)N)C=CC(=CC(C)C(CC2=CC=CC=C2)OC)C

>  <PUBCHEM_CACTVS_TPSA>  (1) 
343

>  <PUBCHEM_MONOISOTOPIC_WEIGHT>  (1) 
994.54876783

>  <PUBCHEM_TOTAL_CHARGE>  (1) 
0

>  <PUBCHEM_HEAVY_ATOM_COUNT>  (1) 
71

>  <PUBCHEM_ATOM_DEF_STEREO_COUNT>  (1) 
10

>  <PUBCHEM_ATOM_UDEF_STEREO_COUNT>  (1) 
0

>  <PUBCHEM_BOND_DEF_STEREO_COUNT>  (1) 
2

>  <PUBCHEM_BOND_UDEF_STEREO_COUNT>  (1) 
0

>  <PUBCHEM_ISOTOPIC_ATOM_COUNT>  (1) 
0

>  <PUBCHEM_COMPONENT_COUNT>  (1) 
1

>  <PUBCHEM_CACTVS_TAUTO_COUNT>  (1) 
-1

>  <PUBCHEM_COORDINATE_TYPE>  (1) 
1
5
255

>  <PUBCHEM_BONDANNOTATIONS>  (1) 
23  31  5
24  37  5
25  36  6
26  29  5
27  39  6
28  45  5
41  3  5
40  54  5
44  58  5
53  59  6
56  61  8
56  62  8
61  67  8
62  68  8
67  70  8
68  70  8

$$$$
