73005967
     RDKit          3D

109110  0  0  1  0  0  0  0  0999 V2000
    5.1952   -2.1038   -2.5924 O   0  0  0  0  0  0  0  0  0  0  0  0
   -0.1201    2.8168    0.3514 O   0  0  0  0  0  0  0  0  0  0  0  0
   -0.6259   -1.2965   -1.0597 O   0  0  0  0  0  0  0  0  0  0  0  0
    2.4498   -3.6668   -0.8672 O   0  0  0  0  0  0  0  0  0  0  0  0
   -4.9741    1.1047   -0.8688 O   0  0  0  0  0  0  0  0  0  0  0  0
   -3.1966   -1.2541    2.8554 O   0  0  0  0  0  0  0  0  0  0  0  0
   -5.0224   -2.5197    2.9697 O   0  0  0  0  0  0  0  0  0  0  0  0
   -5.2563    7.6214   -1.6403 O   0  0  0  0  0  0  0  0  0  0  0  0
  -10.3873   -3.7475   -0.3619 O   0  0  0  0  0  0  0  0  0  0  0  0
    1.2508   -0.0061   -0.9607 N   0  0  0  0  0  0  0  0  0  0  0  0
   -1.4731    1.0764   -0.2340 N   0  0  0  0  0  0  0  0  0  0  0  0
    2.5079   -2.1669   -2.6042 N   0  0  0  0  0  0  0  0  0  0  0  0
    6.8070   -3.7400   -1.0169 N   0  0  0  0  0  0  0  0  0  0  0  0
   -3.7413   -0.0217    0.6819 N   0  0  0  0  0  0  0  0  0  0  0  0
    0.8810    0.6014    0.3468 C   0  0  0  0  0  0  0  0  0  0  0  0
    0.6088   -0.4535    1.4451 C   0  0  0  0  0  0  0  0  0  0  0  0
    0.8345   -0.0154    2.9085 C   0  0  0  0  0  0  0  0  0  0  0  0
    5.3698   -3.6322   -0.6760 C   0  0  0  0  0  0  0  0  0  0  0  0
    5.1821   -2.6998    0.5454 C   0  0  0  0  0  0  0  0  0  0  0  0
    5.4280   -1.1945    0.3798 C   0  0  0  0  0  0  0  0  0  0  0  0
   -0.2734    1.6123    0.1572 C   0  0  0  0  0  0  0  0  0  0  0  0
    4.5914   -3.2382   -1.9583 C   0  0  0  0  0  0  0  0  0  0  0  0
    1.0719   -1.9373   -2.6353 C   0  0  0  0  0  0  0  0  0  0  0  0
    6.8974   -0.7874    0.2892 C   0  0  0  0  0  0  0  0  0  0  0  0
    0.5251   -1.0789   -1.4667 C   0  0  0  0  0  0  0  0  0  0  0  0
   -2.6823    1.8795   -0.4359 C   0  0  0  0  0  0  0  0  0  0  0  0
    2.3006    0.2999    3.2046 C   0  0  0  0  0  0  0  0  0  0  0  0
   -0.0610    1.1426    3.3411 C   0  0  0  0  0  0  0  0  0  0  0  0
    7.1164    0.7125    0.0505 C   0  0  0  0  0  0  0  0  0  0  0  0
    2.3133    0.6838   -1.6782 C   0  0  0  0  0  0  0  0  0  0  0  0
    3.0853   -3.0493   -1.7148 C   0  0  0  0  0  0  0  0  0  0  0  0
   -2.6631    2.5839   -1.8012 C   0  0  0  0  0  0  0  0  0  0  0  0
    6.6427    1.6270    1.1851 C   0  0  0  0  0  0  0  0  0  0  0  0
    0.6153   -1.3776   -3.9776 C   0  0  0  0  0  0  0  0  0  0  0  0
   -3.9063    0.9481   -0.2841 C   0  0  0  0  0  0  0  0  0  0  0  0
    5.2614    2.2336    0.9286 C   0  0  0  0  0  0  0  0  0  0  0  0
   -3.3666    3.9219   -1.7779 C   0  0  0  0  0  0  0  0  0  0  0  0
   -4.7885   -0.9773    1.0522 C   0  0  0  0  0  0  0  0  0  0  0  0
   -4.9938   -2.0346   -0.0449 C   0  0  0  0  0  0  0  0  0  0  0  0
    4.8561    3.1817    2.0468 C   0  0  0  0  0  0  0  0  0  0  0  0
   -2.7028    5.0556   -1.2856 C   0  0  0  0  0  0  0  0  0  0  0  0
   -4.6897    4.0463   -2.2224 C   0  0  0  0  0  0  0  0  0  0  0  0
   -6.4245   -2.5156   -0.1280 C   0  0  0  0  0  0  0  0  0  0  0  0
   -4.3925   -1.6670    2.3648 C   0  0  0  0  0  0  0  0  0  0  0  0
   -3.3492    6.2915   -1.2482 C   0  0  0  0  0  0  0  0  0  0  0  0
   -5.3375    5.2831   -2.1833 C   0  0  0  0  0  0  0  0  0  0  0  0
   -4.6597    6.3963   -1.6970 C   0  0  0  0  0  0  0  0  0  0  0  0
   -7.3811   -1.7506   -0.8121 C   0  0  0  0  0  0  0  0  0  0  0  0
   -6.8207   -3.7102    0.4881 C   0  0  0  0  0  0  0  0  0  0  0  0
   -8.7072   -2.1783   -0.8843 C   0  0  0  0  0  0  0  0  0  0  0  0
   -8.1488   -4.1374    0.4172 C   0  0  0  0  0  0  0  0  0  0  0  0
   -9.0809   -3.3668   -0.2703 C   0  0  0  0  0  0  0  0  0  0  0  0
    1.7533    1.1889    0.6565 H   0  0  0  0  0  0  0  0  0  0  0  0
   -0.4205   -0.8246    1.3722 H   0  0  0  0  0  0  0  0  0  0  0  0
    1.2553   -1.3238    1.2656 H   0  0  0  0  0  0  0  0  0  0  0  0
    0.5632   -0.8791    3.5311 H   0  0  0  0  0  0  0  0  0  0  0  0
    5.0299   -4.6282   -0.3634 H   0  0  0  0  0  0  0  0  0  0  0  0
    5.8026   -3.0678    1.3740 H   0  0  0  0  0  0  0  0  0  0  0  0
    4.1489   -2.8175    0.8967 H   0  0  0  0  0  0  0  0  0  0  0  0
    4.9947   -0.7094    1.2622 H   0  0  0  0  0  0  0  0  0  0  0  0
    4.8770   -0.8125   -0.4813 H   0  0  0  0  0  0  0  0  0  0  0  0
    4.6725   -4.0608   -2.6812 H   0  0  0  0  0  0  0  0  0  0  0  0
    0.6057   -2.9245   -2.5116 H   0  0  0  0  0  0  0  0  0  0  0  0
    7.3833   -1.3114   -0.5380 H   0  0  0  0  0  0  0  0  0  0  0  0
    7.4195   -1.0917    1.2045 H   0  0  0  0  0  0  0  0  0  0  0  0
   -2.7252    2.6055    0.3860 H   0  0  0  0  0  0  0  0  0  0  0  0
    2.6296    1.2125    2.7008 H   0  0  0  0  0  0  0  0  0  0  0  0
    2.9500   -0.5221    2.8864 H   0  0  0  0  0  0  0  0  0  0  0  0
    2.4514    0.4457    4.2797 H   0  0  0  0  0  0  0  0  0  0  0  0
    0.2470    2.0875    2.8848 H   0  0  0  0  0  0  0  0  0  0  0  0
   -0.0107    1.2766    4.4274 H   0  0  0  0  0  0  0  0  0  0  0  0
   -1.1066    0.9518    3.0793 H   0  0  0  0  0  0  0  0  0  0  0  0
    6.6644    1.0091   -0.9036 H   0  0  0  0  0  0  0  0  0  0  0  0
    8.1982    0.8594   -0.0659 H   0  0  0  0  0  0  0  0  0  0  0  0
   -1.4842    0.0909   -0.5114 H   0  0  0  0  0  0  0  0  0  0  0  0
    2.4259    0.3501   -2.7061 H   0  0  0  0  0  0  0  0  0  0  0  0
    2.0812    1.7535   -1.7047 H   0  0  0  0  0  0  0  0  0  0  0  0
    3.2515    0.5383   -1.1416 H   0  0  0  0  0  0  0  0  0  0  0  0
    3.1419   -1.6849   -3.2367 H   0  0  0  0  0  0  0  0  0  0  0  0
   -1.6304    2.7626   -2.1303 H   0  0  0  0  0  0  0  0  0  0  0  0
   -3.1014    1.9454   -2.5792 H   0  0  0  0  0  0  0  0  0  0  0  0
    7.3605    2.4525    1.2772 H   0  0  0  0  0  0  0  0  0  0  0  0
    6.6570    1.0942    2.1431 H   0  0  0  0  0  0  0  0  0  0  0  0
    0.9001   -2.0510   -4.7932 H   0  0  0  0  0  0  0  0  0  0  0  0
   -0.4734   -1.2582   -3.9990 H   0  0  0  0  0  0  0  0  0  0  0  0
    1.0542   -0.3994   -4.1927 H   0  0  0  0  0  0  0  0  0  0  0  0
    6.9429   -4.5284   -1.6532 H   0  0  0  0  0  0  0  0  0  0  0  0
    7.3297   -3.9845   -0.1730 H   0  0  0  0  0  0  0  0  0  0  0  0
    5.2675    2.7842   -0.0194 H   0  0  0  0  0  0  0  0  0  0  0  0
    4.5050    1.4495    0.8386 H   0  0  0  0  0  0  0  0  0  0  0  0
    6.1375   -2.1639   -2.3233 H   0  0  0  0  0  0  0  0  0  0  0  0
   -2.8804   -0.0389    1.2234 H   0  0  0  0  0  0  0  0  0  0  0  0
   -5.6941   -0.3899    1.2437 H   0  0  0  0  0  0  0  0  0  0  0  0
   -4.3247   -2.8918    0.1090 H   0  0  0  0  0  0  0  0  0  0  0  0
   -4.7224   -1.6380   -1.0321 H   0  0  0  0  0  0  0  0  0  0  0  0
    4.8217    2.6614    3.0093 H   0  0  0  0  0  0  0  0  0  0  0  0
    5.5621    4.0139    2.1310 H   0  0  0  0  0  0  0  0  0  0  0  0
    3.8631    3.5975    1.8491 H   0  0  0  0  0  0  0  0  0  0  0  0
   -1.6786    4.9792   -0.9234 H   0  0  0  0  0  0  0  0  0  0  0  0
   -5.2286    3.1757   -2.5923 H   0  0  0  0  0  0  0  0  0  0  0  0
   -2.8326    7.1671   -0.8664 H   0  0  0  0  0  0  0  0  0  0  0  0
   -6.3634    5.3530   -2.5296 H   0  0  0  0  0  0  0  0  0  0  0  0
   -7.0969   -0.8141   -1.2903 H   0  0  0  0  0  0  0  0  0  0  0  0
   -6.0994   -4.3124    1.0368 H   0  0  0  0  0  0  0  0  0  0  0  0
   -9.4448   -1.5836   -1.4150 H   0  0  0  0  0  0  0  0  0  0  0  0
   -8.4329   -5.0641    0.9050 H   0  0  0  0  0  0  0  0  0  0  0  0
   -3.0978   -1.7767    3.6804 H   0  0  0  0  0  0  0  0  0  0  0  0
   -6.1665    7.5320   -1.9665 H   0  0  0  0  0  0  0  0  0  0  0  0
  -10.4978   -4.5800    0.1252 H   0  0  0  0  0  0  0  0  0  0  0  0
  1 22  1  0
  1 91  1  0
  2 21  2  0
  3 25  2  0
  4 31  2  0
  5 35  2  0
  6 44  1  0
  6107  1  0
  7 44  2  0
  8 47  1  0
  8108  1  0
  9 52  1  0
  9109  1  0
 10 15  1  0
 10 25  1  0
 10 30  1  0
 11 21  1  0
 11 26  1  0
 11 75  1  0
 12 23  1  0
 12 31  1  0
 12 79  1  0
 13 18  1  0
 13 87  1  0
 13 88  1  0
 14 35  1  0
 14 38  1  0
 14 92  1  0
 15 16  1  0
 15 21  1  0
 15 53  1  0
 16 17  1  0
 16 54  1  0
 16 55  1  0
 17 27  1  0
 17 28  1  0
 17 56  1  0
 18 19  1  0
 18 22  1  0
 18 57  1  0
 19 20  1  0
 19 58  1  0
 19 59  1  0
 20 24  1  0
 20 60  1  0
 20 61  1  0
 22 31  1  0
 22 62  1  0
 23 25  1  0
 23 34  1  0
 23 63  1  0
 24 29  1  0
 24 64  1  0
 24 65  1  0
 26 32  1  0
 26 35  1  0
 26 66  1  0
 27 67  1  0
 27 68  1  0
 27 69  1  0
 28 70  1  0
 28 71  1  0
 28 72  1  0
 29 33  1  0
 29 73  1  0
 29 74  1  0
 30 76  1  0
 30 77  1  0
 30 78  1  0
 32 37  1  0
 32 80  1  0
 32 81  1  0
 33 36  1  0
 33 82  1  0
 33 83  1  0
 34 84  1  0
 34 85  1  0
 34 86  1  0
 36 40  1  0
 36 89  1  0
 36 90  1  0
 37 41  2  0
 37 42  1  0
 38 39  1  0
 38 44  1  0
 38 93  1  0
 39 43  1  0
 39 94  1  0
 39 95  1  0
 40 96  1  0
 40 97  1  0
 40 98  1  0
 41 45  1  0
 41 99  1  0
 42 46  2  0
 42100  1  0
 43 48  2  0
 43 49  1  0
 45 47  2  0
 45101  1  0
 46 47  1  0
 46102  1  0
 48 50  1  0
 48103  1  0
 49 51  2  0
 49104  1  0
 50 52  2  0
 50105  1  0
 51 52  1  0
 51106  1  0
M  END
>  <PUBCHEM_COMPOUND_CID>  (1) 
73005967

>  <PUBCHEM_COMPOUND_CANONICALIZED>  (1) 
1

>  <PUBCHEM_CACTVS_COMPLEXITY>  (1) 
1120

>  <PUBCHEM_CACTVS_HBOND_ACCEPTOR>  (1) 
10

>  <PUBCHEM_CACTVS_HBOND_DONOR>  (1) 
8

>  <PUBCHEM_CACTVS_ROTATABLE_BOND>  (1) 
22

>  <PUBCHEM_CACTVS_SUBSKEYS>  (1) 
AAADcfB/vAAAAAAAAAAAAAAAAAAAAAAAAAAwYAAAAAAAAAABQAAAHgAQCAAADTzhmAYyDoPAAgCIAiHSGAICAAAgIAAIiIHOCIgKdjqC0TOUcAAk1hGYmAeYyKCOIAAAAAAAAABAAAAAAAAAAAAAAAAAAA==

>  <PUBCHEM_IUPAC_OPENEYE_NAME>  (1) 
2-[[2-[[2-[2-[(3-amino-2-hydroxy-decanoyl)amino]propanoyl-methyl-amino]-4-methyl-pentanoyl]amino]-3-(4-hydroxyphenyl)propanoyl]amino]-3-(4-hydroxyphenyl)propanoic acid

>  <PUBCHEM_IUPAC_CAS_NAME>  (1) 
2-[[2-[[2-[[2-[(3-amino-2-hydroxy-1-oxodecyl)amino]-1-oxopropyl]-methylamino]-4-methyl-1-oxopentyl]amino]-3-(4-hydroxyphenyl)-1-oxopropyl]amino]-3-(4-hydroxyphenyl)propanoic acid

>  <PUBCHEM_IUPAC_NAME_MARKUP>  (1) 
2-[[2-[[2-[2-[(3-amino-2-hydroxydecanoyl)amino]propanoyl-methylamino]-4-methylpentanoyl]amino]-3-(4-hydroxyphenyl)propanoyl]amino]-3-(4-hydroxyphenyl)propanoic acid

>  <PUBCHEM_IUPAC_NAME>  (1) 
2-[[2-[[2-[2-[(3-amino-2-hydroxydecanoyl)amino]propanoyl-methylamino]-4-methylpentanoyl]amino]-3-(4-hydroxyphenyl)propanoyl]amino]-3-(4-hydroxyphenyl)propanoic acid

>  <PUBCHEM_IUPAC_SYSTEMATIC_NAME>  (1) 
2-[[2-[[2-[2-[(3-azanyl-2-oxidanyl-decanoyl)amino]propanoyl-methyl-amino]-4-methyl-pentanoyl]amino]-3-(4-hydroxyphenyl)propanoyl]amino]-3-(4-hydroxyphenyl)propanoic acid

>  <PUBCHEM_IUPAC_TRADITIONAL_NAME>  (1) 
2-[[2-[[2-[2-[(3-amino-2-hydroxy-decanoyl)amino]propanoyl-methyl-amino]-4-methyl-pentanoyl]amino]-3-(4-hydroxyphenyl)propanoyl]amino]-3-(4-hydroxyphenyl)propionic acid

>  <PUBCHEM_IUPAC_INCHI>  (1) 
InChI=1S/C38H57N5O9/c1-6-7-8-9-10-11-29(39)33(46)36(49)40-24(4)37(50)43(5)32(20-23(2)3)35(48)41-30(21-25-12-16-27(44)17-13-25)34(47)42-31(38(51)52)22-26-14-18-28(45)19-15-26/h12-19,23-24,29-33,44-46H,6-11,20-22,39H2,1-5H3,(H,40,49)(H,41,48)(H,42,47)(H,51,52)

>  <PUBCHEM_IUPAC_INCHIKEY>  (1) 
BQGPJXHWGIKJKY-UHFFFAOYSA-N

>  <PUBCHEM_XLOGP3_AA>  (1) 
2.4

>  <PUBCHEM_EXACT_MASS>  (1) 
727.41562841

>  <PUBCHEM_MOLECULAR_FORMULA>  (1) 
C38H57N5O9

>  <PUBCHEM_MOLECULAR_WEIGHT>  (1) 
727.9

>  <PUBCHEM_SMILES>  (1) 
CCCCCCCC(C(C(=O)NC(C)C(=O)N(C)C(CC(C)C)C(=O)NC(CC1=CC=C(C=C1)O)C(=O)NC(CC2=CC=C(C=C2)O)C(=O)O)O)N

>  <PUBCHEM_CONNECTIVITY_SMILES>  (1) 
CCCCCCCC(C(C(=O)NC(C)C(=O)N(C)C(CC(C)C)C(=O)NC(CC1=CC=C(C=C1)O)C(=O)NC(CC2=CC=C(C=C2)O)C(=O)O)O)N

>  <PUBCHEM_CACTVS_TPSA>  (1) 
232

>  <PUBCHEM_MONOISOTOPIC_WEIGHT>  (1) 
727.41562841

>  <PUBCHEM_TOTAL_CHARGE>  (1) 
0

>  <PUBCHEM_HEAVY_ATOM_COUNT>  (1) 
52

>  <PUBCHEM_ATOM_DEF_STEREO_COUNT>  (1) 
0

>  <PUBCHEM_ATOM_UDEF_STEREO_COUNT>  (1) 
6

>  <PUBCHEM_BOND_DEF_STEREO_COUNT>  (1) 
0

>  <PUBCHEM_BOND_UDEF_STEREO_COUNT>  (1) 
0

>  <PUBCHEM_ISOTOPIC_ATOM_COUNT>  (1) 
0

>  <PUBCHEM_COMPONENT_COUNT>  (1) 
1

>  <PUBCHEM_CACTVS_TAUTO_COUNT>  (1) 
-1

>  <PUBCHEM_COORDINATE_TYPE>  (1) 
1
5
255

>  <PUBCHEM_BONDANNOTATIONS>  (1) 
22  1  3
18  13  3
15  16  3
23  34  3
26  32  3
37  41  8
37  42  8
38  39  3
41  45  8
42  46  8
43  48  8
43  49  8
45  47  8
46  47  8
48  50  8
49  51  8
50  52  8
51  52  8

$$$$
