MODEL 1
REMARK VINA RESULT:    -4.841      0.000      0.000
REMARK INTER + INTRA:          -9.934
REMARK INTER:                  -8.237
REMARK INTRA:                  -1.697
REMARK UNBOUND:                -1.697
REMARK SMILES CC[C@H](C)[C@@H]1NC(=O)[C@H]2CSC(=N2)[C@@H]([C@@H](C)CC)NC(=O)c2csc(n2)CNC(=O)[C@H]2N=C1O[C@@H]2C
REMARK SMILES IDX 27 1 25 2 22 3 26 4 23 5 24 6 20 7 19 8 21 9 14 11 12 12
REMARK SMILES IDX 11 13 10 14 13 15 9 16 15 18 16 19 17 20 18 21 28 22 29 23
REMARK SMILES IDX 30 24 31 26 32 27 35 28 33 29 34 30 36 31 5 32 6 33 7 34
REMARK SMILES IDX 8 35 3 38 4 39 2 40 1 41
REMARK H PARENT 19 10 28 25 6 36
REMARK Flexibility Score:   91.900
ROOT
ATOM      1  C   UNL     1      -4.870   2.076  -3.807  1.00  0.00     0.183 C 
ENDROOT
BRANCH   1   2
ATOM      2  C   UNL     1      -4.718   1.834  -5.281  1.00  0.00     0.113 A 
ATOM      3  C   UNL     1      -4.839   2.195  -7.477  1.00  0.00     0.139 A 
ATOM      4  N   UNL     1      -4.957   2.750  -6.201  1.00  0.00    -0.234 NA
ATOM      5  C   UNL     1      -4.452   0.869  -7.490  1.00  0.00     0.101 A 
ATOM      6  S   UNL     1      -4.255   0.295  -5.884  1.00  0.00    -0.125 S 
BRANCH   3   7
ATOM      7  C   UNL     1      -5.157   2.999  -8.658  1.00  0.00     0.271 C 
ATOM      8  N   UNL     1      -4.809   4.316  -8.482  1.00  0.00    -0.341 N 
ATOM      9  O   UNL     1      -5.697   2.551  -9.662  1.00  0.00    -0.267 OA
ATOM     10  H   UNL     1      -4.345   4.536  -7.602  1.00  0.00     0.164 HD
BRANCH   8  11
ATOM     11  C   UNL     1      -5.168   5.386  -9.399  1.00  0.00     0.140 C 
BRANCH  11  12
ATOM     12  C   UNL     1      -5.886   6.473  -8.595  1.00  0.00     0.091 C 
ATOM     13  S   UNL     1      -5.121   8.020  -8.315  1.00  0.00    -0.106 SA
ATOM     14  C   UNL     1      -6.680   8.695  -7.705  1.00  0.00     0.113 C 
ATOM     15  N   UNL     1      -7.037   6.268  -8.036  1.00  0.00    -0.267 NA
ATOM     16  C   UNL     1      -7.439   7.465  -7.232  1.00  0.00     0.205 CG0
ATOM     17  G   UNL     1      -7.202   7.223  -5.732  1.00  0.00     0.000 G0
ENDBRANCH  11  12
BRANCH  11  18
ATOM     18  C   UNL     1      -4.002   5.855 -10.307  1.00  0.00     0.015 C 
ATOM     19  C   UNL     1      -2.658   5.673  -9.589  1.00  0.00     0.010 C 
BRANCH  18  20
ATOM     20  C   UNL     1      -3.982   5.219 -11.711  1.00  0.00     0.002 C 
ATOM     21  C   UNL     1      -5.344   5.244 -12.396  1.00  0.00     0.004 C 
ENDBRANCH  18  20
ENDBRANCH  11  18
ENDBRANCH   8  11
ENDBRANCH   3   7
ENDBRANCH   1   2
BRANCH   1  22
ATOM     22  N   UNL     1      -6.185   2.640  -3.594  1.00  0.00    -0.348 N 
ATOM     23  C   UNL     1      -6.881   2.574  -2.418  1.00  0.00     0.249 C 
ATOM     24  O   UNL     1      -6.417   2.096  -1.388  1.00  0.00    -0.272 OA
ATOM     25  H   UNL     1      -6.673   3.044  -4.393  1.00  0.00     0.163 HD
BRANCH  23  26
ATOM     26  C   UNL     1      -8.273   3.215  -2.513  1.00  0.00     0.238 C 
ATOM     27  N   UNL     1      -8.173   4.660  -2.167  1.00  0.00    -0.236 NA
ATOM     28  C   UNL     1      -8.823   3.173  -3.929  1.00  0.00     0.206 C 
ATOM     29  C   UNL     1      -8.399   5.254  -3.301  1.00  0.00     0.208 C 
ATOM     30  O   UNL     1      -8.663   4.509  -4.402  1.00  0.00    -0.474 OA
ATOM     31  C   UNL     1     -10.303   2.817  -3.970  1.00  0.00     0.056 C 
BRANCH  29  32
ATOM     32  C   UNL     1      -8.350   6.757  -3.560  1.00  0.00     0.171 C 
BRANCH  32  33
ATOM     33  N   UNL     1      -8.363   7.039  -4.987  1.00  0.00    -0.342 N 
ATOM     34  C   UNL     1      -7.213   7.225  -5.716  1.00  0.00     0.246 CG0
ATOM     35  O   UNL     1      -6.091   7.194  -5.217  1.00  0.00    -0.273 OA
ATOM     36  H   UNL     1      -9.236   7.146  -5.492  1.00  0.00     0.164 HD
ATOM     37  G   UNL     1      -7.441   7.453  -7.219  1.00  0.00     0.000 G0
ENDBRANCH  32  33
BRANCH  32  38
ATOM     38  C   UNL     1      -9.497   7.476  -2.802  1.00  0.00     0.017 C 
ATOM     39  C   UNL     1      -9.112   8.935  -2.523  1.00  0.00     0.010 C 
BRANCH  38  40
ATOM     40  C   UNL     1     -10.857   7.376  -3.530  1.00  0.00     0.002 C 
ATOM     41  C   UNL     1     -11.338   8.701  -4.108  1.00  0.00     0.004 C 
ENDBRANCH  38  40
ENDBRANCH  32  38
ENDBRANCH  29  32
ENDBRANCH  23  26
ENDBRANCH   1  22
TORSDOF 4
ENDMDL
MODEL 2
REMARK VINA RESULT:    -4.446      2.134      6.471
REMARK INTER + INTRA:          -9.261
REMARK INTER:                  -7.732
REMARK INTRA:                  -1.529
REMARK UNBOUND:                -1.697
REMARK SMILES CC[C@H](C)[C@@H]1NC(=O)[C@H]2CSC(=N2)[C@@H]([C@@H](C)CC)NC(=O)c2csc(n2)CNC(=O)[C@H]2N=C1O[C@@H]2C
REMARK SMILES IDX 27 1 25 2 22 3 26 4 23 5 24 6 20 7 19 8 21 9 14 11 12 12
REMARK SMILES IDX 11 13 10 14 13 15 9 16 15 18 16 19 17 20 18 21 28 22 29 23
REMARK SMILES IDX 30 24 31 26 32 27 35 28 33 29 34 30 36 31 5 32 6 33 7 34
REMARK SMILES IDX 8 35 3 38 4 39 2 40 1 41
REMARK H PARENT 19 10 28 25 6 36
REMARK Flexibility Score:   91.900
ROOT
ATOM      1  C   UNL     1      -4.150   2.479  -6.792  1.00  0.00     0.183 C 
ENDROOT
BRANCH   1   2
ATOM      2  C   UNL     1      -4.829   2.097  -5.508  1.00  0.00     0.113 A 
ATOM      3  C   UNL     1      -6.096   2.283  -3.684  1.00  0.00     0.139 A 
ATOM      4  N   UNL     1      -5.737   2.846  -4.910  1.00  0.00    -0.234 NA
ATOM      5  C   UNL     1      -5.485   1.075  -3.409  1.00  0.00     0.101 A 
ATOM      6  S   UNL     1      -4.424   0.644  -4.688  1.00  0.00    -0.125 S 
BRANCH   3   7
ATOM      7  C   UNL     1      -7.018   2.990  -2.794  1.00  0.00     0.271 C 
ATOM      8  N   UNL     1      -8.206   3.277  -3.420  1.00  0.00    -0.341 N 
ATOM      9  O   UNL     1      -6.742   3.313  -1.645  1.00  0.00    -0.267 OA
ATOM     10  H   UNL     1      -8.299   2.923  -4.371  1.00  0.00     0.164 HD
BRANCH   8  11
ATOM     11  C   UNL     1      -9.241   4.130  -2.859  1.00  0.00     0.140 C 
BRANCH  11  12
ATOM     12  C   UNL     1      -9.059   5.534  -3.442  1.00  0.00     0.091 C 
ATOM     13  S   UNL     1     -10.249   6.780  -3.142  1.00  0.00    -0.106 SA
ATOM     14  C   UNL     1      -9.125   8.029  -3.804  1.00  0.00     0.113 C 
ATOM     15  N   UNL     1      -8.072   5.829  -4.228  1.00  0.00    -0.267 NA
ATOM     16  C   UNL     1      -8.213   7.234  -4.725  1.00  0.00     0.205 CG0
ATOM     17  G   UNL     1      -8.744   7.255  -6.167  1.00  0.00     0.000 G0
ENDBRANCH  11  12
BRANCH  11  18
ATOM     18  C   UNL     1     -10.667   3.528  -2.943  1.00  0.00     0.015 C 
ATOM     19  C   UNL     1     -11.087   3.347  -4.408  1.00  0.00     0.010 C 
BRANCH  18  20
ATOM     20  C   UNL     1     -10.868   2.230  -2.134  1.00  0.00     0.002 C 
ATOM     21  C   UNL     1     -12.233   1.591  -2.363  1.00  0.00     0.004 C 
ENDBRANCH  18  20
ENDBRANCH  11  18
ENDBRANCH   8  11
ENDBRANCH   3   7
ENDBRANCH   1   2
BRANCH   1  22
ATOM     22  N   UNL     1      -5.183   2.852  -7.733  1.00  0.00    -0.348 N 
ATOM     23  C   UNL     1      -4.957   3.461  -8.937  1.00  0.00     0.249 C 
ATOM     24  O   UNL     1      -3.835   3.678  -9.381  1.00  0.00    -0.272 OA
ATOM     25  H   UNL     1      -6.157   2.736  -7.455  1.00  0.00     0.163 HD
BRANCH  23  26
ATOM     26  C   UNL     1      -6.254   3.785  -9.693  1.00  0.00     0.238 C 
ATOM     27  N   UNL     1      -7.227   4.410  -8.753  1.00  0.00    -0.236 NA
ATOM     28  C   UNL     1      -6.032   4.812 -10.790  1.00  0.00     0.206 C 
ATOM     29  C   UNL     1      -7.297   5.639  -9.170  1.00  0.00     0.208 C 
ATOM     30  O   UNL     1      -6.569   6.019 -10.249  1.00  0.00    -0.474 OA
ATOM     31  C   UNL     1      -6.787   4.475 -12.068  1.00  0.00     0.056 C 
BRANCH  29  32
ATOM     32  C   UNL     1      -8.098   6.768  -8.528  1.00  0.00     0.171 C 
BRANCH  32  33
ATOM     33  N   UNL     1      -7.796   6.877  -7.109  1.00  0.00    -0.342 N 
ATOM     34  C   UNL     1      -8.734   7.259  -6.180  1.00  0.00     0.246 CG0
ATOM     35  O   UNL     1      -9.887   7.562  -6.476  1.00  0.00    -0.273 OA
ATOM     36  H   UNL     1      -6.860   6.708  -6.758  1.00  0.00     0.164 HD
ATOM     37  G   UNL     1      -8.229   7.255  -4.728  1.00  0.00     0.000 G0
ENDBRANCH  32  33
BRANCH  32  38
ATOM     38  C   UNL     1      -7.866   8.099  -9.290  1.00  0.00     0.017 C 
ATOM     39  C   UNL     1      -9.212   8.742  -9.649  1.00  0.00     0.010 C 
BRANCH  38  40
ATOM     40  C   UNL     1      -6.953   9.082  -8.521  1.00  0.00     0.002 C 
ATOM     41  C   UNL     1      -7.491  10.507  -8.479  1.00  0.00     0.004 C 
ENDBRANCH  38  40
ENDBRANCH  32  38
ENDBRANCH  29  32
ENDBRANCH  23  26
ENDBRANCH   1  22
TORSDOF 4
ENDMDL
MODEL 3
REMARK VINA RESULT:    -4.078      6.420     10.932
REMARK INTER + INTRA:          -8.635
REMARK INTER:                  -6.851
REMARK INTRA:                  -1.784
REMARK UNBOUND:                -1.697
REMARK SMILES CC[C@H](C)[C@@H]1NC(=O)[C@H]2CSC(=N2)[C@@H]([C@@H](C)CC)NC(=O)c2csc(n2)CNC(=O)[C@H]2N=C1O[C@@H]2C
REMARK SMILES IDX 27 1 25 2 22 3 26 4 23 5 24 6 20 7 19 8 21 9 14 11 12 12
REMARK SMILES IDX 11 13 10 14 13 15 9 16 15 18 16 19 17 20 18 21 28 22 29 23
REMARK SMILES IDX 30 24 31 26 32 27 35 28 33 29 34 30 36 31 5 32 6 33 7 34
REMARK SMILES IDX 8 35 3 38 4 39 2 40 1 41
REMARK H PARENT 19 10 28 25 6 36
REMARK Flexibility Score:   91.900
ROOT
ATOM      1  C   UNL     1      -9.222   5.565  -0.144  1.00  0.00     0.183 C 
ENDROOT
BRANCH   1   2
ATOM      2  C   UNL     1      -9.643   6.626   0.832  1.00  0.00     0.113 A 
ATOM      3  C   UNL     1     -10.971   7.850   2.137  1.00  0.00     0.139 A 
ATOM      4  N   UNL     1     -10.850   6.696   1.361  1.00  0.00    -0.234 NA
ATOM      5  C   UNL     1      -9.817   8.605   2.223  1.00  0.00     0.101 A 
ATOM      6  S   UNL     1      -8.565   7.878   1.301  1.00  0.00    -0.125 S 
BRANCH   3   7
ATOM      7  C   UNL     1     -12.258   8.193   2.746  1.00  0.00     0.271 C 
ATOM      8  N   UNL     1     -13.279   7.431   2.234  1.00  0.00    -0.341 N 
ATOM      9  O   UNL     1     -12.401   9.076   3.583  1.00  0.00    -0.267 OA
ATOM     10  H   UNL     1     -13.001   6.719   1.560  1.00  0.00     0.164 HD
BRANCH   8  11
ATOM     11  C   UNL     1     -14.688   7.666   2.503  1.00  0.00     0.140 C 
BRANCH  11  12
ATOM     12  C   UNL     1     -15.311   8.280   1.246  1.00  0.00     0.091 C 
ATOM     13  S   UNL     1     -17.024   8.122   0.936  1.00  0.00    -0.106 SA
ATOM     14  C   UNL     1     -16.910   9.345  -0.387  1.00  0.00     0.113 C 
ATOM     15  N   UNL     1     -14.593   8.868   0.341  1.00  0.00    -0.267 NA
ATOM     16  C   UNL     1     -15.453   9.271  -0.816  1.00  0.00     0.205 CG0
ATOM     17  G   UNL     1     -15.282   8.297  -1.992  1.00  0.00     0.000 G0
ENDBRANCH  11  12
BRANCH  11  18
ATOM     18  C   UNL     1     -15.425   6.445   3.111  1.00  0.00     0.015 C 
ATOM     19  C   UNL     1     -14.968   5.149   2.428  1.00  0.00     0.010 C 
BRANCH  18  20
ATOM     20  C   UNL     1     -15.333   6.335   4.646  1.00  0.00     0.002 C 
ATOM     21  C   UNL     1     -14.060   5.642   5.118  1.00  0.00     0.004 C 
ENDBRANCH  18  20
ENDBRANCH  11  18
ENDBRANCH   8  11
ENDBRANCH   3   7
ENDBRANCH   1   2
BRANCH   1  22
ATOM     22  N   UNL     1      -9.640   5.996  -1.459  1.00  0.00    -0.348 N 
ATOM     23  C   UNL     1     -10.401   5.251  -2.318  1.00  0.00     0.249 C 
ATOM     24  O   UNL     1     -10.881   4.163  -2.021  1.00  0.00    -0.272 OA
ATOM     25  H   UNL     1      -9.279   6.879  -1.817  1.00  0.00     0.163 HD
BRANCH  23  26
ATOM     26  C   UNL     1     -10.637   5.952  -3.665  1.00  0.00     0.238 C 
ATOM     27  N   UNL     1     -12.095   5.958  -3.967  1.00  0.00    -0.236 NA
ATOM     28  C   UNL     1     -10.224   7.413  -3.625  1.00  0.00     0.206 C 
ATOM     29  C   UNL     1     -12.417   7.212  -3.854  1.00  0.00     0.208 C 
ATOM     30  O   UNL     1     -11.460   8.121  -3.545  1.00  0.00    -0.474 OA
ATOM     31  C   UNL     1      -9.496   7.849  -4.890  1.00  0.00     0.056 C 
BRANCH  29  32
ATOM     32  C   UNL     1     -13.819   7.801  -3.986  1.00  0.00     0.171 C 
BRANCH  32  33
ATOM     33  N   UNL     1     -14.166   8.585  -2.811  1.00  0.00    -0.342 N 
ATOM     34  C   UNL     1     -15.278   8.322  -2.047  1.00  0.00     0.246 CG0
ATOM     35  O   UNL     1     -16.075   7.426  -2.310  1.00  0.00    -0.273 OA
ATOM     36  H   UNL     1     -13.610   9.386  -2.533  1.00  0.00     0.164 HD
ATOM     37  G   UNL     1     -15.432   9.228  -0.814  1.00  0.00     0.000 G0
ENDBRANCH  32  33
BRANCH  32  38
ATOM     38  C   UNL     1     -13.945   8.614  -5.301  1.00  0.00     0.017 C 
ATOM     39  C   UNL     1     -13.236   9.967  -5.154  1.00  0.00     0.010 C 
BRANCH  38  40
ATOM     40  C   UNL     1     -13.439   7.839  -6.540  1.00  0.00     0.002 C 
ATOM     41  C   UNL     1     -12.331   8.558  -7.298  1.00  0.00     0.004 C 
ENDBRANCH  38  40
ENDBRANCH  32  38
ENDBRANCH  29  32
ENDBRANCH  23  26
ENDBRANCH   1  22
TORSDOF 4
ENDMDL
MODEL 4
REMARK VINA RESULT:    -4.043      1.206      1.570
REMARK INTER + INTRA:          -8.576
REMARK INTER:                  -7.074
REMARK INTRA:                  -1.501
REMARK UNBOUND:                -1.697
REMARK SMILES CC[C@H](C)[C@@H]1NC(=O)[C@H]2CSC(=N2)[C@@H]([C@@H](C)CC)NC(=O)c2csc(n2)CNC(=O)[C@H]2N=C1O[C@@H]2C
REMARK SMILES IDX 27 1 25 2 22 3 26 4 23 5 24 6 20 7 19 8 21 9 14 11 12 12
REMARK SMILES IDX 11 13 10 14 13 15 9 16 15 18 16 19 17 20 18 21 28 22 29 23
REMARK SMILES IDX 30 24 31 26 32 27 35 28 33 29 34 30 36 31 5 32 6 33 7 34
REMARK SMILES IDX 8 35 3 38 4 39 2 40 1 41
REMARK H PARENT 19 10 28 25 6 36
REMARK Flexibility Score:   91.900
ROOT
ATOM      1  C   UNL     1      -4.607   1.565  -4.718  1.00  0.00     0.183 C 
ENDROOT
BRANCH   1   2
ATOM      2  C   UNL     1      -4.275   2.093  -6.084  1.00  0.00     0.113 A 
ATOM      3  C   UNL     1      -4.523   3.164  -8.023  1.00  0.00     0.139 A 
ATOM      4  N   UNL     1      -5.033   2.953  -6.740  1.00  0.00    -0.234 NA
ATOM      5  C   UNL     1      -3.346   2.494  -8.288  1.00  0.00     0.101 A 
ATOM      6  S   UNL     1      -2.875   1.563  -6.925  1.00  0.00    -0.125 S 
BRANCH   3   7
ATOM      7  C   UNL     1      -5.254   4.007  -8.972  1.00  0.00     0.271 C 
ATOM      8  N   UNL     1      -5.053   5.342  -8.721  1.00  0.00    -0.341 N 
ATOM      9  O   UNL     1      -5.979   3.567  -9.855  1.00  0.00    -0.267 OA
ATOM     10  H   UNL     1      -4.403   5.556  -7.966  1.00  0.00     0.164 HD
BRANCH   8  11
ATOM     11  C   UNL     1      -5.787   6.415  -9.372  1.00  0.00     0.140 C 
BRANCH  11  12
ATOM     12  C   UNL     1      -6.141   7.456  -8.306  1.00  0.00     0.091 C 
ATOM     13  S   UNL     1      -5.010   8.723  -7.892  1.00  0.00    -0.106 SA
ATOM     14  C   UNL     1      -6.295   9.583  -6.961  1.00  0.00     0.113 C 
ATOM     15  N   UNL     1      -7.244   7.396  -7.627  1.00  0.00    -0.267 NA
ATOM     16  C   UNL     1      -7.268   8.475  -6.590  1.00  0.00     0.205 CG0
ATOM     17  G   UNL     1      -6.939   7.906  -5.200  1.00  0.00     0.000 G0
ENDBRANCH  11  12
BRANCH  11  18
ATOM     18  C   UNL     1      -5.111   6.951 -10.660  1.00  0.00     0.015 C 
ATOM     19  C   UNL     1      -3.586   6.803 -10.565  1.00  0.00     0.010 C 
BRANCH  18  20
ATOM     20  C   UNL     1      -5.655   6.349 -11.972  1.00  0.00     0.002 C 
ATOM     21  C   UNL     1      -4.551   5.884 -12.916  1.00  0.00     0.004 C 
ENDBRANCH  18  20
ENDBRANCH  11  18
ENDBRANCH   8  11
ENDBRANCH   3   7
ENDBRANCH   1   2
BRANCH   1  22
ATOM     22  N   UNL     1      -5.857   2.169  -4.313  1.00  0.00    -0.348 N 
ATOM     23  C   UNL     1      -6.070   2.791  -3.113  1.00  0.00     0.249 C 
ATOM     24  O   UNL     1      -5.185   2.974  -2.285  1.00  0.00    -0.272 OA
ATOM     25  H   UNL     1      -6.669   2.056  -4.919  1.00  0.00     0.163 HD
BRANCH  23  26
ATOM     26  C   UNL     1      -7.515   3.284  -2.946  1.00  0.00     0.238 C 
ATOM     27  N   UNL     1      -7.504   4.620  -2.288  1.00  0.00    -0.236 NA
ATOM     28  C   UNL     1      -8.202   3.495  -4.284  1.00  0.00     0.206 C 
ATOM     29  C   UNL     1      -7.896   5.421  -3.233  1.00  0.00     0.208 C 
ATOM     30  O   UNL     1      -8.207   4.912  -4.451  1.00  0.00    -0.474 OA
ATOM     31  C   UNL     1      -9.642   3.001  -4.286  1.00  0.00     0.056 C 
BRANCH  29  32
ATOM     32  C   UNL     1      -8.004   6.941  -3.145  1.00  0.00     0.171 C 
BRANCH  32  33
ATOM     33  N   UNL     1      -8.075   7.534  -4.471  1.00  0.00    -0.342 N 
ATOM     34  C   UNL     1      -6.957   7.914  -5.174  1.00  0.00     0.246 CG0
ATOM     35  O   UNL     1      -5.817   7.807  -4.729  1.00  0.00    -0.273 OA
ATOM     36  H   UNL     1      -8.969   7.725  -4.913  1.00  0.00     0.164 HD
ATOM     37  G   UNL     1      -7.245   8.466  -6.579  1.00  0.00     0.000 G0
ENDBRANCH  32  33
BRANCH  32  38
ATOM     38  C   UNL     1      -9.201   7.349  -2.246  1.00  0.00     0.017 C 
ATOM     39  C   UNL     1     -10.428   6.493  -2.582  1.00  0.00     0.010 C 
BRANCH  38  40
ATOM     40  C   UNL     1      -8.867   7.296  -0.737  1.00  0.00     0.002 C 
ATOM     41  C   UNL     1      -8.050   8.486  -0.251  1.00  0.00     0.004 C 
ENDBRANCH  38  40
ENDBRANCH  32  38
ENDBRANCH  29  32
ENDBRANCH  23  26
ENDBRANCH   1  22
TORSDOF 4
ENDMDL
MODEL 5
REMARK VINA RESULT:    -4.014      1.941      2.458
REMARK INTER + INTRA:          -8.526
REMARK INTER:                  -6.850
REMARK INTRA:                  -1.676
REMARK UNBOUND:                -1.697
REMARK SMILES CC[C@H](C)[C@@H]1NC(=O)[C@H]2CSC(=N2)[C@@H]([C@@H](C)CC)NC(=O)c2csc(n2)CNC(=O)[C@H]2N=C1O[C@@H]2C
REMARK SMILES IDX 27 1 25 2 22 3 26 4 23 5 24 6 20 7 19 8 21 9 14 11 12 12
REMARK SMILES IDX 11 13 10 14 13 15 9 16 15 18 16 19 17 20 18 21 28 22 29 23
REMARK SMILES IDX 30 24 31 26 32 27 35 28 33 29 34 30 36 31 5 32 6 33 7 34
REMARK SMILES IDX 8 35 3 38 4 39 2 40 1 41
REMARK H PARENT 19 10 28 25 6 36
REMARK Flexibility Score:   91.900
ROOT
ATOM      1  C   UNL     1      -6.037   1.789  -3.675  1.00  0.00     0.183 C 
ENDROOT
BRANCH   1   2
ATOM      2  C   UNL     1      -5.390   2.117  -4.989  1.00  0.00     0.113 A 
ATOM      3  C   UNL     1      -5.147   2.938  -7.047  1.00  0.00     0.139 A 
ATOM      4  N   UNL     1      -5.926   2.922  -5.888  1.00  0.00    -0.234 NA
ATOM      5  C   UNL     1      -3.994   2.181  -6.972  1.00  0.00     0.101 A 
ATOM      6  S   UNL     1      -3.890   1.413  -5.440  1.00  0.00    -0.125 S 
BRANCH   3   7
ATOM      7  C   UNL     1      -5.598   3.686  -8.222  1.00  0.00     0.271 C 
ATOM      8  N   UNL     1      -4.969   4.903  -8.319  1.00  0.00    -0.341 N 
ATOM      9  O   UNL     1      -6.455   3.282  -8.998  1.00  0.00    -0.267 OA
ATOM     10  H   UNL     1      -4.260   5.091  -7.611  1.00  0.00     0.164 HD
BRANCH   8  11
ATOM     11  C   UNL     1      -5.340   5.941  -9.268  1.00  0.00     0.140 C 
BRANCH  11  12
ATOM     12  C   UNL     1      -5.387   7.272  -8.513  1.00  0.00     0.091 C 
ATOM     13  S   UNL     1      -4.172   8.497  -8.797  1.00  0.00    -0.106 SA
ATOM     14  C   UNL     1      -5.155   9.702  -7.880  1.00  0.00     0.113 C 
ATOM     15  N   UNL     1      -6.271   7.511  -7.596  1.00  0.00    -0.267 NA
ATOM     16  C   UNL     1      -6.007   8.841  -6.961  1.00  0.00     0.205 CG0
ATOM     17  G   UNL     1      -5.328   8.670  -5.592  1.00  0.00     0.000 G0
ENDBRANCH  11  12
BRANCH  11  18
ATOM     18  C   UNL     1      -4.512   5.921 -10.579  1.00  0.00     0.015 C 
ATOM     19  C   UNL     1      -3.122   5.323 -10.325  1.00  0.00     0.010 C 
BRANCH  18  20
ATOM     20  C   UNL     1      -5.211   5.236 -11.772  1.00  0.00     0.002 C 
ATOM     21  C   UNL     1      -6.119   6.180 -12.551  1.00  0.00     0.004 C 
ENDBRANCH  18  20
ENDBRANCH  11  18
ENDBRANCH   8  11
ENDBRANCH   3   7
ENDBRANCH   1   2
BRANCH   1  22
ATOM     22  N   UNL     1      -6.561   3.022  -3.131  1.00  0.00    -0.348 N 
ATOM     23  C   UNL     1      -6.176   3.573  -1.939  1.00  0.00     0.249 C 
ATOM     24  O   UNL     1      -5.276   3.114  -1.245  1.00  0.00    -0.272 OA
ATOM     25  H   UNL     1      -7.333   3.477  -3.617  1.00  0.00     0.163 HD
BRANCH  23  26
ATOM     26  C   UNL     1      -6.950   4.856  -1.600  1.00  0.00     0.238 C 
ATOM     27  N   UNL     1      -6.014   6.015  -1.627  1.00  0.00    -0.236 NA
ATOM     28  C   UNL     1      -8.015   5.169  -2.636  1.00  0.00     0.206 C 
ATOM     29  C   UNL     1      -6.400   6.685  -2.671  1.00  0.00     0.208 C 
ATOM     30  O   UNL     1      -7.454   6.238  -3.398  1.00  0.00    -0.474 OA
ATOM     31  C   UNL     1      -9.317   5.650  -2.010  1.00  0.00     0.056 C 
BRANCH  29  32
ATOM     32  C   UNL     1      -5.746   7.945  -3.230  1.00  0.00     0.171 C 
BRANCH  32  33
ATOM     33  N   UNL     1      -6.189   8.201  -4.592  1.00  0.00    -0.342 N 
ATOM     34  C   UNL     1      -5.346   8.673  -5.569  1.00  0.00     0.246 CG0
ATOM     35  O   UNL     1      -4.165   8.939  -5.364  1.00  0.00    -0.273 OA
ATOM     36  H   UNL     1      -7.159   8.072  -4.860  1.00  0.00     0.164 HD
ATOM     37  G   UNL     1      -5.997   8.819  -6.955  1.00  0.00     0.000 G0
ENDBRANCH  32  33
BRANCH  32  38
ATOM     38  C   UNL     1      -5.996   9.151  -2.287  1.00  0.00     0.017 C 
ATOM     39  C   UNL     1      -7.409   9.072  -1.694  1.00  0.00     0.010 C 
BRANCH  38  40
ATOM     40  C   UNL     1      -4.922   9.286  -1.183  1.00  0.00     0.002 C 
ATOM     41  C   UNL     1      -5.321  10.233  -0.058  1.00  0.00     0.004 C 
ENDBRANCH  38  40
ENDBRANCH  32  38
ENDBRANCH  29  32
ENDBRANCH  23  26
ENDBRANCH   1  22
TORSDOF 4
ENDMDL
MODEL 6
REMARK VINA RESULT:    -3.958      2.471      4.057
REMARK INTER + INTRA:          -8.431
REMARK INTER:                  -7.018
REMARK INTRA:                  -1.413
REMARK UNBOUND:                -1.697
REMARK SMILES CC[C@H](C)[C@@H]1NC(=O)[C@H]2CSC(=N2)[C@@H]([C@@H](C)CC)NC(=O)c2csc(n2)CNC(=O)[C@H]2N=C1O[C@@H]2C
REMARK SMILES IDX 27 1 25 2 22 3 26 4 23 5 24 6 20 7 19 8 21 9 14 11 12 12
REMARK SMILES IDX 11 13 10 14 13 15 9 16 15 18 16 19 17 20 18 21 28 22 29 23
REMARK SMILES IDX 30 24 31 26 32 27 35 28 33 29 34 30 36 31 5 32 6 33 7 34
REMARK SMILES IDX 8 35 3 38 4 39 2 40 1 41
REMARK H PARENT 19 10 28 25 6 36
REMARK Flexibility Score:   91.900
ROOT
ATOM      1  C   UNL     1      -6.917   3.411  -4.494  1.00  0.00     0.183 C 
ENDROOT
BRANCH   1   2
ATOM      2  C   UNL     1      -5.841   3.136  -5.504  1.00  0.00     0.113 A 
ATOM      3  C   UNL     1      -4.725   3.201  -7.433  1.00  0.00     0.139 A 
ATOM      4  N   UNL     1      -5.757   3.751  -6.670  1.00  0.00    -0.234 NA
ATOM      5  C   UNL     1      -4.007   2.209  -6.793  1.00  0.00     0.101 A 
ATOM      6  S   UNL     1      -4.644   1.938  -5.222  1.00  0.00    -0.125 S 
BRANCH   3   7
ATOM      7  C   UNL     1      -4.506   3.657  -8.807  1.00  0.00     0.271 C 
ATOM      8  N   UNL     1      -4.527   5.027  -8.894  1.00  0.00    -0.341 N 
ATOM      9  O   UNL     1      -4.357   2.902  -9.759  1.00  0.00    -0.267 OA
ATOM     10  H   UNL     1      -4.637   5.524  -8.011  1.00  0.00     0.164 HD
BRANCH   8  11
ATOM     11  C   UNL     1      -4.525   5.766 -10.146  1.00  0.00     0.140 C 
BRANCH  11  12
ATOM     12  C   UNL     1      -4.984   7.196  -9.848  1.00  0.00     0.091 C 
ATOM     13  S   UNL     1      -4.609   7.948  -8.315  1.00  0.00    -0.106 SA
ATOM     14  C   UNL     1      -5.138   9.550  -8.957  1.00  0.00     0.113 C 
ATOM     15  N   UNL     1      -5.721   7.868 -10.677  1.00  0.00    -0.267 NA
ATOM     16  C   UNL     1      -6.102   9.185 -10.075  1.00  0.00     0.205 CG0
ATOM     17  G   UNL     1      -7.549   9.153  -9.558  1.00  0.00     0.000 G0
ENDBRANCH  11  12
BRANCH  11  18
ATOM     18  C   UNL     1      -3.215   5.619 -10.963  1.00  0.00     0.015 C 
ATOM     19  C   UNL     1      -3.436   6.067 -12.414  1.00  0.00     0.010 C 
BRANCH  18  20
ATOM     20  C   UNL     1      -1.986   6.312 -10.340  1.00  0.00     0.002 C 
ATOM     21  C   UNL     1      -1.036   6.890 -11.384  1.00  0.00     0.004 C 
ENDBRANCH  18  20
ENDBRANCH  11  18
ENDBRANCH   8  11
ENDBRANCH   3   7
ENDBRANCH   1   2
BRANCH   1  22
ATOM     22  N   UNL     1      -7.362   4.772  -4.696  1.00  0.00    -0.348 N 
ATOM     23  C   UNL     1      -8.652   5.138  -4.968  1.00  0.00     0.249 C 
ATOM     24  O   UNL     1      -9.587   4.344  -4.983  1.00  0.00    -0.272 OA
ATOM     25  H   UNL     1      -6.661   5.512  -4.725  1.00  0.00     0.163 HD
BRANCH  23  26
ATOM     26  C   UNL     1      -8.809   6.650  -5.188  1.00  0.00     0.238 C 
ATOM     27  N   UNL     1      -8.269   7.009  -6.529  1.00  0.00    -0.236 NA
ATOM     28  C   UNL     1     -10.267   7.074  -5.210  1.00  0.00     0.206 C 
ATOM     29  C   UNL     1      -9.333   7.333  -7.201  1.00  0.00     0.208 C 
ATOM     30  O   UNL     1     -10.544   7.292  -6.593  1.00  0.00    -0.474 OA
ATOM     31  C   UNL     1     -10.510   8.373  -4.454  1.00  0.00     0.056 C 
BRANCH  29  32
ATOM     32  C   UNL     1      -9.388   7.721  -8.676  1.00  0.00     0.171 C 
BRANCH  32  33
ATOM     33  N   UNL     1      -8.050   7.924  -9.210  1.00  0.00    -0.342 N 
ATOM     34  C   UNL     1      -7.575   9.164  -9.566  1.00  0.00     0.246 CG0
ATOM     35  O   UNL     1      -8.249  10.188  -9.486  1.00  0.00    -0.273 OA
ATOM     36  H   UNL     1      -7.426   7.142  -9.374  1.00  0.00     0.164 HD
ATOM     37  G   UNL     1      -6.117   9.172 -10.052  1.00  0.00     0.000 G0
ENDBRANCH  32  33
BRANCH  32  38
ATOM     38  C   UNL     1     -10.196   6.671  -9.484  1.00  0.00     0.017 C 
ATOM     39  C   UNL     1     -11.266   7.370 -10.332  1.00  0.00     0.010 C 
BRANCH  38  40
ATOM     40  C   UNL     1      -9.300   5.751 -10.343  1.00  0.00     0.002 C 
ATOM     41  C   UNL     1      -9.120   4.356  -9.758  1.00  0.00     0.004 C 
ENDBRANCH  38  40
ENDBRANCH  32  38
ENDBRANCH  29  32
ENDBRANCH  23  26
ENDBRANCH   1  22
TORSDOF 4
ENDMDL
MODEL 7
REMARK VINA RESULT:    -3.948      2.185      2.746
REMARK INTER + INTRA:          -8.415
REMARK INTER:                  -7.577
REMARK INTRA:                  -0.838
REMARK UNBOUND:                -1.697
REMARK SMILES CC[C@H](C)[C@@H]1NC(=O)[C@H]2CSC(=N2)[C@@H]([C@@H](C)CC)NC(=O)c2csc(n2)CNC(=O)[C@H]2N=C1O[C@@H]2C
REMARK SMILES IDX 27 1 25 2 22 3 26 4 23 5 24 6 20 7 19 8 21 9 14 11 12 12
REMARK SMILES IDX 11 13 10 14 13 15 9 16 15 18 16 19 17 20 18 21 28 22 29 23
REMARK SMILES IDX 30 24 31 26 32 27 35 28 33 29 34 30 36 31 5 32 6 33 7 34
REMARK SMILES IDX 8 35 3 38 4 39 2 40 1 41
REMARK H PARENT 19 10 28 25 6 36
REMARK Flexibility Score:   91.900
ROOT
ATOM      1  C   UNL     1      -5.159   1.105  -3.602  1.00  0.00     0.183 C 
ENDROOT
BRANCH   1   2
ATOM      2  C   UNL     1      -4.967   1.731  -4.954  1.00  0.00     0.113 A 
ATOM      3  C   UNL     1      -5.246   3.139  -6.658  1.00  0.00     0.139 A 
ATOM      4  N   UNL     1      -5.512   2.879  -5.313  1.00  0.00    -0.234 NA
ATOM      5  C   UNL     1      -4.445   2.198  -7.276  1.00  0.00     0.101 A 
ATOM      6  S   UNL     1      -4.037   0.952  -6.168  1.00  0.00    -0.125 S 
BRANCH   3   7
ATOM      7  C   UNL     1      -5.834   4.312  -7.308  1.00  0.00     0.271 C 
ATOM      8  N   UNL     1      -7.176   4.421  -7.037  1.00  0.00    -0.341 N 
ATOM      9  O   UNL     1      -5.207   5.076  -8.031  1.00  0.00    -0.267 OA
ATOM     10  H   UNL     1      -7.555   3.722  -6.399  1.00  0.00     0.164 HD
BRANCH   8  11
ATOM     11  C   UNL     1      -8.067   5.368  -7.686  1.00  0.00     0.140 C 
BRANCH  11  12
ATOM     12  C   UNL     1      -7.959   6.701  -6.941  1.00  0.00     0.091 C 
ATOM     13  S   UNL     1      -6.561   7.728  -7.157  1.00  0.00    -0.106 SA
ATOM     14  C   UNL     1      -7.404   9.078  -6.304  1.00  0.00     0.113 C 
ATOM     15  N   UNL     1      -8.848   7.080  -6.078  1.00  0.00    -0.267 NA
ATOM     16  C   UNL     1      -8.426   8.364  -5.434  1.00  0.00     0.205 CG0
ATOM     17  G   UNL     1      -7.861   8.111  -4.026  1.00  0.00     0.000 G0
ENDBRANCH  11  12
BRANCH  11  18
ATOM     18  C   UNL     1      -7.911   5.426  -9.228  1.00  0.00     0.015 C 
ATOM     19  C   UNL     1      -8.459   4.144  -9.869  1.00  0.00     0.010 C 
BRANCH  18  20
ATOM     20  C   UNL     1      -8.506   6.686  -9.889  1.00  0.00     0.002 C 
ATOM     21  C   UNL     1      -9.574   6.365 -10.929  1.00  0.00     0.004 C 
ENDBRANCH  18  20
ENDBRANCH  11  18
ENDBRANCH   8  11
ENDBRANCH   3   7
ENDBRANCH   1   2
BRANCH   1  22
ATOM     22  N   UNL     1      -6.258   1.792  -2.960  1.00  0.00    -0.348 N 
ATOM     23  C   UNL     1      -6.138   2.601  -1.863  1.00  0.00     0.249 C 
ATOM     24  O   UNL     1      -5.059   2.895  -1.360  1.00  0.00    -0.272 OA
ATOM     25  H   UNL     1      -7.205   1.600  -3.285  1.00  0.00     0.163 HD
BRANCH  23  26
ATOM     26  C   UNL     1      -7.488   3.145  -1.373  1.00  0.00     0.238 C 
ATOM     27  N   UNL     1      -7.322   4.562  -0.949  1.00  0.00    -0.236 NA
ATOM     28  C   UNL     1      -8.526   3.172  -2.482  1.00  0.00     0.206 C 
ATOM     29  C   UNL     1      -7.979   5.224  -1.854  1.00  0.00     0.208 C 
ATOM     30  O   UNL     1      -8.607   4.549  -2.848  1.00  0.00    -0.474 OA
ATOM     31  C   UNL     1      -9.899   2.713  -2.009  1.00  0.00     0.056 C 
BRANCH  29  32
ATOM     32  C   UNL     1      -8.089   6.742  -1.964  1.00  0.00     0.171 C 
BRANCH  32  33
ATOM     33  N   UNL     1      -8.500   7.138  -3.301  1.00  0.00    -0.342 N 
ATOM     34  C   UNL     1      -7.862   8.126  -4.011  1.00  0.00     0.246 CG0
ATOM     35  O   UNL     1      -6.915   8.768  -3.563  1.00  0.00    -0.273 OA
ATOM     36  H   UNL     1      -9.308   6.716  -3.748  1.00  0.00     0.164 HD
ATOM     37  G   UNL     1      -8.414   8.351  -5.428  1.00  0.00     0.000 G0
ENDBRANCH  32  33
BRANCH  32  38
ATOM     38  C   UNL     1      -9.029   7.299  -0.863  1.00  0.00     0.017 C 
ATOM     39  C   UNL     1     -10.373   6.559  -0.895  1.00  0.00     0.010 C 
BRANCH  38  40
ATOM     40  C   UNL     1      -8.394   7.265   0.546  1.00  0.00     0.002 C 
ATOM     41  C   UNL     1      -9.293   6.639   1.605  1.00  0.00     0.004 C 
ENDBRANCH  38  40
ENDBRANCH  32  38
ENDBRANCH  29  32
ENDBRANCH  23  26
ENDBRANCH   1  22
TORSDOF 4
ENDMDL
MODEL 8
REMARK VINA RESULT:    -3.894     13.684     17.132
REMARK INTER + INTRA:          -8.323
REMARK INTER:                  -7.030
REMARK INTRA:                  -1.293
REMARK UNBOUND:                -1.697
REMARK SMILES CC[C@H](C)[C@@H]1NC(=O)[C@H]2CSC(=N2)[C@@H]([C@@H](C)CC)NC(=O)c2csc(n2)CNC(=O)[C@H]2N=C1O[C@@H]2C
REMARK SMILES IDX 27 1 25 2 22 3 26 4 23 5 24 6 20 7 19 8 21 9 14 11 12 12
REMARK SMILES IDX 11 13 10 14 13 15 9 16 15 18 16 19 17 20 18 21 28 22 29 23
REMARK SMILES IDX 30 24 31 26 32 27 35 28 33 29 34 30 36 31 5 32 6 33 7 34
REMARK SMILES IDX 8 35 3 38 4 39 2 40 1 41
REMARK H PARENT 19 10 28 25 6 36
REMARK Flexibility Score:   91.900
ROOT
ATOM      1  C   UNL     1      -0.275   0.684   9.487  1.00  0.00     0.183 C 
ENDROOT
BRANCH   1   2
ATOM      2  C   UNL     1      -0.539   1.424  10.767  1.00  0.00     0.113 A 
ATOM      3  C   UNL     1      -0.809   3.135  12.169  1.00  0.00     0.139 A 
ATOM      4  N   UNL     1      -0.693   2.733  10.837  1.00  0.00    -0.234 NA
ATOM      5  C   UNL     1      -0.799   2.098  13.082  1.00  0.00     0.101 A 
ATOM      6  S   UNL     1      -0.616   0.597  12.269  1.00  0.00    -0.125 S 
BRANCH   3   7
ATOM      7  C   UNL     1      -0.889   4.559  12.501  1.00  0.00     0.271 C 
ATOM      8  N   UNL     1      -2.025   5.135  11.987  1.00  0.00    -0.341 N 
ATOM      9  O   UNL     1      -0.028   5.160  13.131  1.00  0.00    -0.267 OA
ATOM     10  H   UNL     1      -2.661   4.501  11.504  1.00  0.00     0.164 HD
BRANCH   8  11
ATOM     11  C   UNL     1      -2.289   6.565  11.990  1.00  0.00     0.140 C 
BRANCH  11  12
ATOM     12  C   UNL     1      -3.172   6.882  10.780  1.00  0.00     0.091 C 
ATOM     13  S   UNL     1      -4.879   6.509  10.804  1.00  0.00    -0.106 SA
ATOM     14  C   UNL     1      -5.126   7.480   9.303  1.00  0.00     0.113 C 
ATOM     15  N   UNL     1      -2.683   7.363   9.680  1.00  0.00    -0.267 NA
ATOM     16  C   UNL     1      -3.757   7.469   8.643  1.00  0.00     0.205 CG0
ATOM     17  G   UNL     1      -3.653   6.320   7.627  1.00  0.00     0.000 G0
ENDBRANCH  11  12
BRANCH  11  18
ATOM     18  C   UNL     1      -2.771   7.113  13.357  1.00  0.00     0.015 C 
ATOM     19  C   UNL     1      -3.160   5.959  14.290  1.00  0.00     0.010 C 
BRANCH  18  20
ATOM     20  C   UNL     1      -1.790   8.086  14.044  1.00  0.00     0.002 C 
ATOM     21  C   UNL     1      -0.429   8.141  13.359  1.00  0.00     0.004 C 
ENDBRANCH  18  20
ENDBRANCH  11  18
ENDBRANCH   8  11
ENDBRANCH   3   7
ENDBRANCH   1   2
BRANCH   1  22
ATOM     22  N   UNL     1       0.003   1.671   8.467  1.00  0.00    -0.348 N 
ATOM     23  C   UNL     1      -0.619   1.731   7.250  1.00  0.00     0.249 C 
ATOM     24  O   UNL     1      -1.547   0.995   6.932  1.00  0.00    -0.272 OA
ATOM     25  H   UNL     1       0.774   2.320   8.618  1.00  0.00     0.163 HD
BRANCH  23  26
ATOM     26  C   UNL     1      -0.072   2.854   6.356  1.00  0.00     0.238 C 
ATOM     27  N   UNL     1      -1.176   3.392   5.513  1.00  0.00    -0.236 NA
ATOM     28  C   UNL     1       0.430   4.034   7.169  1.00  0.00     0.206 C 
ATOM     29  C   UNL     1      -1.365   4.584   5.995  1.00  0.00     0.208 C 
ATOM     30  O   UNL     1      -0.592   5.018   7.021  1.00  0.00    -0.474 OA
ATOM     31  C   UNL     1       1.735   4.604   6.629  1.00  0.00     0.056 C 
BRANCH  29  32
ATOM     32  C   UNL     1      -2.438   5.577   5.557  1.00  0.00     0.171 C 
BRANCH  32  33
ATOM     33  N   UNL     1      -2.712   6.543   6.609  1.00  0.00    -0.342 N 
ATOM     34  C   UNL     1      -3.644   6.321   7.595  1.00  0.00     0.246 CG0
ATOM     35  O   UNL     1      -4.332   5.305   7.649  1.00  0.00    -0.273 OA
ATOM     36  H   UNL     1      -2.245   7.443   6.629  1.00  0.00     0.164 HD
ATOM     37  G   UNL     1      -3.740   7.439   8.645  1.00  0.00     0.000 G0
ENDBRANCH  32  33
BRANCH  32  38
ATOM     38  C   UNL     1      -2.038   6.252   4.219  1.00  0.00     0.017 C 
ATOM     39  C   UNL     1      -2.941   7.463   3.949  1.00  0.00     0.010 C 
BRANCH  38  40
ATOM     40  C   UNL     1      -0.541   6.635   4.160  1.00  0.00     0.002 C 
ATOM     41  C   UNL     1       0.109   6.349   2.813  1.00  0.00     0.004 C 
ENDBRANCH  38  40
ENDBRANCH  32  38
ENDBRANCH  29  32
ENDBRANCH  23  26
ENDBRANCH   1  22
TORSDOF 4
ENDMDL
MODEL 9
REMARK VINA RESULT:    -3.858      2.206      2.547
REMARK INTER + INTRA:          -8.260
REMARK INTER:                  -7.043
REMARK INTRA:                  -1.217
REMARK UNBOUND:                -1.697
REMARK SMILES CC[C@H](C)[C@@H]1NC(=O)[C@H]2CSC(=N2)[C@@H]([C@@H](C)CC)NC(=O)c2csc(n2)CNC(=O)[C@H]2N=C1O[C@@H]2C
REMARK SMILES IDX 27 1 25 2 22 3 26 4 23 5 24 6 20 7 19 8 21 9 14 11 12 12
REMARK SMILES IDX 11 13 10 14 13 15 9 16 15 18 16 19 17 20 18 21 28 22 29 23
REMARK SMILES IDX 30 24 31 26 32 27 35 28 33 29 34 30 36 31 5 32 6 33 7 34
REMARK SMILES IDX 8 35 3 38 4 39 2 40 1 41
REMARK H PARENT 19 10 28 25 6 36
REMARK Flexibility Score:   91.900
ROOT
ATOM      1  C   UNL     1      -6.232   2.141  -3.281  1.00  0.00     0.183 C 
ENDROOT
BRANCH   1   2
ATOM      2  C   UNL     1      -5.616   2.577  -4.580  1.00  0.00     0.113 A 
ATOM      3  C   UNL     1      -5.387   3.637  -6.526  1.00  0.00     0.139 A 
ATOM      4  N   UNL     1      -6.108   3.542  -5.334  1.00  0.00    -0.234 NA
ATOM      5  C   UNL     1      -4.318   2.768  -6.619  1.00  0.00     0.101 A 
ATOM      6  S   UNL     1      -4.222   1.796  -5.207  1.00  0.00    -0.125 S 
BRANCH   3   7
ATOM      7  C   UNL     1      -5.812   4.575  -7.567  1.00  0.00     0.271 C 
ATOM      8  N   UNL     1      -7.172   4.768  -7.550  1.00  0.00    -0.341 N 
ATOM      9  O   UNL     1      -5.047   5.092  -8.371  1.00  0.00    -0.267 OA
ATOM     10  H   UNL     1      -7.675   4.287  -6.806  1.00  0.00     0.164 HD
BRANCH   8  11
ATOM     11  C   UNL     1      -7.907   5.493  -8.573  1.00  0.00     0.140 C 
BRANCH  11  12
ATOM     12  C   UNL     1      -8.259   6.873  -8.010  1.00  0.00     0.091 C 
ATOM     13  S   UNL     1      -6.999   7.971  -7.499  1.00  0.00    -0.106 SA
ATOM     14  C   UNL     1      -8.200   9.313  -7.376  1.00  0.00     0.113 C 
ATOM     15  N   UNL     1      -9.486   7.245  -7.823  1.00  0.00    -0.267 NA
ATOM     16  C   UNL     1      -9.521   8.589  -7.165  1.00  0.00     0.205 CG0
ATOM     17  G   UNL     1      -9.834   8.457  -5.665  1.00  0.00     0.000 G0
ENDBRANCH  11  12
BRANCH  11  18
ATOM     18  C   UNL     1      -7.233   5.470  -9.969  1.00  0.00     0.015 C 
ATOM     19  C   UNL     1      -7.525   4.143 -10.683  1.00  0.00     0.010 C 
BRANCH  18  20
ATOM     20  C   UNL     1      -7.570   6.678 -10.867  1.00  0.00     0.002 C 
ATOM     21  C   UNL     1      -8.269   6.280 -12.163  1.00  0.00     0.004 C 
ENDBRANCH  18  20
ENDBRANCH  11  18
ENDBRANCH   8  11
ENDBRANCH   3   7
ENDBRANCH   1   2
BRANCH   1  22
ATOM     22  N   UNL     1      -7.622   2.538  -3.306  1.00  0.00    -0.348 N 
ATOM     23  C   UNL     1      -8.191   3.440  -2.449  1.00  0.00     0.249 C 
ATOM     24  O   UNL     1      -7.551   4.072  -1.617  1.00  0.00    -0.272 OA
ATOM     25  H   UNL     1      -8.252   2.056  -3.948  1.00  0.00     0.163 HD
BRANCH  23  26
ATOM     26  C   UNL     1      -9.699   3.616  -2.684  1.00  0.00     0.238 C 
ATOM     27  N   UNL     1     -10.077   5.030  -2.410  1.00  0.00    -0.236 NA
ATOM     28  C   UNL     1     -10.081   3.367  -4.133  1.00  0.00     0.206 C 
ATOM     29  C   UNL     1     -10.372   5.493  -3.587  1.00  0.00     0.208 C 
ATOM     30  O   UNL     1     -10.296   4.673  -4.664  1.00  0.00    -0.474 OA
ATOM     31  C   UNL     1     -11.371   2.569  -4.269  1.00  0.00     0.056 C 
BRANCH  29  32
ATOM     32  C   UNL     1     -10.763   6.930  -3.922  1.00  0.00     0.171 C 
BRANCH  32  33
ATOM     33  N   UNL     1     -10.416   7.256  -5.297  1.00  0.00    -0.342 N 
ATOM     34  C   UNL     1      -9.870   8.465  -5.656  1.00  0.00     0.246 CG0
ATOM     35  O   UNL     1      -9.657   9.369  -4.853  1.00  0.00    -0.273 OA
ATOM     36  H   UNL     1     -10.602   6.606  -6.053  1.00  0.00     0.164 HD
ATOM     37  G   UNL     1      -9.521   8.587  -7.149  1.00  0.00     0.000 G0
ENDBRANCH  32  33
BRANCH  32  38
ATOM     38  C   UNL     1     -12.265   7.170  -3.615  1.00  0.00     0.017 C 
ATOM     39  C   UNL     1     -12.446   8.506  -2.885  1.00  0.00     0.010 C 
BRANCH  38  40
ATOM     40  C   UNL     1     -13.158   7.082  -4.874  1.00  0.00     0.002 C 
ATOM     41  C   UNL     1     -14.269   8.124  -4.906  1.00  0.00     0.004 C 
ENDBRANCH  38  40
ENDBRANCH  32  38
ENDBRANCH  29  32
ENDBRANCH  23  26
ENDBRANCH   1  22
TORSDOF 4
ENDMDL
MODEL 10
REMARK VINA RESULT:    -3.597      5.564     10.101
REMARK INTER + INTRA:          -7.817
REMARK INTER:                  -6.850
REMARK INTRA:                  -0.968
REMARK UNBOUND:                -1.697
REMARK SMILES CC[C@H](C)[C@@H]1NC(=O)[C@H]2CSC(=N2)[C@@H]([C@@H](C)CC)NC(=O)c2csc(n2)CNC(=O)[C@H]2N=C1O[C@@H]2C
REMARK SMILES IDX 27 1 25 2 22 3 26 4 23 5 24 6 20 7 19 8 21 9 14 11 12 12
REMARK SMILES IDX 11 13 10 14 13 15 9 16 15 18 16 19 17 20 18 21 28 22 29 23
REMARK SMILES IDX 30 24 31 26 32 27 35 28 33 29 34 30 36 31 5 32 6 33 7 34
REMARK SMILES IDX 8 35 3 38 4 39 2 40 1 41
REMARK H PARENT 19 10 28 25 6 36
REMARK Flexibility Score:   91.900
ROOT
ATOM      1  C   UNL     1     -12.025   8.421  -4.210  1.00  0.00     0.183 C 
ENDROOT
BRANCH   1   2
ATOM      2  C   UNL     1     -12.840   8.451  -2.949  1.00  0.00     0.113 A 
ATOM      3  C   UNL     1     -13.372   8.166  -0.804  1.00  0.00     0.139 A 
ATOM      4  N   UNL     1     -12.351   8.163  -1.756  1.00  0.00    -0.234 NA
ATOM      5  C   UNL     1     -14.613   8.518  -1.297  1.00  0.00     0.101 A 
ATOM      6  S   UNL     1     -14.514   8.827  -2.982  1.00  0.00    -0.125 S 
BRANCH   3   7
ATOM      7  C   UNL     1     -13.086   7.775   0.579  1.00  0.00     0.271 C 
ATOM      8  N   UNL     1     -11.961   8.400   1.058  1.00  0.00    -0.341 N 
ATOM      9  O   UNL     1     -13.754   6.965   1.209  1.00  0.00    -0.267 OA
ATOM     10  H   UNL     1     -11.524   9.068   0.424  1.00  0.00     0.164 HD
BRANCH   8  11
ATOM     11  C   UNL     1     -11.323   8.076   2.323  1.00  0.00     0.140 C 
BRANCH  11  12
ATOM     12  C   UNL     1      -9.813   7.990   2.080  1.00  0.00     0.091 C 
ATOM     13  S   UNL     1      -8.814   9.420   2.190  1.00  0.00    -0.106 SA
ATOM     14  C   UNL     1      -7.326   8.399   2.149  1.00  0.00     0.113 C 
ATOM     15  N   UNL     1      -9.238   6.888   1.715  1.00  0.00    -0.267 NA
ATOM     16  C   UNL     1      -7.785   7.130   1.448  1.00  0.00     0.205 CG0
ATOM     17  G   UNL     1      -7.512   7.213  -0.062  1.00  0.00     0.000 G0
ENDBRANCH  11  12
BRANCH  11  18
ATOM     18  C   UNL     1     -11.781   8.967   3.507  1.00  0.00     0.015 C 
ATOM     19  C   UNL     1     -12.033  10.403   3.029  1.00  0.00     0.010 C 
BRANCH  18  20
ATOM     20  C   UNL     1     -12.984   8.417   4.300  1.00  0.00     0.002 C 
ATOM     21  C   UNL     1     -12.663   8.162   5.768  1.00  0.00     0.004 C 
ENDBRANCH  18  20
ENDBRANCH  11  18
ENDBRANCH   8  11
ENDBRANCH   3   7
ENDBRANCH   1   2
BRANCH   1  22
ATOM     22  N   UNL     1     -11.211   7.227  -4.172  1.00  0.00    -0.348 N 
ATOM     23  C   UNL     1     -11.702   5.949  -4.171  1.00  0.00     0.249 C 
ATOM     24  O   UNL     1     -12.893   5.686  -4.290  1.00  0.00    -0.272 OA
ATOM     25  H   UNL     1     -10.204   7.330  -4.051  1.00  0.00     0.163 HD
BRANCH  23  26
ATOM     26  C   UNL     1     -10.596   4.888  -4.069  1.00  0.00     0.238 C 
ATOM     27  N   UNL     1      -9.269   5.562  -4.034  1.00  0.00    -0.236 NA
ATOM     28  C   UNL     1     -10.685   4.098  -2.774  1.00  0.00     0.206 C 
ATOM     29  C   UNL     1      -8.859   5.350  -2.819  1.00  0.00     0.208 C 
ATOM     30  O   UNL     1      -9.633   4.631  -1.971  1.00  0.00    -0.474 OA
ATOM     31  C   UNL     1     -10.434   2.610  -2.980  1.00  0.00     0.056 C 
BRANCH  29  32
ATOM     32  C   UNL     1      -7.573   5.882  -2.193  1.00  0.00     0.171 C 
BRANCH  32  33
ATOM     33  N   UNL     1      -7.710   6.004  -0.750  1.00  0.00    -0.342 N 
ATOM     34  C   UNL     1      -7.499   7.187  -0.083  1.00  0.00     0.246 CG0
ATOM     35  O   UNL     1      -7.154   8.222  -0.647  1.00  0.00    -0.273 OA
ATOM     36  H   UNL     1      -7.934   5.199  -0.174  1.00  0.00     0.164 HD
ATOM     37  G   UNL     1      -7.753   7.119   1.432  1.00  0.00     0.000 G0
ENDBRANCH  32  33
BRANCH  32  38
ATOM     38  C   UNL     1      -6.364   5.000  -2.602  1.00  0.00     0.017 C 
ATOM     39  C   UNL     1      -5.357   4.918  -1.449  1.00  0.00     0.010 C 
BRANCH  38  40
ATOM     40  C   UNL     1      -6.782   3.595  -3.094  1.00  0.00     0.002 C 
ATOM     41  C   UNL     1      -5.608   2.646  -3.295  1.00  0.00     0.004 C 
ENDBRANCH  38  40
ENDBRANCH  32  38
ENDBRANCH  29  32
ENDBRANCH  23  26
ENDBRANCH   1  22
TORSDOF 4
ENDMDL
