MODEL 1
REMARK VINA RESULT:    -8.065      0.000      0.000
REMARK INTER + INTRA:         -19.924
REMARK INTER:                 -16.315
REMARK INTRA:                  -3.609
REMARK UNBOUND:                -3.609
REMARK SMILES CC[C@@H](C)[C@@H](NC(=O)[C@@H](O)Cc1ccc(O)c(Cl)c1)C(=O)N1[C@H](C(=O)NCCCCN=C(N)N)C[C@H]2CC[C@H](OS(=O)(=O)O)C[C@@H]21
REMARK SMILES IDX 22 1 36 2 46 3 35 4 23 5 45 6 37 7 39 8 38 9 20 10 21 11
REMARK SMILES IDX 5 12 6 13 7 14 8 15 9 17 11 18 12 19 17 20 19 21 15 22 14 23
REMARK SMILES IDX 13 24 18 25 16 26 10 28 3 30 4 31 2 32 1 33 24 34 25 35
REMARK SMILES IDX 26 36 27 38 28 39 29 40 30 41 31 42 32 43 33 44 34 45 40 50
REMARK SMILES IDX 41 51 42 52 43 53 44 54
REMARK H PARENT 6 16 16 27 10 29 26 37 33 46 33 47 34 48 34 49 44 55
ROOT
ATOM      1  N   UNL     1      -4.708   1.885  -7.374  1.00  0.00    -0.326 N 
ATOM      2  C   UNL     1      -4.940   1.903  -9.716  1.00  0.00     0.014 C 
ATOM      3  C   UNL     1      -4.009   2.336  -8.580  1.00  0.00     0.091 C 
ATOM      4  C   UNL     1      -6.321   2.077  -9.103  1.00  0.00     0.041 C 
ATOM      5  C   UNL     1      -6.084   1.449  -7.717  1.00  0.00     0.175 C 
ATOM      6  C   UNL     1      -2.614   1.780  -8.860  1.00  0.00     0.059 C 
ATOM      7  C   UNL     1      -4.601   2.630 -11.003  1.00  0.00     0.008 C 
ATOM      8  C   UNL     1      -2.280   1.668 -10.363  1.00  0.00     0.143 C 
ATOM      9  C   UNL     1      -3.072   2.684 -11.211  1.00  0.00     0.034 C 
ENDROOT
BRANCH   1  10
ATOM     10  C   UNL     1      -4.354   2.016  -6.041  1.00  0.00     0.246 C 
ATOM     11  O   UNL     1      -3.900   1.036  -5.441  1.00  0.00    -0.272 OA
BRANCH  10  12
ATOM     12  C   UNL     1      -4.495   3.400  -5.343  1.00  0.00     0.174 C 
BRANCH  12  13
ATOM     13  N   UNL     1      -3.175   3.904  -4.965  1.00  0.00    -0.342 N 
ATOM     14  C   UNL     1      -2.592   5.046  -5.467  1.00  0.00     0.249 C 
ATOM     15  O   UNL     1      -3.134   5.790  -6.274  1.00  0.00    -0.272 OA
ATOM     16  H   UNL     1      -2.546   3.314  -4.427  1.00  0.00     0.164 HD
BRANCH  14  17
ATOM     17  C   UNL     1      -1.186   5.302  -4.884  1.00  0.00     0.207 C 
BRANCH  17  18
ATOM     18  C   UNL     1      -0.343   4.024  -4.937  1.00  0.00     0.077 C 
BRANCH  18  19
ATOM     19  C   UNL     1       0.087   3.693  -6.349  1.00  0.00    -0.043 A 
ATOM     20  C   UNL     1       0.257   4.297  -8.692  1.00  0.00     0.083 A 
ATOM     21  C   UNL     1      -0.095   4.625  -7.382  1.00  0.00     0.028 A 
ATOM     22  C   UNL     1       0.790   3.040  -8.978  1.00  0.00     0.134 A 
ATOM     23  C   UNL     1       0.975   2.107  -7.964  1.00  0.00     0.048 A 
ATOM     24  C   UNL     1       0.622   2.431  -6.652  1.00  0.00     0.008 A 
ATOM     25  Cl  UNL     1       0.025   5.456  -9.948  1.00  0.00    -0.080 Cl
BRANCH  22  26
ATOM     26  O   UNL     1       1.140   2.669 -10.248  1.00  0.00    -0.506 OA
ATOM     27  H   UNL     1       1.962   3.147 -10.462  1.00  0.00     0.293 HD
ENDBRANCH  22  26
ENDBRANCH  18  19
ENDBRANCH  17  18
BRANCH  17  28
ATOM     28  O   UNL     1      -1.265   5.765  -3.526  1.00  0.00    -0.383 OA
ATOM     29  H   UNL     1      -0.991   5.006  -2.964  1.00  0.00     0.211 HD
ENDBRANCH  17  28
ENDBRANCH  14  17
ENDBRANCH  12  13
BRANCH  12  30
ATOM     30  C   UNL     1      -5.482   3.370  -4.146  1.00  0.00     0.018 C 
ATOM     31  C   UNL     1      -6.877   2.912  -4.600  1.00  0.00     0.010 C 
BRANCH  30  32
ATOM     32  C   UNL     1      -5.585   4.717  -3.390  1.00  0.00     0.002 C 
ATOM     33  C   UNL     1      -6.508   5.750  -4.023  1.00  0.00     0.004 C 
ENDBRANCH  30  32
ENDBRANCH  12  30
ENDBRANCH  10  12
ENDBRANCH   1  10
BRANCH   5  34
ATOM     34  C   UNL     1      -6.174  -0.099  -7.767  1.00  0.00     0.242 C 
ATOM     35  O   UNL     1      -5.378  -0.784  -8.409  1.00  0.00    -0.273 OA
ATOM     36  N   UNL     1      -7.240  -0.646  -7.088  1.00  0.00    -0.354 N 
ATOM     37  H   UNL     1      -7.933  -0.021  -6.676  1.00  0.00     0.163 HD
BRANCH  36  38
ATOM     38  C   UNL     1      -7.356  -2.070  -6.850  1.00  0.00     0.116 C 
BRANCH  38  39
ATOM     39  C   UNL     1      -8.303  -2.691  -7.874  1.00  0.00     0.023 C 
BRANCH  39  40
ATOM     40  C   UNL     1      -7.814  -4.046  -8.374  1.00  0.00     0.026 C 
BRANCH  40  41
ATOM     41  C   UNL     1      -6.562  -3.887  -9.235  1.00  0.00     0.146 C 
BRANCH  41  42
ATOM     42  N   UNL     1      -5.507  -4.759  -8.736  1.00  0.00    -0.254 NA
ATOM     43  C   UNL     1      -4.318  -4.303  -8.605  1.00  0.00     0.185 C 
ATOM     44  N   UNL     1      -3.829  -3.075  -8.860  1.00  0.00    -0.370 N 
ATOM     45  N   UNL     1      -3.358  -5.124  -8.147  1.00  0.00    -0.370 N 
ATOM     46  H   UNL     1      -2.838  -2.926  -8.944  1.00  0.00     0.159 HD
ATOM     47  H   UNL     1      -4.422  -2.325  -9.200  1.00  0.00     0.159 HD
ATOM     48  H   UNL     1      -3.645  -6.067  -7.922  1.00  0.00     0.159 HD
ATOM     49  H   UNL     1      -2.478  -4.790  -7.796  1.00  0.00     0.159 HD
ENDBRANCH  41  42
ENDBRANCH  40  41
ENDBRANCH  39  40
ENDBRANCH  38  39
ENDBRANCH  36  38
ENDBRANCH   5  34
BRANCH   8  50
ATOM     50  O   UNL     1      -2.579   0.354 -10.835  1.00  0.00    -0.245 OA
BRANCH  50  51
ATOM     51  S   UNL     1      -1.365  -0.643 -11.257  1.00  0.00     0.397 S 
ATOM     52  O   UNL     1      -1.736  -1.303 -12.488  1.00  0.00    -0.169 OA
ATOM     53  O   UNL     1      -0.924  -1.391 -10.097  1.00  0.00    -0.169 OA
BRANCH  51  54
ATOM     54  O   UNL     1      -0.200   0.393 -11.650  1.00  0.00    -0.264 OA
ATOM     55  H   UNL     1      -0.313   1.193 -11.096  1.00  0.00     0.236 HD
ENDBRANCH  51  54
ENDBRANCH  50  51
ENDBRANCH   8  50
TORSDOF 19
ENDMDL
MODEL 2
REMARK VINA RESULT:    -7.519      1.974      2.742
REMARK INTER + INTRA:         -18.821
REMARK INTER:                 -15.824
REMARK INTRA:                  -2.997
REMARK UNBOUND:                -3.609
REMARK SMILES CC[C@@H](C)[C@@H](NC(=O)[C@@H](O)Cc1ccc(O)c(Cl)c1)C(=O)N1[C@H](C(=O)NCCCCN=C(N)N)C[C@H]2CC[C@H](OS(=O)(=O)O)C[C@@H]21
REMARK SMILES IDX 22 1 36 2 46 3 35 4 23 5 45 6 37 7 39 8 38 9 20 10 21 11
REMARK SMILES IDX 5 12 6 13 7 14 8 15 9 17 11 18 12 19 17 20 19 21 15 22 14 23
REMARK SMILES IDX 13 24 18 25 16 26 10 28 3 30 4 31 2 32 1 33 24 34 25 35
REMARK SMILES IDX 26 36 27 38 28 39 29 40 30 41 31 42 32 43 33 44 34 45 40 50
REMARK SMILES IDX 41 51 42 52 43 53 44 54
REMARK H PARENT 6 16 16 27 10 29 26 37 33 46 33 47 34 48 34 49 44 55
ROOT
ATOM      1  N   UNL     1      -4.949   1.997  -7.421  1.00  0.00    -0.326 N 
ATOM      2  C   UNL     1      -4.944   1.968  -9.775  1.00  0.00     0.014 C 
ATOM      3  C   UNL     1      -4.136   2.433  -8.560  1.00  0.00     0.091 C 
ATOM      4  C   UNL     1      -6.381   2.139  -9.307  1.00  0.00     0.041 C 
ATOM      5  C   UNL     1      -6.280   1.540  -7.892  1.00  0.00     0.175 C 
ATOM      6  C   UNL     1      -2.715   1.887  -8.687  1.00  0.00     0.059 C 
ATOM      7  C   UNL     1      -4.484   2.674 -11.035  1.00  0.00     0.008 C 
ATOM      8  C   UNL     1      -2.230   1.749 -10.147  1.00  0.00     0.143 C 
ATOM      9  C   UNL     1      -2.943   2.740 -11.089  1.00  0.00     0.034 C 
ENDROOT
BRANCH   1  10
ATOM     10  C   UNL     1      -4.732   2.157  -6.063  1.00  0.00     0.246 C 
ATOM     11  O   UNL     1      -4.485   1.163  -5.372  1.00  0.00    -0.272 OA
BRANCH  10  12
ATOM     12  C   UNL     1      -4.762   3.585  -5.445  1.00  0.00     0.174 C 
BRANCH  12  13
ATOM     13  N   UNL     1      -3.414   3.981  -5.037  1.00  0.00    -0.342 N 
ATOM     14  C   UNL     1      -2.749   5.099  -5.486  1.00  0.00     0.249 C 
ATOM     15  O   UNL     1      -3.230   5.912  -6.265  1.00  0.00    -0.272 OA
ATOM     16  H   UNL     1      -2.832   3.326  -4.520  1.00  0.00     0.164 HD
BRANCH  14  17
ATOM     17  C   UNL     1      -1.334   5.232  -4.884  1.00  0.00     0.207 C 
BRANCH  17  18
ATOM     18  C   UNL     1      -0.593   3.893  -4.955  1.00  0.00     0.077 C 
BRANCH  18  19
ATOM     19  C   UNL     1      -0.067   3.615  -6.345  1.00  0.00    -0.043 A 
ATOM     20  C   UNL     1       0.205   4.278  -8.662  1.00  0.00     0.083 A 
ATOM     21  C   UNL     1      -0.238   4.559  -7.369  1.00  0.00     0.028 A 
ATOM     22  C   UNL     1       0.819   3.057  -8.940  1.00  0.00     0.134 A 
ATOM     23  C   UNL     1       0.996   2.113  -7.935  1.00  0.00     0.048 A 
ATOM     24  C   UNL     1       0.551   2.390  -6.640  1.00  0.00     0.008 A 
ATOM     25  Cl  UNL     1      -0.015   5.451  -9.908  1.00  0.00    -0.080 Cl
BRANCH  22  26
ATOM     26  O   UNL     1       1.261   2.733 -10.194  1.00  0.00    -0.506 OA
ATOM     27  H   UNL     1       1.982   3.354 -10.407  1.00  0.00     0.293 HD
ENDBRANCH  22  26
ENDBRANCH  18  19
ENDBRANCH  17  18
BRANCH  17  28
ATOM     28  O   UNL     1      -1.392   5.673  -3.518  1.00  0.00    -0.383 OA
ATOM     29  H   UNL     1      -1.186   4.883  -2.968  1.00  0.00     0.211 HD
ENDBRANCH  17  28
ENDBRANCH  14  17
ENDBRANCH  12  13
BRANCH  12  30
ATOM     30  C   UNL     1      -5.792   3.719  -4.291  1.00  0.00     0.018 C 
ATOM     31  C   UNL     1      -6.840   4.795  -4.616  1.00  0.00     0.010 C 
BRANCH  30  32
ATOM     32  C   UNL     1      -5.148   4.002  -2.912  1.00  0.00     0.002 C 
ATOM     33  C   UNL     1      -5.563   5.314  -2.258  1.00  0.00     0.004 C 
ENDBRANCH  30  32
ENDBRANCH  12  30
ENDBRANCH  10  12
ENDBRANCH   1  10
BRANCH   5  34
ATOM     34  C   UNL     1      -6.351  -0.010  -7.920  1.00  0.00     0.242 C 
ATOM     35  O   UNL     1      -5.350  -0.712  -8.069  1.00  0.00    -0.273 OA
ATOM     36  N   UNL     1      -7.618  -0.540  -7.821  1.00  0.00    -0.354 N 
ATOM     37  H   UNL     1      -8.417   0.094  -7.821  1.00  0.00     0.163 HD
BRANCH  36  38
ATOM     38  C   UNL     1      -7.850  -1.955  -7.615  1.00  0.00     0.116 C 
BRANCH  38  39
ATOM     39  C   UNL     1      -7.834  -2.270  -6.121  1.00  0.00     0.023 C 
BRANCH  39  40
ATOM     40  C   UNL     1      -8.242  -3.710  -5.826  1.00  0.00     0.026 C 
BRANCH  40  41
ATOM     41  C   UNL     1      -9.420  -3.750  -4.851  1.00  0.00     0.146 C 
BRANCH  41  42
ATOM     42  N   UNL     1     -10.173  -4.982  -5.040  1.00  0.00    -0.254 NA
ATOM     43  C   UNL     1     -11.448  -4.969  -4.927  1.00  0.00     0.185 C 
ATOM     44  N   UNL     1     -12.281  -3.950  -4.647  1.00  0.00    -0.370 N 
ATOM     45  N   UNL     1     -12.124  -6.117  -5.100  1.00  0.00    -0.370 N 
ATOM     46  H   UNL     1     -13.226  -4.126  -4.350  1.00  0.00     0.159 HD
ATOM     47  H   UNL     1     -11.938  -3.006  -4.500  1.00  0.00     0.159 HD
ATOM     48  H   UNL     1     -11.571  -6.933  -5.324  1.00  0.00     0.159 HD
ATOM     49  H   UNL     1     -13.115  -6.145  -5.263  1.00  0.00     0.159 HD
ENDBRANCH  41  42
ENDBRANCH  40  41
ENDBRANCH  39  40
ENDBRANCH  38  39
ENDBRANCH  36  38
ENDBRANCH   5  34
BRANCH   8  50
ATOM     50  O   UNL     1      -2.468   0.423 -10.619  1.00  0.00    -0.245 OA
BRANCH  50  51
ATOM     51  S   UNL     1      -1.289  -0.373 -11.407  1.00  0.00     0.397 S 
ATOM     52  O   UNL     1      -0.198   0.550 -11.626  1.00  0.00    -0.169 OA
ATOM     53  O   UNL     1      -1.862  -1.142 -12.492  1.00  0.00    -0.169 OA
BRANCH  51  54
ATOM     54  O   UNL     1      -0.772  -1.404 -10.286  1.00  0.00    -0.264 OA
ATOM     55  H   UNL     1      -0.454  -0.880  -9.523  1.00  0.00     0.236 HD
ENDBRANCH  51  54
ENDBRANCH  50  51
ENDBRANCH   8  50
TORSDOF 19
ENDMDL
MODEL 3
REMARK VINA RESULT:    -7.460      4.467     10.126
REMARK INTER + INTRA:         -18.700
REMARK INTER:                 -15.615
REMARK INTRA:                  -3.085
REMARK UNBOUND:                -3.609
REMARK SMILES CC[C@@H](C)[C@@H](NC(=O)[C@@H](O)Cc1ccc(O)c(Cl)c1)C(=O)N1[C@H](C(=O)NCCCCN=C(N)N)C[C@H]2CC[C@H](OS(=O)(=O)O)C[C@@H]21
REMARK SMILES IDX 22 1 36 2 46 3 35 4 23 5 45 6 37 7 39 8 38 9 20 10 21 11
REMARK SMILES IDX 5 12 6 13 7 14 8 15 9 17 11 18 12 19 17 20 19 21 15 22 14 23
REMARK SMILES IDX 13 24 18 25 16 26 10 28 3 30 4 31 2 32 1 33 24 34 25 35
REMARK SMILES IDX 26 36 27 38 28 39 29 40 30 41 31 42 32 43 33 44 34 45 40 50
REMARK SMILES IDX 41 51 42 52 43 53 44 54
REMARK H PARENT 6 16 16 27 10 29 26 37 33 46 33 47 34 48 34 49 44 55
ROOT
ATOM      1  N   UNL     1      -7.135   1.091  -6.457  1.00  0.00    -0.326 N 
ATOM      2  C   UNL     1      -7.004   3.437  -6.596  1.00  0.00     0.014 C 
ATOM      3  C   UNL     1      -7.682   2.297  -5.830  1.00  0.00     0.091 C 
ATOM      4  C   UNL     1      -6.890   2.873  -8.004  1.00  0.00     0.041 C 
ATOM      5  C   UNL     1      -6.388   1.452  -7.687  1.00  0.00     0.175 C 
ATOM      6  C   UNL     1      -7.441   2.510  -4.336  1.00  0.00     0.059 C 
ATOM      7  C   UNL     1      -7.736   4.747  -6.378  1.00  0.00     0.008 C 
ATOM      8  C   UNL     1      -7.345   3.996  -3.928  1.00  0.00     0.143 C 
ATOM      9  C   UNL     1      -8.122   4.914  -4.893  1.00  0.00     0.034 C 
ENDROOT
BRANCH   1  10
ATOM     10  C   UNL     1      -7.396  -0.243  -6.193  1.00  0.00     0.246 C 
ATOM     11  O   UNL     1      -7.339  -0.647  -5.027  1.00  0.00    -0.272 OA
BRANCH  10  12
ATOM     12  C   UNL     1      -7.795  -1.192  -7.360  1.00  0.00     0.174 C 
BRANCH  12  13
ATOM     13  N   UNL     1      -9.005  -1.935  -7.007  1.00  0.00    -0.342 N 
ATOM     14  C   UNL     1     -10.292  -1.481  -7.189  1.00  0.00     0.249 C 
ATOM     15  O   UNL     1     -10.570  -0.403  -7.699  1.00  0.00    -0.272 OA
ATOM     16  H   UNL     1      -8.932  -2.772  -6.435  1.00  0.00     0.164 HD
BRANCH  14  17
ATOM     17  C   UNL     1     -11.353  -2.490  -6.700  1.00  0.00     0.207 C 
BRANCH  17  18
ATOM     18  C   UNL     1     -10.965  -3.915  -7.105  1.00  0.00     0.077 C 
BRANCH  18  19
ATOM     19  C   UNL     1     -10.805  -4.818  -5.903  1.00  0.00    -0.043 A 
ATOM     20  C   UNL     1     -10.575  -5.105  -3.505  1.00  0.00     0.083 A 
ATOM     21  C   UNL     1     -10.773  -4.275  -4.609  1.00  0.00     0.028 A 
ATOM     22  C   UNL     1     -10.407  -6.478  -3.686  1.00  0.00     0.134 A 
ATOM     23  C   UNL     1     -10.437  -7.029  -4.961  1.00  0.00     0.048 A 
ATOM     24  C   UNL     1     -10.633  -6.201  -6.068  1.00  0.00     0.008 A 
ATOM     25  Cl  UNL     1     -10.538  -4.419  -1.923  1.00  0.00    -0.080 Cl
BRANCH  22  26
ATOM     26  O   UNL     1     -10.200  -7.331  -2.635  1.00  0.00    -0.506 OA
ATOM     27  H   UNL     1     -10.475  -8.217  -2.935  1.00  0.00     0.293 HD
ENDBRANCH  22  26
ENDBRANCH  18  19
ENDBRANCH  17  18
BRANCH  17  28
ATOM     28  O   UNL     1     -12.649  -2.178  -7.235  1.00  0.00    -0.383 OA
ATOM     29  H   UNL     1     -12.766  -2.759  -8.021  1.00  0.00     0.211 HD
ENDBRANCH  17  28
ENDBRANCH  14  17
ENDBRANCH  12  13
BRANCH  12  30
ATOM     30  C   UNL     1      -6.635  -2.124  -7.800  1.00  0.00     0.018 C 
ATOM     31  C   UNL     1      -6.191  -1.805  -9.236  1.00  0.00     0.010 C 
BRANCH  30  32
ATOM     32  C   UNL     1      -6.964  -3.631  -7.667  1.00  0.00     0.002 C 
ATOM     33  C   UNL     1      -7.143  -4.377  -8.983  1.00  0.00     0.004 C 
ENDBRANCH  30  32
ENDBRANCH  12  30
ENDBRANCH  10  12
ENDBRANCH   1  10
BRANCH   5  34
ATOM     34  C   UNL     1      -4.858   1.430  -7.429  1.00  0.00     0.242 C 
ATOM     35  O   UNL     1      -4.378   1.100  -6.344  1.00  0.00    -0.273 OA
ATOM     36  N   UNL     1      -4.080   1.858  -8.481  1.00  0.00    -0.354 N 
ATOM     37  H   UNL     1      -4.540   2.233  -9.311  1.00  0.00     0.163 HD
BRANCH  36  38
ATOM     38  C   UNL     1      -2.640   1.701  -8.492  1.00  0.00     0.116 C 
BRANCH  38  39
ATOM     39  C   UNL     1      -1.986   2.959  -9.059  1.00  0.00     0.023 C 
BRANCH  39  40
ATOM     40  C   UNL     1      -1.538   3.925  -7.968  1.00  0.00     0.026 C 
BRANCH  40  41
ATOM     41  C   UNL     1      -1.282   3.182  -6.657  1.00  0.00     0.146 C 
BRANCH  41  42
ATOM     42  N   UNL     1      -1.684   4.016  -5.532  1.00  0.00    -0.254 NA
ATOM     43  C   UNL     1      -0.808   4.724  -4.924  1.00  0.00     0.185 C 
ATOM     44  N   UNL     1       0.513   4.850  -5.152  1.00  0.00    -0.370 N 
ATOM     45  N   UNL     1      -1.197   5.483  -3.886  1.00  0.00    -0.370 N 
ATOM     46  H   UNL     1       1.118   5.246  -4.452  1.00  0.00     0.159 HD
ATOM     47  H   UNL     1       0.972   4.356  -5.910  1.00  0.00     0.159 HD
ATOM     48  H   UNL     1      -2.181   5.453  -3.654  1.00  0.00     0.159 HD
ATOM     49  H   UNL     1      -0.637   6.231  -3.518  1.00  0.00     0.159 HD
ENDBRANCH  41  42
ENDBRANCH  40  41
ENDBRANCH  39  40
ENDBRANCH  38  39
ENDBRANCH  36  38
ENDBRANCH   5  34
BRANCH   8  50
ATOM     50  O   UNL     1      -5.980   4.412  -3.908  1.00  0.00    -0.245 OA
BRANCH  50  51
ATOM     51  S   UNL     1      -5.304   4.881  -2.505  1.00  0.00     0.397 S 
ATOM     52  O   UNL     1      -6.312   5.571  -1.733  1.00  0.00    -0.169 OA
ATOM     53  O   UNL     1      -4.008   5.474  -2.764  1.00  0.00    -0.169 OA
BRANCH  51  54
ATOM     54  O   UNL     1      -5.066   3.476  -1.760  1.00  0.00    -0.264 OA
ATOM     55  H   UNL     1      -4.924   3.663  -0.810  1.00  0.00     0.236 HD
ENDBRANCH  51  54
ENDBRANCH  50  51
ENDBRANCH   8  50
TORSDOF 19
ENDMDL
MODEL 4
REMARK VINA RESULT:    -7.225      2.991      6.406
REMARK INTER + INTRA:         -18.226
REMARK INTER:                 -14.892
REMARK INTRA:                  -3.333
REMARK UNBOUND:                -3.609
REMARK SMILES CC[C@@H](C)[C@@H](NC(=O)[C@@H](O)Cc1ccc(O)c(Cl)c1)C(=O)N1[C@H](C(=O)NCCCCN=C(N)N)C[C@H]2CC[C@H](OS(=O)(=O)O)C[C@@H]21
REMARK SMILES IDX 22 1 36 2 46 3 35 4 23 5 45 6 37 7 39 8 38 9 20 10 21 11
REMARK SMILES IDX 5 12 6 13 7 14 8 15 9 17 11 18 12 19 17 20 19 21 15 22 14 23
REMARK SMILES IDX 13 24 18 25 16 26 10 28 3 30 4 31 2 32 1 33 24 34 25 35
REMARK SMILES IDX 26 36 27 38 28 39 29 40 30 41 31 42 32 43 33 44 34 45 40 50
REMARK SMILES IDX 41 51 42 52 43 53 44 54
REMARK H PARENT 6 16 16 27 10 29 26 37 33 46 33 47 34 48 34 49 44 55
ROOT
ATOM      1  N   UNL     1      -4.989   0.559  -8.515  1.00  0.00    -0.326 N 
ATOM      2  C   UNL     1      -6.487  -0.382 -10.069  1.00  0.00     0.014 C 
ATOM      3  C   UNL     1      -5.645  -0.713  -8.833  1.00  0.00     0.091 C 
ATOM      4  C   UNL     1      -5.624   0.635 -10.800  1.00  0.00     0.041 C 
ATOM      5  C   UNL     1      -5.197   1.527  -9.620  1.00  0.00     0.175 C 
ATOM      6  C   UNL     1      -6.557  -1.341  -7.781  1.00  0.00     0.059 C 
ATOM      7  C   UNL     1      -6.916  -1.647 -10.787  1.00  0.00     0.008 C 
ATOM      8  C   UNL     1      -7.721  -2.162  -8.377  1.00  0.00     0.143 C 
ATOM      9  C   UNL     1      -7.382  -2.715  -9.776  1.00  0.00     0.034 C 
ENDROOT
BRANCH   1  10
ATOM     10  C   UNL     1      -4.091   0.866  -7.508  1.00  0.00     0.246 C 
ATOM     11  O   UNL     1      -4.500   0.959  -6.346  1.00  0.00    -0.272 OA
BRANCH  10  12
ATOM     12  C   UNL     1      -2.584   1.046  -7.852  1.00  0.00     0.174 C 
BRANCH  12  13
ATOM     13  N   UNL     1      -2.240   2.467  -7.862  1.00  0.00    -0.342 N 
ATOM     14  C   UNL     1      -1.575   3.127  -6.853  1.00  0.00     0.249 C 
ATOM     15  O   UNL     1      -1.169   2.582  -5.834  1.00  0.00    -0.272 OA
ATOM     16  H   UNL     1      -2.647   3.079  -8.566  1.00  0.00     0.164 HD
BRANCH  14  17
ATOM     17  C   UNL     1      -1.377   4.628  -7.152  1.00  0.00     0.207 C 
BRANCH  17  18
ATOM     18  C   UNL     1       0.098   4.927  -7.439  1.00  0.00     0.077 C 
BRANCH  18  19
ATOM     19  C   UNL     1       0.471   4.598  -8.867  1.00  0.00    -0.043 A 
ATOM     20  C   UNL     1       0.117   4.879 -11.251  1.00  0.00     0.083 A 
ATOM     21  C   UNL     1      -0.195   5.221  -9.934  1.00  0.00     0.028 A 
ATOM     22  C   UNL     1       1.092   3.914 -11.509  1.00  0.00     0.134 A 
ATOM     23  C   UNL     1       1.758   3.289 -10.462  1.00  0.00     0.048 A 
ATOM     24  C   UNL     1       1.447   3.628  -9.143  1.00  0.00     0.008 A 
ATOM     25  Cl  UNL     1      -0.711   5.656 -12.548  1.00  0.00    -0.080 Cl
BRANCH  22  26
ATOM     26  O   UNL     1       1.424   3.538 -12.782  1.00  0.00    -0.506 OA
ATOM     27  H   UNL     1       1.446   4.353 -13.318  1.00  0.00     0.293 HD
ENDBRANCH  22  26
ENDBRANCH  18  19
ENDBRANCH  17  18
BRANCH  17  28
ATOM     28  O   UNL     1      -1.822   5.438  -6.052  1.00  0.00    -0.383 OA
ATOM     29  H   UNL     1      -1.635   4.918  -5.238  1.00  0.00     0.211 HD
ENDBRANCH  17  28
ENDBRANCH  14  17
ENDBRANCH  12  13
BRANCH  12  30
ATOM     30  C   UNL     1      -2.180   0.329  -9.169  1.00  0.00     0.018 C 
ATOM     31  C   UNL     1      -1.537  -1.035  -8.874  1.00  0.00     0.010 C 
BRANCH  30  32
ATOM     32  C   UNL     1      -1.248   1.171 -10.074  1.00  0.00     0.002 C 
ATOM     33  C   UNL     1      -1.902   1.750 -11.322  1.00  0.00     0.004 C 
ENDBRANCH  30  32
ENDBRANCH  12  30
ENDBRANCH  10  12
ENDBRANCH   1  10
BRANCH   5  34
ATOM     34  C   UNL     1      -6.300   2.555  -9.251  1.00  0.00     0.242 C 
ATOM     35  O   UNL     1      -7.132   2.948 -10.067  1.00  0.00    -0.273 OA
ATOM     36  N   UNL     1      -6.246   3.034  -7.961  1.00  0.00    -0.354 N 
ATOM     37  H   UNL     1      -5.461   2.761  -7.368  1.00  0.00     0.163 HD
BRANCH  36  38
ATOM     38  C   UNL     1      -7.312   3.826  -7.385  1.00  0.00     0.116 C 
BRANCH  38  39
ATOM     39  C   UNL     1      -6.743   4.779  -6.337  1.00  0.00     0.023 C 
BRANCH  39  40
ATOM     40  C   UNL     1      -7.423   4.628  -4.981  1.00  0.00     0.026 C 
BRANCH  40  41
ATOM     41  C   UNL     1      -6.933   5.699  -4.006  1.00  0.00     0.146 C 
BRANCH  41  42
ATOM     42  N   UNL     1      -6.500   5.073  -2.763  1.00  0.00    -0.254 NA
ATOM     43  C   UNL     1      -5.270   4.754  -2.610  1.00  0.00     0.185 C 
ATOM     44  N   UNL     1      -4.226   4.904  -3.446  1.00  0.00    -0.370 N 
ATOM     45  N   UNL     1      -4.892   4.175  -1.459  1.00  0.00    -0.370 N 
ATOM     46  H   UNL     1      -3.373   4.392  -3.298  1.00  0.00     0.159 HD
ATOM     47  H   UNL     1      -4.332   5.338  -4.358  1.00  0.00     0.159 HD
ATOM     48  H   UNL     1      -5.617   4.033  -0.769  1.00  0.00     0.159 HD
ATOM     49  H   UNL     1      -3.932   4.115  -1.169  1.00  0.00     0.159 HD
ENDBRANCH  41  42
ENDBRANCH  40  41
ENDBRANCH  39  40
ENDBRANCH  38  39
ENDBRANCH  36  38
ENDBRANCH   5  34
BRANCH   8  50
ATOM     50  O   UNL     1      -8.890  -1.349  -8.482  1.00  0.00    -0.245 OA
BRANCH  50  51
ATOM     51  S   UNL     1     -10.351  -2.002  -8.187  1.00  0.00     0.397 S 
ATOM     52  O   UNL     1     -10.685  -2.868  -9.295  1.00  0.00    -0.169 OA
ATOM     53  O   UNL     1     -11.259  -0.972  -7.727  1.00  0.00    -0.169 OA
BRANCH  51  54
ATOM     54  O   UNL     1     -10.038  -2.977  -6.947  1.00  0.00    -0.264 OA
ATOM     55  H   UNL     1     -10.073  -2.441  -6.129  1.00  0.00     0.236 HD
ENDBRANCH  51  54
ENDBRANCH  50  51
ENDBRANCH   8  50
TORSDOF 19
ENDMDL
MODEL 5
REMARK VINA RESULT:    -7.145      1.914      2.791
REMARK INTER + INTRA:         -18.063
REMARK INTER:                 -15.439
REMARK INTRA:                  -2.625
REMARK UNBOUND:                -3.609
REMARK SMILES CC[C@@H](C)[C@@H](NC(=O)[C@@H](O)Cc1ccc(O)c(Cl)c1)C(=O)N1[C@H](C(=O)NCCCCN=C(N)N)C[C@H]2CC[C@H](OS(=O)(=O)O)C[C@@H]21
REMARK SMILES IDX 22 1 36 2 46 3 35 4 23 5 45 6 37 7 39 8 38 9 20 10 21 11
REMARK SMILES IDX 5 12 6 13 7 14 8 15 9 17 11 18 12 19 17 20 19 21 15 22 14 23
REMARK SMILES IDX 13 24 18 25 16 26 10 28 3 30 4 31 2 32 1 33 24 34 25 35
REMARK SMILES IDX 26 36 27 38 28 39 29 40 30 41 31 42 32 43 33 44 34 45 40 50
REMARK SMILES IDX 41 51 42 52 43 53 44 54
REMARK H PARENT 6 16 16 27 10 29 26 37 33 46 33 47 34 48 34 49 44 55
ROOT
ATOM      1  N   UNL     1      -4.846   2.000  -8.470  1.00  0.00    -0.326 N 
ATOM      2  C   UNL     1      -4.598   2.215 -10.801  1.00  0.00     0.014 C 
ATOM      3  C   UNL     1      -3.864   2.421  -9.473  1.00  0.00     0.091 C 
ATOM      4  C   UNL     1      -6.037   2.556 -10.445  1.00  0.00     0.041 C 
ATOM      5  C   UNL     1      -6.172   1.805  -9.107  1.00  0.00     0.175 C 
ATOM      6  C   UNL     1      -2.531   1.678  -9.538  1.00  0.00     0.059 C 
ATOM      7  C   UNL     1      -3.911   2.968 -11.923  1.00  0.00     0.008 C 
ATOM      8  C   UNL     1      -1.920   1.619 -10.955  1.00  0.00     0.143 C 
ATOM      9  C   UNL     1      -2.379   2.801 -11.832  1.00  0.00     0.034 C 
ENDROOT
BRANCH   1  10
ATOM     10  C   UNL     1      -4.753   1.983  -7.088  1.00  0.00     0.246 C 
ATOM     11  O   UNL     1      -4.629   0.899  -6.508  1.00  0.00    -0.272 OA
BRANCH  10  12
ATOM     12  C   UNL     1      -4.762   3.326  -6.302  1.00  0.00     0.174 C 
BRANCH  12  13
ATOM     13  N   UNL     1      -3.523   4.061  -6.556  1.00  0.00    -0.342 N 
ATOM     14  C   UNL     1      -2.255   3.553  -6.389  1.00  0.00     0.249 C 
ATOM     15  O   UNL     1      -2.021   2.405  -6.030  1.00  0.00    -0.272 OA
ATOM     16  H   UNL     1      -3.556   5.066  -6.706  1.00  0.00     0.164 HD
BRANCH  14  17
ATOM     17  C   UNL     1      -1.153   4.581  -6.722  1.00  0.00     0.207 C 
BRANCH  17  18
ATOM     18  C   UNL     1       0.173   3.871  -7.011  1.00  0.00     0.077 C 
BRANCH  18  19
ATOM     19  C   UNL     1       0.550   3.957  -8.473  1.00  0.00    -0.043 A 
ATOM     20  C   UNL     1       0.312   5.006 -10.647  1.00  0.00     0.083 A 
ATOM     21  C   UNL     1       0.001   4.960  -9.288  1.00  0.00     0.028 A 
ATOM     22  C   UNL     1       1.170   4.055 -11.200  1.00  0.00     0.134 A 
ATOM     23  C   UNL     1       1.721   3.057 -10.405  1.00  0.00     0.048 A 
ATOM     24  C   UNL     1       1.410   3.006  -9.044  1.00  0.00     0.008 A 
ATOM     25  Cl  UNL     1      -0.372   6.245 -11.632  1.00  0.00    -0.080 Cl
BRANCH  22  26
ATOM     26  O   UNL     1       1.496   4.054 -12.530  1.00  0.00    -0.506 OA
ATOM     27  H   UNL     1       1.169   3.212 -12.898  1.00  0.00     0.293 HD
ENDBRANCH  22  26
ENDBRANCH  18  19
ENDBRANCH  17  18
BRANCH  17  28
ATOM     28  O   UNL     1      -0.969   5.511  -5.643  1.00  0.00    -0.383 OA
ATOM     29  H   UNL     1      -0.126   5.982  -5.830  1.00  0.00     0.211 HD
ENDBRANCH  17  28
ENDBRANCH  14  17
ENDBRANCH  12  13
BRANCH  12  30
ATOM     30  C   UNL     1      -5.036   3.132  -4.786  1.00  0.00     0.018 C 
ATOM     31  C   UNL     1      -6.483   2.676  -4.547  1.00  0.00     0.010 C 
BRANCH  30  32
ATOM     32  C   UNL     1      -4.725   4.386  -3.933  1.00  0.00     0.002 C 
ATOM     33  C   UNL     1      -5.719   5.531  -4.073  1.00  0.00     0.004 C 
ENDBRANCH  30  32
ENDBRANCH  12  30
ENDBRANCH  10  12
ENDBRANCH   1  10
BRANCH   5  34
ATOM     34  C   UNL     1      -6.461   0.296  -9.325  1.00  0.00     0.242 C 
ATOM     35  O   UNL     1      -6.777  -0.161 -10.424  1.00  0.00    -0.273 OA
ATOM     36  N   UNL     1      -6.393  -0.483  -8.192  1.00  0.00    -0.354 N 
ATOM     37  H   UNL     1      -6.245  -0.027  -7.291  1.00  0.00     0.163 HD
BRANCH  36  38
ATOM     38  C   UNL     1      -6.421  -1.930  -8.246  1.00  0.00     0.116 C 
BRANCH  38  39
ATOM     39  C   UNL     1      -7.759  -2.443  -7.720  1.00  0.00     0.023 C 
BRANCH  39  40
ATOM     40  C   UNL     1      -7.847  -3.965  -7.737  1.00  0.00     0.026 C 
BRANCH  40  41
ATOM     41  C   UNL     1      -9.192  -4.436  -7.182  1.00  0.00     0.146 C 
BRANCH  41  42
ATOM     42  N   UNL     1     -10.236  -3.491  -7.554  1.00  0.00    -0.254 NA
ATOM     43  C   UNL     1     -11.313  -3.434  -6.865  1.00  0.00     0.185 C 
ATOM     44  N   UNL     1     -11.684  -4.137  -5.779  1.00  0.00    -0.370 N 
ATOM     45  N   UNL     1     -12.266  -2.559  -7.227  1.00  0.00    -0.370 N 
ATOM     46  H   UNL     1     -12.647  -4.163  -5.490  1.00  0.00     0.159 HD
ATOM     47  H   UNL     1     -11.076  -4.835  -5.363  1.00  0.00     0.159 HD
ATOM     48  H   UNL     1     -12.062  -1.982  -8.032  1.00  0.00     0.159 HD
ATOM     49  H   UNL     1     -13.017  -2.288  -6.616  1.00  0.00     0.159 HD
ENDBRANCH  41  42
ENDBRANCH  40  41
ENDBRANCH  39  40
ENDBRANCH  38  39
ENDBRANCH  36  38
ENDBRANCH   5  34
BRANCH   8  50
ATOM     50  O   UNL     1      -2.295   0.402 -11.600  1.00  0.00    -0.245 OA
BRANCH  50  51
ATOM     51  S   UNL     1      -1.249  -0.842 -11.638  1.00  0.00     0.397 S 
ATOM     52  O   UNL     1      -1.599  -1.686 -12.758  1.00  0.00    -0.169 OA
ATOM     53  O   UNL     1      -1.085  -1.381 -10.304  1.00  0.00    -0.169 OA
BRANCH  51  54
ATOM     54  O   UNL     1       0.124  -0.114 -12.051  1.00  0.00    -0.264 OA
ATOM     55  H   UNL     1       0.858  -0.738 -11.876  1.00  0.00     0.236 HD
ENDBRANCH  51  54
ENDBRANCH  50  51
ENDBRANCH   8  50
TORSDOF 19
ENDMDL
MODEL 6
REMARK VINA RESULT:    -7.144      2.947      5.490
REMARK INTER + INTRA:         -18.061
REMARK INTER:                 -14.449
REMARK INTRA:                  -3.612
REMARK UNBOUND:                -3.609
REMARK SMILES CC[C@@H](C)[C@@H](NC(=O)[C@@H](O)Cc1ccc(O)c(Cl)c1)C(=O)N1[C@H](C(=O)NCCCCN=C(N)N)C[C@H]2CC[C@H](OS(=O)(=O)O)C[C@@H]21
REMARK SMILES IDX 22 1 36 2 46 3 35 4 23 5 45 6 37 7 39 8 38 9 20 10 21 11
REMARK SMILES IDX 5 12 6 13 7 14 8 15 9 17 11 18 12 19 17 20 19 21 15 22 14 23
REMARK SMILES IDX 13 24 18 25 16 26 10 28 3 30 4 31 2 32 1 33 24 34 25 35
REMARK SMILES IDX 26 36 27 38 28 39 29 40 30 41 31 42 32 43 33 44 34 45 40 50
REMARK SMILES IDX 41 51 42 52 43 53 44 54
REMARK H PARENT 6 16 16 27 10 29 26 37 33 46 33 47 34 48 34 49 44 55
ROOT
ATOM      1  N   UNL     1      -2.395   0.964 -10.432  1.00  0.00    -0.326 N 
ATOM      2  C   UNL     1      -2.223  -1.177 -11.396  1.00  0.00     0.014 C 
ATOM      3  C   UNL     1      -1.569  -0.246 -10.371  1.00  0.00     0.091 C 
ATOM      4  C   UNL     1      -2.700  -0.211 -12.470  1.00  0.00     0.041 C 
ATOM      5  C   UNL     1      -3.320   0.890 -11.590  1.00  0.00     0.175 C 
ATOM      6  C   UNL     1      -1.467  -0.988  -9.040  1.00  0.00     0.059 C 
ATOM      7  C   UNL     1      -1.287  -2.308 -11.776  1.00  0.00     0.008 C 
ATOM      8  C   UNL     1      -1.270  -2.512  -9.191  1.00  0.00     0.143 C 
ATOM      9  C   UNL     1      -0.586  -2.877 -10.524  1.00  0.00     0.034 C 
ENDROOT
BRANCH   1  10
ATOM     10  C   UNL     1      -2.274   2.157  -9.740  1.00  0.00     0.246 C 
ATOM     11  O   UNL     1      -3.294   2.798  -9.464  1.00  0.00    -0.272 OA
BRANCH  10  12
ATOM     12  C   UNL     1      -0.866   2.642  -9.289  1.00  0.00     0.174 C 
BRANCH  12  13
ATOM     13  N   UNL     1      -0.960   3.305  -7.988  1.00  0.00    -0.342 N 
ATOM     14  C   UNL     1      -0.090   3.114  -6.939  1.00  0.00     0.249 C 
ATOM     15  O   UNL     1       0.888   2.378  -6.989  1.00  0.00    -0.272 OA
ATOM     16  H   UNL     1      -1.802   3.821  -7.746  1.00  0.00     0.164 HD
BRANCH  14  17
ATOM     17  C   UNL     1      -0.466   3.944  -5.694  1.00  0.00     0.207 C 
BRANCH  17  18
ATOM     18  C   UNL     1      -1.658   4.857  -5.999  1.00  0.00     0.077 C 
BRANCH  18  19
ATOM     19  C   UNL     1      -2.935   4.342  -5.374  1.00  0.00    -0.043 A 
ATOM     20  C   UNL     1      -4.697   4.545  -3.719  1.00  0.00     0.083 A 
ATOM     21  C   UNL     1      -3.547   5.048  -4.327  1.00  0.00     0.028 A 
ATOM     22  C   UNL     1      -5.242   3.335  -4.151  1.00  0.00     0.134 A 
ATOM     23  C   UNL     1      -4.647   2.625  -5.188  1.00  0.00     0.048 A 
ATOM     24  C   UNL     1      -3.494   3.126  -5.796  1.00  0.00     0.008 A 
ATOM     25  Cl  UNL     1      -5.434   5.427  -2.434  1.00  0.00    -0.080 Cl
BRANCH  22  26
ATOM     26  O   UNL     1      -6.363   2.796  -3.580  1.00  0.00    -0.506 OA
ATOM     27  H   UNL     1      -6.533   1.952  -4.038  1.00  0.00     0.293 HD
ENDBRANCH  22  26
ENDBRANCH  18  19
ENDBRANCH  17  18
BRANCH  17  28
ATOM     28  O   UNL     1       0.643   4.742  -5.249  1.00  0.00    -0.383 OA
ATOM     29  H   UNL     1       1.449   4.203  -5.415  1.00  0.00     0.211 HD
ENDBRANCH  17  28
ENDBRANCH  14  17
ENDBRANCH  12  13
BRANCH  12  30
ATOM     30  C   UNL     1      -0.166   3.527 -10.355  1.00  0.00     0.018 C 
ATOM     31  C   UNL     1       1.312   3.134 -10.506  1.00  0.00     0.010 C 
BRANCH  30  32
ATOM     32  C   UNL     1      -0.288   5.046 -10.080  1.00  0.00     0.002 C 
ATOM     33  C   UNL     1      -0.150   5.942 -11.304  1.00  0.00     0.004 C 
ENDBRANCH  30  32
ENDBRANCH  12  30
ENDBRANCH  10  12
ENDBRANCH   1  10
BRANCH   5  34
ATOM     34  C   UNL     1      -4.752   0.514 -11.127  1.00  0.00     0.242 C 
ATOM     35  O   UNL     1      -5.144  -0.652 -11.083  1.00  0.00    -0.273 OA
ATOM     36  N   UNL     1      -5.569   1.580 -10.823  1.00  0.00    -0.354 N 
ATOM     37  H   UNL     1      -5.226   2.526 -10.995  1.00  0.00     0.163 HD
BRANCH  36  38
ATOM     38  C   UNL     1      -6.853   1.411 -10.175  1.00  0.00     0.116 C 
BRANCH  38  39
ATOM     39  C   UNL     1      -6.790   1.957  -8.751  1.00  0.00     0.023 C 
BRANCH  39  40
ATOM     40  C   UNL     1      -7.117   0.896  -7.705  1.00  0.00     0.026 C 
BRANCH  40  41
ATOM     41  C   UNL     1      -6.015  -0.161  -7.642  1.00  0.00     0.146 C 
BRANCH  41  42
ATOM     42  N   UNL     1      -6.590  -1.452  -7.289  1.00  0.00    -0.254 NA
ATOM     43  C   UNL     1      -6.326  -2.479  -8.006  1.00  0.00     0.185 C 
ATOM     44  N   UNL     1      -5.559  -2.594  -9.106  1.00  0.00    -0.370 N 
ATOM     45  N   UNL     1      -6.870  -3.660  -7.667  1.00  0.00    -0.370 N 
ATOM     46  H   UNL     1      -5.636  -3.399  -9.703  1.00  0.00     0.159 HD
ATOM     47  H   UNL     1      -5.061  -1.799  -9.493  1.00  0.00     0.159 HD
ATOM     48  H   UNL     1      -7.456  -3.663  -6.843  1.00  0.00     0.159 HD
ATOM     49  H   UNL     1      -6.533  -4.536  -8.023  1.00  0.00     0.159 HD
ENDBRANCH  41  42
ENDBRANCH  40  41
ENDBRANCH  39  40
ENDBRANCH  38  39
ENDBRANCH  36  38
ENDBRANCH   5  34
BRANCH   8  50
ATOM     50  O   UNL     1      -2.532  -3.178  -9.131  1.00  0.00    -0.245 OA
BRANCH  50  51
ATOM     51  S   UNL     1      -2.583  -4.775  -8.829  1.00  0.00     0.397 S 
ATOM     52  O   UNL     1      -2.072  -4.993  -7.494  1.00  0.00    -0.169 OA
ATOM     53  O   UNL     1      -2.064  -5.502  -9.968  1.00  0.00    -0.169 OA
BRANCH  51  54
ATOM     54  O   UNL     1      -4.165  -5.050  -8.743  1.00  0.00    -0.264 OA
ATOM     55  H   UNL     1      -4.507  -5.111  -9.658  1.00  0.00     0.236 HD
ENDBRANCH  51  54
ENDBRANCH  50  51
ENDBRANCH   8  50
TORSDOF 19
ENDMDL
MODEL 7
REMARK VINA RESULT:    -7.056      3.036      5.627
REMARK INTER + INTRA:         -17.883
REMARK INTER:                 -15.013
REMARK INTRA:                  -2.870
REMARK UNBOUND:                -3.609
REMARK SMILES CC[C@@H](C)[C@@H](NC(=O)[C@@H](O)Cc1ccc(O)c(Cl)c1)C(=O)N1[C@H](C(=O)NCCCCN=C(N)N)C[C@H]2CC[C@H](OS(=O)(=O)O)C[C@@H]21
REMARK SMILES IDX 22 1 36 2 46 3 35 4 23 5 45 6 37 7 39 8 38 9 20 10 21 11
REMARK SMILES IDX 5 12 6 13 7 14 8 15 9 17 11 18 12 19 17 20 19 21 15 22 14 23
REMARK SMILES IDX 13 24 18 25 16 26 10 28 3 30 4 31 2 32 1 33 24 34 25 35
REMARK SMILES IDX 26 36 27 38 28 39 29 40 30 41 31 42 32 43 33 44 34 45 40 50
REMARK SMILES IDX 41 51 42 52 43 53 44 54
REMARK H PARENT 6 16 16 27 10 29 26 37 33 46 33 47 34 48 34 49 44 55
ROOT
ATOM      1  N   UNL     1      -2.300   0.964 -10.224  1.00  0.00    -0.326 N 
ATOM      2  C   UNL     1      -2.205  -1.110 -11.334  1.00  0.00     0.014 C 
ATOM      3  C   UNL     1      -1.507  -0.268 -10.262  1.00  0.00     0.091 C 
ATOM      4  C   UNL     1      -2.674  -0.061 -12.330  1.00  0.00     0.041 C 
ATOM      5  C   UNL     1      -3.247   0.994 -11.366  1.00  0.00     0.175 C 
ATOM      6  C   UNL     1      -1.402  -1.101  -8.986  1.00  0.00     0.059 C 
ATOM      7  C   UNL     1      -1.308  -2.236 -11.807  1.00  0.00     0.008 C 
ATOM      8  C   UNL     1      -1.251  -2.616  -9.244  1.00  0.00     0.143 C 
ATOM      9  C   UNL     1      -0.602  -2.909 -10.612  1.00  0.00     0.034 C 
ENDROOT
BRANCH   1  10
ATOM     10  C   UNL     1      -2.133   2.104  -9.455  1.00  0.00     0.246 C 
ATOM     11  O   UNL     1      -3.128   2.758  -9.126  1.00  0.00    -0.272 OA
BRANCH  10  12
ATOM     12  C   UNL     1      -0.706   2.512  -8.989  1.00  0.00     0.174 C 
BRANCH  12  13
ATOM     13  N   UNL     1      -0.784   3.235  -7.720  1.00  0.00    -0.342 N 
ATOM     14  C   UNL     1       0.082   3.071  -6.662  1.00  0.00     0.249 C 
ATOM     15  O   UNL     1       1.042   2.310  -6.678  1.00  0.00    -0.272 OA
ATOM     16  H   UNL     1      -1.613   3.781  -7.501  1.00  0.00     0.164 HD
BRANCH  14  17
ATOM     17  C   UNL     1      -0.274   3.965  -5.456  1.00  0.00     0.207 C 
BRANCH  17  18
ATOM     18  C   UNL     1      -1.411   4.926  -5.819  1.00  0.00     0.077 C 
BRANCH  18  19
ATOM     19  C   UNL     1      -2.716   4.524  -5.170  1.00  0.00    -0.043 A 
ATOM     20  C   UNL     1      -4.650   3.062  -5.066  1.00  0.00     0.083 A 
ATOM     21  C   UNL     1      -3.421   3.402  -5.634  1.00  0.00     0.028 A 
ATOM     22  C   UNL     1      -5.181   3.839  -4.035  1.00  0.00     0.134 A 
ATOM     23  C   UNL     1      -4.493   4.952  -3.566  1.00  0.00     0.048 A 
ATOM     24  C   UNL     1      -3.264   5.295  -4.134  1.00  0.00     0.008 A 
ATOM     25  Cl  UNL     1      -5.501   1.681  -5.650  1.00  0.00    -0.080 Cl
BRANCH  22  26
ATOM     26  O   UNL     1      -6.386   3.551  -3.454  1.00  0.00    -0.506 OA
ATOM     27  H   UNL     1      -6.655   2.675  -3.787  1.00  0.00     0.293 HD
ENDBRANCH  22  26
ENDBRANCH  18  19
ENDBRANCH  17  18
BRANCH  17  28
ATOM     28  O   UNL     1       0.866   4.721  -5.017  1.00  0.00    -0.383 OA
ATOM     29  H   UNL     1       1.208   4.259  -4.218  1.00  0.00     0.211 HD
ENDBRANCH  17  28
ENDBRANCH  14  17
ENDBRANCH  12  13
BRANCH  12  30
ATOM     30  C   UNL     1       0.078   3.300 -10.072  1.00  0.00     0.018 C 
ATOM     31  C   UNL     1      -0.802   4.397 -10.693  1.00  0.00     0.010 C 
BRANCH  30  32
ATOM     32  C   UNL     1       0.673   2.403 -11.185  1.00  0.00     0.002 C 
ATOM     33  C   UNL     1       0.998   3.114 -12.492  1.00  0.00     0.004 C 
ENDBRANCH  30  32
ENDBRANCH  12  30
ENDBRANCH  10  12
ENDBRANCH   1  10
BRANCH   5  34
ATOM     34  C   UNL     1      -4.681   0.626 -10.901  1.00  0.00     0.242 C 
ATOM     35  O   UNL     1      -5.615   0.492 -11.692  1.00  0.00    -0.273 OA
ATOM     36  N   UNL     1      -4.845   0.513  -9.539  1.00  0.00    -0.354 N 
ATOM     37  H   UNL     1      -4.063   0.754  -8.928  1.00  0.00     0.163 HD
BRANCH  36  38
ATOM     38  C   UNL     1      -6.050  -0.030  -8.947  1.00  0.00     0.116 C 
BRANCH  38  39
ATOM     39  C   UNL     1      -5.751  -1.388  -8.316  1.00  0.00     0.023 C 
BRANCH  39  40
ATOM     40  C   UNL     1      -6.062  -2.548  -9.255  1.00  0.00     0.026 C 
BRANCH  40  41
ATOM     41  C   UNL     1      -7.244  -2.209 -10.162  1.00  0.00     0.146 C 
BRANCH  41  42
ATOM     42  N   UNL     1      -8.489  -2.611  -9.521  1.00  0.00    -0.254 NA
ATOM     43  C   UNL     1      -9.487  -1.810  -9.516  1.00  0.00     0.185 C 
ATOM     44  N   UNL     1      -9.607  -0.574 -10.034  1.00  0.00    -0.370 N 
ATOM     45  N   UNL     1     -10.624  -2.199  -8.916  1.00  0.00    -0.370 N 
ATOM     46  H   UNL     1     -10.357   0.032  -9.747  1.00  0.00     0.159 HD
ATOM     47  H   UNL     1      -8.844  -0.130 -10.536  1.00  0.00     0.159 HD
ATOM     48  H   UNL     1     -10.622  -3.123  -8.506  1.00  0.00     0.159 HD
ATOM     49  H   UNL     1     -11.505  -1.742  -9.072  1.00  0.00     0.159 HD
ENDBRANCH  41  42
ENDBRANCH  40  41
ENDBRANCH  39  40
ENDBRANCH  38  39
ENDBRANCH  36  38
ENDBRANCH   5  34
BRANCH   8  50
ATOM     50  O   UNL     1      -2.529  -3.251  -9.204  1.00  0.00    -0.245 OA
BRANCH  50  51
ATOM     51  S   UNL     1      -2.677  -4.716  -8.512  1.00  0.00     0.397 S 
ATOM     52  O   UNL     1      -2.100  -5.692  -9.408  1.00  0.00    -0.169 OA
ATOM     53  O   UNL     1      -4.015  -4.869  -7.980  1.00  0.00    -0.169 OA
BRANCH  51  54
ATOM     54  O   UNL     1      -1.660  -4.605  -7.271  1.00  0.00    -0.264 OA
ATOM     55  H   UNL     1      -1.867  -5.334  -6.651  1.00  0.00     0.236 HD
ENDBRANCH  51  54
ENDBRANCH  50  51
ENDBRANCH   8  50
TORSDOF 19
ENDMDL
MODEL 8
REMARK VINA RESULT:    -6.984      4.819      8.280
REMARK INTER + INTRA:         -17.738
REMARK INTER:                 -13.983
REMARK INTRA:                  -3.755
REMARK UNBOUND:                -3.609
REMARK SMILES CC[C@@H](C)[C@@H](NC(=O)[C@@H](O)Cc1ccc(O)c(Cl)c1)C(=O)N1[C@H](C(=O)NCCCCN=C(N)N)C[C@H]2CC[C@H](OS(=O)(=O)O)C[C@@H]21
REMARK SMILES IDX 22 1 36 2 46 3 35 4 23 5 45 6 37 7 39 8 38 9 20 10 21 11
REMARK SMILES IDX 5 12 6 13 7 14 8 15 9 17 11 18 12 19 17 20 19 21 15 22 14 23
REMARK SMILES IDX 13 24 18 25 16 26 10 28 3 30 4 31 2 32 1 33 24 34 25 35
REMARK SMILES IDX 26 36 27 38 28 39 29 40 30 41 31 42 32 43 33 44 34 45 40 50
REMARK SMILES IDX 41 51 42 52 43 53 44 54
REMARK H PARENT 6 16 16 27 10 29 26 37 33 46 33 47 34 48 34 49 44 55
ROOT
ATOM      1  N   UNL     1      -9.193  -2.008  -7.043  1.00  0.00    -0.326 N 
ATOM      2  C   UNL     1     -10.682  -3.831  -7.071  1.00  0.00     0.014 C 
ATOM      3  C   UNL     1      -9.282  -3.408  -6.619  1.00  0.00     0.091 C 
ATOM      4  C   UNL     1     -10.867  -3.048  -8.362  1.00  0.00     0.041 C 
ATOM      5  C   UNL     1     -10.338  -1.670  -7.924  1.00  0.00     0.175 C 
ATOM      6  C   UNL     1      -9.139  -3.725  -5.131  1.00  0.00     0.059 C 
ATOM      7  C   UNL     1     -10.812  -5.341  -7.092  1.00  0.00     0.008 C 
ATOM      8  C   UNL     1      -9.943  -4.963  -4.679  1.00  0.00     0.143 C 
ATOM      9  C   UNL     1     -10.168  -5.960  -5.834  1.00  0.00     0.034 C 
ENDROOT
BRANCH   1  10
ATOM     10  C   UNL     1      -8.148  -1.107  -6.919  1.00  0.00     0.246 C 
ATOM     11  O   UNL     1      -8.307  -0.093  -6.232  1.00  0.00    -0.272 OA
BRANCH  10  12
ATOM     12  C   UNL     1      -6.787  -1.412  -7.610  1.00  0.00     0.174 C 
BRANCH  12  13
ATOM     13  N   UNL     1      -6.253  -0.194  -8.218  1.00  0.00    -0.342 N 
ATOM     14  C   UNL     1      -5.466   0.733  -7.572  1.00  0.00     0.249 C 
ATOM     15  O   UNL     1      -5.100   0.623  -6.408  1.00  0.00    -0.272 OA
ATOM     16  H   UNL     1      -6.599   0.110  -9.125  1.00  0.00     0.164 HD
BRANCH  14  17
ATOM     17  C   UNL     1      -5.076   1.919  -8.479  1.00  0.00     0.207 C 
BRANCH  17  18
ATOM     18  C   UNL     1      -4.321   2.983  -7.674  1.00  0.00     0.077 C 
BRANCH  18  19
ATOM     19  C   UNL     1      -2.835   2.709  -7.636  1.00  0.00    -0.043 A 
ATOM     20  C   UNL     1      -0.706   2.816  -6.479  1.00  0.00     0.083 A 
ATOM     21  C   UNL     1      -2.085   3.024  -6.492  1.00  0.00     0.028 A 
ATOM     22  C   UNL     1      -0.067   2.295  -7.604  1.00  0.00     0.134 A 
ATOM     23  C   UNL     1      -0.797   1.978  -8.744  1.00  0.00     0.048 A 
ATOM     24  C   UNL     1      -2.178   2.187  -8.762  1.00  0.00     0.008 A 
ATOM     25  Cl  UNL     1       0.198   3.209  -5.063  1.00  0.00    -0.080 Cl
BRANCH  22  26
ATOM     26  O   UNL     1       1.285   2.083  -7.642  1.00  0.00    -0.506 OA
ATOM     27  H   UNL     1       1.444   1.214  -7.229  1.00  0.00     0.293 HD
ENDBRANCH  22  26
ENDBRANCH  18  19
ENDBRANCH  17  18
BRANCH  17  28
ATOM     28  O   UNL     1      -6.237   2.513  -9.082  1.00  0.00    -0.383 OA
ATOM     29  H   UNL     1      -5.908   3.034  -9.849  1.00  0.00     0.211 HD
ENDBRANCH  17  28
ENDBRANCH  14  17
ENDBRANCH  12  13
BRANCH  12  30
ATOM     30  C   UNL     1      -6.877  -2.588  -8.620  1.00  0.00     0.018 C 
ATOM     31  C   UNL     1      -5.890  -3.705  -8.246  1.00  0.00     0.010 C 
BRANCH  30  32
ATOM     32  C   UNL     1      -6.664  -2.160 -10.092  1.00  0.00     0.002 C 
ATOM     33  C   UNL     1      -7.932  -1.803 -10.856  1.00  0.00     0.004 C 
ENDBRANCH  30  32
ENDBRANCH  12  30
ENDBRANCH  10  12
ENDBRANCH   1  10
BRANCH   5  34
ATOM     34  C   UNL     1     -11.413  -0.866  -7.146  1.00  0.00     0.242 C 
ATOM     35  O   UNL     1     -12.501  -1.350  -6.835  1.00  0.00    -0.273 OA
ATOM     36  N   UNL     1     -11.083   0.444  -6.876  1.00  0.00    -0.354 N 
ATOM     37  H   UNL     1     -10.218   0.822  -7.263  1.00  0.00     0.163 HD
BRANCH  36  38
ATOM     38  C   UNL     1     -11.866   1.269  -5.980  1.00  0.00     0.116 C 
BRANCH  38  39
ATOM     39  C   UNL     1     -10.980   2.348  -5.361  1.00  0.00     0.023 C 
BRANCH  39  40
ATOM     40  C   UNL     1     -10.340   1.896  -4.053  1.00  0.00     0.026 C 
BRANCH  40  41
ATOM     41  C   UNL     1     -11.321   1.063  -3.228  1.00  0.00     0.146 C 
BRANCH  41  42
ATOM     42  N   UNL     1     -10.608  -0.012  -2.552  1.00  0.00    -0.254 NA
ATOM     43  C   UNL     1     -10.891  -1.230  -2.826  1.00  0.00     0.185 C 
ATOM     44  N   UNL     1     -11.793  -1.736  -3.687  1.00  0.00    -0.370 N 
ATOM     45  N   UNL     1     -10.225  -2.207  -2.189  1.00  0.00    -0.370 N 
ATOM     46  H   UNL     1     -12.080  -2.698  -3.623  1.00  0.00     0.159 HD
ATOM     47  H   UNL     1     -12.375  -1.136  -4.263  1.00  0.00     0.159 HD
ATOM     48  H   UNL     1      -9.520  -1.911  -1.527  1.00  0.00     0.159 HD
ATOM     49  H   UNL     1     -10.217  -3.159  -2.510  1.00  0.00     0.159 HD
ENDBRANCH  41  42
ENDBRANCH  40  41
ENDBRANCH  39  40
ENDBRANCH  38  39
ENDBRANCH  36  38
ENDBRANCH   5  34
BRANCH   8  50
ATOM     50  O   UNL     1     -11.216  -4.562  -4.172  1.00  0.00    -0.245 OA
BRANCH  50  51
ATOM     51  S   UNL     1     -11.890  -5.393  -2.947  1.00  0.00     0.397 S 
ATOM     52  O   UNL     1     -12.242  -4.451  -1.908  1.00  0.00    -0.169 OA
ATOM     53  O   UNL     1     -11.098  -6.572  -2.666  1.00  0.00    -0.169 OA
BRANCH  51  54
ATOM     54  O   UNL     1     -13.282  -5.873  -3.592  1.00  0.00    -0.264 OA
ATOM     55  H   UNL     1     -13.698  -5.095  -4.017  1.00  0.00     0.236 HD
ENDBRANCH  51  54
ENDBRANCH  50  51
ENDBRANCH   8  50
TORSDOF 19
ENDMDL
MODEL 9
REMARK VINA RESULT:    -6.977      3.909      6.536
REMARK INTER + INTRA:         -17.724
REMARK INTER:                 -15.179
REMARK INTRA:                  -2.545
REMARK UNBOUND:                -3.609
REMARK SMILES CC[C@@H](C)[C@@H](NC(=O)[C@@H](O)Cc1ccc(O)c(Cl)c1)C(=O)N1[C@H](C(=O)NCCCCN=C(N)N)C[C@H]2CC[C@H](OS(=O)(=O)O)C[C@@H]21
REMARK SMILES IDX 22 1 36 2 46 3 35 4 23 5 45 6 37 7 39 8 38 9 20 10 21 11
REMARK SMILES IDX 5 12 6 13 7 14 8 15 9 17 11 18 12 19 17 20 19 21 15 22 14 23
REMARK SMILES IDX 13 24 18 25 16 26 10 28 3 30 4 31 2 32 1 33 24 34 25 35
REMARK SMILES IDX 26 36 27 38 28 39 29 40 30 41 31 42 32 43 33 44 34 45 40 50
REMARK SMILES IDX 41 51 42 52 43 53 44 54
REMARK H PARENT 6 16 16 27 10 29 26 37 33 46 33 47 34 48 34 49 44 55
ROOT
ATOM      1  N   UNL     1      -5.682   2.576  -5.929  1.00  0.00    -0.326 N 
ATOM      2  C   UNL     1      -5.952   3.276  -3.697  1.00  0.00     0.014 C 
ATOM      3  C   UNL     1      -5.374   3.706  -5.049  1.00  0.00     0.091 C 
ATOM      4  C   UNL     1      -5.717   1.773  -3.697  1.00  0.00     0.041 C 
ATOM      5  C   UNL     1      -6.170   1.426  -5.127  1.00  0.00     0.175 C 
ATOM      6  C   UNL     1      -5.947   5.077  -5.404  1.00  0.00     0.059 C 
ATOM      7  C   UNL     1      -5.383   4.117  -2.572  1.00  0.00     0.008 C 
ATOM      8  C   UNL     1      -6.238   5.966  -4.175  1.00  0.00     0.143 C 
ATOM      9  C   UNL     1      -5.340   5.606  -2.974  1.00  0.00     0.034 C 
ENDROOT
BRANCH   1  10
ATOM     10  C   UNL     1      -5.387   2.387  -7.268  1.00  0.00     0.246 C 
ATOM     11  O   UNL     1      -6.291   2.494  -8.104  1.00  0.00    -0.272 OA
BRANCH  10  12
ATOM     12  C   UNL     1      -3.921   2.088  -7.696  1.00  0.00     0.174 C 
BRANCH  12  13
ATOM     13  N   UNL     1      -3.116   3.306  -7.604  1.00  0.00    -0.342 N 
ATOM     14  C   UNL     1      -1.835   3.371  -7.103  1.00  0.00     0.249 C 
ATOM     15  O   UNL     1      -1.211   2.398  -6.700  1.00  0.00    -0.272 OA
ATOM     16  H   UNL     1      -3.554   4.211  -7.753  1.00  0.00     0.164 HD
BRANCH  14  17
ATOM     17  C   UNL     1      -1.260   4.803  -7.123  1.00  0.00     0.207 C 
BRANCH  17  18
ATOM     18  C   UNL     1       0.249   4.770  -7.387  1.00  0.00     0.077 C 
BRANCH  18  19
ATOM     19  C   UNL     1       0.559   4.508  -8.844  1.00  0.00    -0.043 A 
ATOM     20  C   UNL     1       0.145   4.945 -11.194  1.00  0.00     0.083 A 
ATOM     21  C   UNL     1      -0.108   5.224  -9.850  1.00  0.00     0.028 A 
ATOM     22  C   UNL     1       1.061   3.952 -11.540  1.00  0.00     0.134 A 
ATOM     23  C   UNL     1       1.729   3.236 -10.554  1.00  0.00     0.048 A 
ATOM     24  C   UNL     1       1.477   3.511  -9.208  1.00  0.00     0.008 A 
ATOM     25  Cl  UNL     1      -0.686   5.836 -12.415  1.00  0.00    -0.080 Cl
BRANCH  22  26
ATOM     26  O   UNL     1       1.334   3.636 -12.844  1.00  0.00    -0.506 OA
ATOM     27  H   UNL     1       2.137   3.083 -12.836  1.00  0.00     0.293 HD
ENDBRANCH  22  26
ENDBRANCH  18  19
ENDBRANCH  17  18
BRANCH  17  28
ATOM     28  O   UNL     1      -1.512   5.479  -5.881  1.00  0.00    -0.383 OA
ATOM     29  H   UNL     1      -2.120   4.897  -5.373  1.00  0.00     0.211 HD
ENDBRANCH  17  28
ENDBRANCH  14  17
ENDBRANCH  12  13
BRANCH  12  30
ATOM     30  C   UNL     1      -3.828   1.421  -9.094  1.00  0.00     0.018 C 
ATOM     31  C   UNL     1      -2.968   0.148  -9.037  1.00  0.00     0.010 C 
BRANCH  30  32
ATOM     32  C   UNL     1      -3.303   2.368 -10.201  1.00  0.00     0.002 C 
ATOM     33  C   UNL     1      -1.980   1.958 -10.835  1.00  0.00     0.004 C 
ENDBRANCH  30  32
ENDBRANCH  12  30
ENDBRANCH  10  12
ENDBRANCH   1  10
BRANCH   5  34
ATOM     34  C   UNL     1      -7.714   1.302  -5.225  1.00  0.00     0.242 C 
ATOM     35  O   UNL     1      -8.438   2.271  -5.454  1.00  0.00    -0.273 OA
ATOM     36  N   UNL     1      -8.217   0.044  -4.982  1.00  0.00    -0.354 N 
ATOM     37  H   UNL     1      -7.577  -0.691  -4.679  1.00  0.00     0.163 HD
BRANCH  36  38
ATOM     38  C   UNL     1      -9.600  -0.298  -5.240  1.00  0.00     0.116 C 
BRANCH  38  39
ATOM     39  C   UNL     1      -9.958  -1.592  -4.512  1.00  0.00     0.023 C 
BRANCH  39  40
ATOM     40  C   UNL     1     -10.823  -2.518  -5.361  1.00  0.00     0.026 C 
BRANCH  40  41
ATOM     41  C   UNL     1     -10.769  -3.950  -4.828  1.00  0.00     0.146 C 
BRANCH  41  42
ATOM     42  N   UNL     1     -12.108  -4.524  -4.824  1.00  0.00    -0.254 NA
ATOM     43  C   UNL     1     -12.476  -5.266  -3.848  1.00  0.00     0.185 C 
ATOM     44  N   UNL     1     -11.804  -5.639  -2.743  1.00  0.00    -0.370 N 
ATOM     45  N   UNL     1     -13.712  -5.790  -3.865  1.00  0.00    -0.370 N 
ATOM     46  H   UNL     1     -12.122  -6.414  -2.186  1.00  0.00     0.159 HD
ATOM     47  H   UNL     1     -10.856  -5.321  -2.563  1.00  0.00     0.159 HD
ATOM     48  H   UNL     1     -14.289  -5.551  -4.660  1.00  0.00     0.159 HD
ATOM     49  H   UNL     1     -14.152  -6.174  -3.047  1.00  0.00     0.159 HD
ENDBRANCH  41  42
ENDBRANCH  40  41
ENDBRANCH  39  40
ENDBRANCH  38  39
ENDBRANCH  36  38
ENDBRANCH   5  34
BRANCH   8  50
ATOM     50  O   UNL     1      -7.603   5.824  -3.779  1.00  0.00    -0.245 OA
BRANCH  50  51
ATOM     51  S   UNL     1      -8.772   6.538  -4.657  1.00  0.00     0.397 S 
ATOM     52  O   UNL     1      -8.137   7.401  -5.628  1.00  0.00    -0.169 OA
ATOM     53  O   UNL     1      -9.813   7.023  -3.776  1.00  0.00    -0.169 OA
BRANCH  51  54
ATOM     54  O   UNL     1      -9.366   5.300  -5.494  1.00  0.00    -0.264 OA
ATOM     55  H   UNL     1      -8.612   4.815  -5.886  1.00  0.00     0.236 HD
ENDBRANCH  51  54
ENDBRANCH  50  51
ENDBRANCH   8  50
TORSDOF 19
ENDMDL
MODEL 10
REMARK VINA RESULT:    -6.938      3.298      7.935
REMARK INTER + INTRA:         -17.645
REMARK INTER:                 -13.537
REMARK INTRA:                  -4.107
REMARK UNBOUND:                -3.609
REMARK SMILES CC[C@@H](C)[C@@H](NC(=O)[C@@H](O)Cc1ccc(O)c(Cl)c1)C(=O)N1[C@H](C(=O)NCCCCN=C(N)N)C[C@H]2CC[C@H](OS(=O)(=O)O)C[C@@H]21
REMARK SMILES IDX 22 1 36 2 46 3 35 4 23 5 45 6 37 7 39 8 38 9 20 10 21 11
REMARK SMILES IDX 5 12 6 13 7 14 8 15 9 17 11 18 12 19 17 20 19 21 15 22 14 23
REMARK SMILES IDX 13 24 18 25 16 26 10 28 3 30 4 31 2 32 1 33 24 34 25 35
REMARK SMILES IDX 26 36 27 38 28 39 29 40 30 41 31 42 32 43 33 44 34 45 40 50
REMARK SMILES IDX 41 51 42 52 43 53 44 54
REMARK H PARENT 6 16 16 27 10 29 26 37 33 46 33 47 34 48 34 49 44 55
ROOT
ATOM      1  N   UNL     1      -4.896   1.728  -9.194  1.00  0.00    -0.326 N 
ATOM      2  C   UNL     1      -2.862   0.559  -8.996  1.00  0.00     0.014 C 
ATOM      3  C   UNL     1      -3.620   1.543  -9.892  1.00  0.00     0.091 C 
ATOM      4  C   UNL     1      -3.973  -0.331  -8.461  1.00  0.00     0.041 C 
ATOM      5  C   UNL     1      -5.025   0.735  -8.100  1.00  0.00     0.175 C 
ATOM      6  C   UNL     1      -2.735   2.767 -10.122  1.00  0.00     0.059 C 
ATOM      7  C   UNL     1      -1.701  -0.069  -9.742  1.00  0.00     0.008 C 
ATOM      8  C   UNL     1      -1.225   2.448 -10.137  1.00  0.00     0.143 C 
ATOM      9  C   UNL     1      -0.944   0.994 -10.566  1.00  0.00     0.034 C 
ENDROOT
BRANCH   1  10
ATOM     10  C   UNL     1      -5.994   2.496  -9.542  1.00  0.00     0.246 C 
ATOM     11  O   UNL     1      -6.307   3.455  -8.829  1.00  0.00    -0.272 OA
BRANCH  10  12
ATOM     12  C   UNL     1      -6.783   2.162 -10.842  1.00  0.00     0.174 C 
BRANCH  12  13
ATOM     13  N   UNL     1      -7.425   0.854 -10.713  1.00  0.00    -0.342 N 
ATOM     14  C   UNL     1      -8.775   0.619 -10.853  1.00  0.00     0.249 C 
ATOM     15  O   UNL     1      -9.592   1.487 -11.131  1.00  0.00    -0.272 OA
ATOM     16  H   UNL     1      -6.901   0.071 -10.332  1.00  0.00     0.164 HD
BRANCH  14  17
ATOM     17  C   UNL     1      -9.146  -0.864 -10.641  1.00  0.00     0.207 C 
BRANCH  17  18
ATOM     18  C   UNL     1      -7.895  -1.690 -10.326  1.00  0.00     0.077 C 
BRANCH  18  19
ATOM     19  C   UNL     1      -7.834  -2.081  -8.866  1.00  0.00    -0.043 A 
ATOM     20  C   UNL     1      -7.940  -1.475  -6.520  1.00  0.00     0.083 A 
ATOM     21  C   UNL     1      -8.046  -1.120  -7.865  1.00  0.00     0.028 A 
ATOM     22  C   UNL     1      -7.621  -2.786  -6.166  1.00  0.00     0.134 A 
ATOM     23  C   UNL     1      -7.409  -3.748  -7.147  1.00  0.00     0.048 A 
ATOM     24  C   UNL     1      -7.512  -3.396  -8.495  1.00  0.00     0.008 A 
ATOM     25  Cl  UNL     1      -8.203  -0.280  -5.305  1.00  0.00    -0.080 Cl
BRANCH  22  26
ATOM     26  O   UNL     1      -7.496  -3.178  -4.861  1.00  0.00    -0.506 OA
ATOM     27  H   UNL     1      -7.544  -4.152  -4.855  1.00  0.00     0.293 HD
ENDBRANCH  22  26
ENDBRANCH  18  19
ENDBRANCH  17  18
BRANCH  17  28
ATOM     28  O   UNL     1      -9.794  -1.406 -11.804  1.00  0.00    -0.383 OA
ATOM     29  H   UNL     1      -9.087  -1.846 -12.328  1.00  0.00     0.211 HD
ENDBRANCH  17  28
ENDBRANCH  14  17
ENDBRANCH  12  13
BRANCH  12  30
ATOM     30  C   UNL     1      -5.907   2.269 -12.119  1.00  0.00     0.018 C 
ATOM     31  C   UNL     1      -6.355   3.452 -12.991  1.00  0.00     0.010 C 
BRANCH  30  32
ATOM     32  C   UNL     1      -5.875   0.970 -12.961  1.00  0.00     0.002 C 
ATOM     33  C   UNL     1      -4.504   0.325 -13.112  1.00  0.00     0.004 C 
ENDBRANCH  30  32
ENDBRANCH  12  30
ENDBRANCH  10  12
ENDBRANCH   1  10
BRANCH   5  34
ATOM     34  C   UNL     1      -4.727   1.390  -6.725  1.00  0.00     0.242 C 
ATOM     35  O   UNL     1      -3.677   1.190  -6.114  1.00  0.00    -0.273 OA
ATOM     36  N   UNL     1      -5.743   2.165  -6.213  1.00  0.00    -0.354 N 
ATOM     37  H   UNL     1      -6.635   2.196  -6.708  1.00  0.00     0.163 HD
BRANCH  36  38
ATOM     38  C   UNL     1      -5.559   3.017  -5.056  1.00  0.00     0.116 C 
BRANCH  38  39
ATOM     39  C   UNL     1      -5.154   4.420  -5.505  1.00  0.00     0.023 C 
BRANCH  39  40
ATOM     40  C   UNL     1      -3.755   4.801  -5.035  1.00  0.00     0.026 C 
BRANCH  40  41
ATOM     41  C   UNL     1      -2.812   4.975  -6.225  1.00  0.00     0.146 C 
BRANCH  41  42
ATOM     42  N   UNL     1      -1.435   5.054  -5.755  1.00  0.00    -0.254 NA
ATOM     43  C   UNL     1      -0.789   3.977  -5.505  1.00  0.00     0.185 C 
ATOM     44  N   UNL     1      -1.176   2.693  -5.604  1.00  0.00    -0.370 N 
ATOM     45  N   UNL     1       0.478   4.072  -5.068  1.00  0.00    -0.370 N 
ATOM     46  H   UNL     1      -0.657   1.964  -5.146  1.00  0.00     0.159 HD
ATOM     47  H   UNL     1      -2.103   2.439  -5.933  1.00  0.00     0.159 HD
ATOM     48  H   UNL     1       0.851   5.006  -4.974  1.00  0.00     0.159 HD
ATOM     49  H   UNL     1       1.116   3.296  -5.079  1.00  0.00     0.159 HD
ENDBRANCH  41  42
ENDBRANCH  40  41
ENDBRANCH  39  40
ENDBRANCH  38  39
ENDBRANCH  36  38
ENDBRANCH   5  34
BRANCH   8  50
ATOM     50  O   UNL     1      -0.668   2.654  -8.838  1.00  0.00    -0.245 OA
BRANCH  50  51
ATOM     51  S   UNL     1       0.926   2.940  -8.684  1.00  0.00     0.397 S 
ATOM     52  O   UNL     1       1.093   4.291  -8.198  1.00  0.00    -0.169 OA
ATOM     53  O   UNL     1       1.621   2.465  -9.863  1.00  0.00    -0.169 OA
BRANCH  51  54
ATOM     54  O   UNL     1       1.322   1.981  -7.456  1.00  0.00    -0.264 OA
ATOM     55  H   UNL     1       1.978   1.332  -7.783  1.00  0.00     0.236 HD
ENDBRANCH  51  54
ENDBRANCH  50  51
ENDBRANCH   8  50
TORSDOF 19
ENDMDL
MODEL 11
REMARK VINA RESULT:    -6.886      2.132      3.179
REMARK INTER + INTRA:         -17.539
REMARK INTER:                 -14.436
REMARK INTRA:                  -3.103
REMARK UNBOUND:                -3.609
REMARK SMILES CC[C@@H](C)[C@@H](NC(=O)[C@@H](O)Cc1ccc(O)c(Cl)c1)C(=O)N1[C@H](C(=O)NCCCCN=C(N)N)C[C@H]2CC[C@H](OS(=O)(=O)O)C[C@@H]21
REMARK SMILES IDX 22 1 36 2 46 3 35 4 23 5 45 6 37 7 39 8 38 9 20 10 21 11
REMARK SMILES IDX 5 12 6 13 7 14 8 15 9 17 11 18 12 19 17 20 19 21 15 22 14 23
REMARK SMILES IDX 13 24 18 25 16 26 10 28 3 30 4 31 2 32 1 33 24 34 25 35
REMARK SMILES IDX 26 36 27 38 28 39 29 40 30 41 31 42 32 43 33 44 34 45 40 50
REMARK SMILES IDX 41 51 42 52 43 53 44 54
REMARK H PARENT 6 16 16 27 10 29 26 37 33 46 33 47 34 48 34 49 44 55
ROOT
ATOM      1  N   UNL     1      -5.654   2.012  -6.962  1.00  0.00    -0.326 N 
ATOM      2  C   UNL     1      -6.892   2.071  -8.964  1.00  0.00     0.014 C 
ATOM      3  C   UNL     1      -5.648   2.649  -8.282  1.00  0.00     0.091 C 
ATOM      4  C   UNL     1      -7.869   1.923  -7.808  1.00  0.00     0.041 C 
ATOM      5  C   UNL     1      -6.941   1.306  -6.745  1.00  0.00     0.175 C 
ATOM      6  C   UNL     1      -4.445   2.415  -9.194  1.00  0.00     0.059 C 
ATOM      7  C   UNL     1      -7.286   2.904 -10.168  1.00  0.00     0.008 C 
ATOM      8  C   UNL     1      -4.792   2.435 -10.699  1.00  0.00     0.143 C 
ATOM      9  C   UNL     1      -6.041   3.291 -10.993  1.00  0.00     0.034 C 
ENDROOT
BRANCH   1  10
ATOM     10  C   UNL     1      -4.779   2.163  -5.900  1.00  0.00     0.246 C 
ATOM     11  O   UNL     1      -3.909   1.306  -5.710  1.00  0.00    -0.272 OA
BRANCH  10  12
ATOM     12  C   UNL     1      -4.882   3.426  -4.996  1.00  0.00     0.174 C 
BRANCH  12  13
ATOM     13  N   UNL     1      -3.543   3.925  -4.683  1.00  0.00    -0.342 N 
ATOM     14  C   UNL     1      -2.916   4.965  -5.333  1.00  0.00     0.249 C 
ATOM     15  O   UNL     1      -3.429   5.612  -6.238  1.00  0.00    -0.272 OA
ATOM     16  H   UNL     1      -2.938   3.391  -4.065  1.00  0.00     0.164 HD
BRANCH  14  17
ATOM     17  C   UNL     1      -1.501   5.243  -4.783  1.00  0.00     0.207 C 
BRANCH  17  18
ATOM     18  C   UNL     1      -0.570   4.062  -5.077  1.00  0.00     0.077 C 
BRANCH  18  19
ATOM     19  C   UNL     1      -0.404   3.834  -6.562  1.00  0.00    -0.043 A 
ATOM     20  C   UNL     1      -0.632   2.404  -8.508  1.00  0.00     0.083 A 
ATOM     21  C   UNL     1      -0.832   2.631  -7.146  1.00  0.00     0.028 A 
ATOM     22  C   UNL     1      -0.004   3.371  -9.293  1.00  0.00     0.134 A 
ATOM     23  C   UNL     1       0.425   4.566  -8.728  1.00  0.00     0.048 A 
ATOM     24  C   UNL     1       0.228   4.797  -7.364  1.00  0.00     0.008 A 
ATOM     25  Cl  UNL     1      -1.165   0.920  -9.208  1.00  0.00    -0.080 Cl
BRANCH  22  26
ATOM     26  O   UNL     1       0.223   3.189 -10.630  1.00  0.00    -0.506 OA
ATOM     27  H   UNL     1      -0.096   3.992 -11.081  1.00  0.00     0.293 HD
ENDBRANCH  22  26
ENDBRANCH  18  19
ENDBRANCH  17  18
BRANCH  17  28
ATOM     28  O   UNL     1      -1.534   5.484  -3.367  1.00  0.00    -0.383 OA
ATOM     29  H   UNL     1      -2.461   5.737  -3.156  1.00  0.00     0.211 HD
ENDBRANCH  17  28
ENDBRANCH  14  17
ENDBRANCH  12  13
BRANCH  12  30
ATOM     30  C   UNL     1      -5.736   3.184  -3.722  1.00  0.00     0.018 C 
ATOM     31  C   UNL     1      -5.705   1.702  -3.317  1.00  0.00     0.010 C 
BRANCH  30  32
ATOM     32  C   UNL     1      -7.201   3.668  -3.855  1.00  0.00     0.002 C 
ATOM     33  C   UNL     1      -7.384   5.179  -3.908  1.00  0.00     0.004 C 
ENDBRANCH  30  32
ENDBRANCH  12  30
ENDBRANCH  10  12
ENDBRANCH   1  10
BRANCH   5  34
ATOM     34  C   UNL     1      -6.771  -0.223  -6.951  1.00  0.00     0.242 C 
ATOM     35  O   UNL     1      -5.749  -0.713  -7.430  1.00  0.00    -0.273 OA
ATOM     36  N   UNL     1      -7.867  -0.985  -6.611  1.00  0.00    -0.354 N 
ATOM     37  H   UNL     1      -8.727  -0.511  -6.333  1.00  0.00     0.163 HD
BRANCH  36  38
ATOM     38  C   UNL     1      -7.810  -2.430  -6.535  1.00  0.00     0.116 C 
BRANCH  38  39
ATOM     39  C   UNL     1      -8.228  -3.036  -7.872  1.00  0.00     0.023 C 
BRANCH  39  40
ATOM     40  C   UNL     1      -9.170  -2.127  -8.655  1.00  0.00     0.026 C 
BRANCH  40  41
ATOM     41  C   UNL     1     -10.561  -2.752  -8.762  1.00  0.00     0.146 C 
BRANCH  41  42
ATOM     42  N   UNL     1     -11.459  -2.120  -7.804  1.00  0.00    -0.254 NA
ATOM     43  C   UNL     1     -11.794  -2.749  -6.740  1.00  0.00     0.185 C 
ATOM     44  N   UNL     1     -11.442  -3.975  -6.312  1.00  0.00    -0.370 N 
ATOM     45  N   UNL     1     -12.626  -2.151  -5.872  1.00  0.00    -0.370 N 
ATOM     46  H   UNL     1     -11.966  -4.436  -5.589  1.00  0.00     0.159 HD
ATOM     47  H   UNL     1     -10.805  -4.562  -6.842  1.00  0.00     0.159 HD
ATOM     48  H   UNL     1     -12.934  -1.219  -6.115  1.00  0.00     0.159 HD
ATOM     49  H   UNL     1     -12.745  -2.467  -4.926  1.00  0.00     0.159 HD
ENDBRANCH  41  42
ENDBRANCH  40  41
ENDBRANCH  39  40
ENDBRANCH  38  39
ENDBRANCH  36  38
ENDBRANCH   5  34
BRANCH   8  50
ATOM     50  O   UNL     1      -5.033   1.107 -11.164  1.00  0.00    -0.245 OA
BRANCH  50  51
ATOM     51  S   UNL     1      -4.076   0.475 -12.318  1.00  0.00     0.397 S 
ATOM     52  O   UNL     1      -2.877   1.280 -12.394  1.00  0.00    -0.169 OA
ATOM     53  O   UNL     1      -4.865   0.175 -13.494  1.00  0.00    -0.169 OA
BRANCH  51  54
ATOM     54  O   UNL     1      -3.625  -0.918 -11.653  1.00  0.00    -0.264 OA
ATOM     55  H   UNL     1      -2.669  -0.859 -11.455  1.00  0.00     0.236 HD
ENDBRANCH  51  54
ENDBRANCH  50  51
ENDBRANCH   8  50
TORSDOF 19
ENDMDL
MODEL 12
REMARK VINA RESULT:    -6.857     12.672     16.187
REMARK INTER + INTRA:         -17.480
REMARK INTER:                 -14.328
REMARK INTRA:                  -3.152
REMARK UNBOUND:                -3.609
REMARK SMILES CC[C@@H](C)[C@@H](NC(=O)[C@@H](O)Cc1ccc(O)c(Cl)c1)C(=O)N1[C@H](C(=O)NCCCCN=C(N)N)C[C@H]2CC[C@H](OS(=O)(=O)O)C[C@@H]21
REMARK SMILES IDX 22 1 36 2 46 3 35 4 23 5 45 6 37 7 39 8 38 9 20 10 21 11
REMARK SMILES IDX 5 12 6 13 7 14 8 15 9 17 11 18 12 19 17 20 19 21 15 22 14 23
REMARK SMILES IDX 13 24 18 25 16 26 10 28 3 30 4 31 2 32 1 33 24 34 25 35
REMARK SMILES IDX 26 36 27 38 28 39 29 40 30 41 31 42 32 43 33 44 34 45 40 50
REMARK SMILES IDX 41 51 42 52 43 53 44 54
REMARK H PARENT 6 16 16 27 10 29 26 37 33 46 33 47 34 48 34 49 44 55
ROOT
ATOM      1  N   UNL     1     -11.056  -6.557   2.967  1.00  0.00    -0.326 N 
ATOM      2  C   UNL     1      -9.146  -6.097   1.669  1.00  0.00     0.014 C 
ATOM      3  C   UNL     1      -9.876  -7.223   2.407  1.00  0.00     0.091 C 
ATOM      4  C   UNL     1      -9.426  -4.886   2.546  1.00  0.00     0.041 C 
ATOM      5  C   UNL     1     -10.928  -5.087   2.817  1.00  0.00     0.175 C 
ATOM      6  C   UNL     1     -10.091  -8.379   1.432  1.00  0.00     0.059 C 
ATOM      7  C   UNL     1      -7.711  -6.484   1.372  1.00  0.00     0.008 C 
ATOM      8  C   UNL     1      -8.978  -8.513   0.370  1.00  0.00     0.143 C 
ATOM      9  C   UNL     1      -7.634  -7.940   0.865  1.00  0.00     0.034 C 
ENDROOT
BRANCH   1  10
ATOM     10  C   UNL     1     -12.075  -7.070   3.750  1.00  0.00     0.246 C 
ATOM     11  O   UNL     1     -12.989  -7.703   3.210  1.00  0.00    -0.272 OA
BRANCH  10  12
ATOM     12  C   UNL     1     -12.028  -6.875   5.294  1.00  0.00     0.174 C 
BRANCH  12  13
ATOM     13  N   UNL     1     -12.784  -5.681   5.669  1.00  0.00    -0.342 N 
ATOM     14  C   UNL     1     -14.142  -5.642   5.891  1.00  0.00     0.249 C 
ATOM     15  O   UNL     1     -14.872  -6.622   5.823  1.00  0.00    -0.272 OA
ATOM     16  H   UNL     1     -12.342  -4.766   5.610  1.00  0.00     0.164 HD
BRANCH  14  17
ATOM     17  C   UNL     1     -14.646  -4.229   6.254  1.00  0.00     0.207 C 
BRANCH  17  18
ATOM     18  C   UNL     1     -14.255  -3.224   5.166  1.00  0.00     0.077 C 
BRANCH  18  19
ATOM     19  C   UNL     1     -15.467  -2.671   4.451  1.00  0.00    -0.043 A 
ATOM     20  C   UNL     1     -17.874  -2.563   4.167  1.00  0.00     0.083 A 
ATOM     21  C   UNL     1     -16.759  -3.036   4.860  1.00  0.00     0.028 A 
ATOM     22  C   UNL     1     -17.706  -1.726   3.063  1.00  0.00     0.134 A 
ATOM     23  C   UNL     1     -16.432  -1.356   2.647  1.00  0.00     0.048 A 
ATOM     24  C   UNL     1     -15.315  -1.829   3.338  1.00  0.00     0.008 A 
ATOM     25  Cl  UNL     1     -19.453  -3.023   4.684  1.00  0.00    -0.080 Cl
BRANCH  22  26
ATOM     26  O   UNL     1     -18.768  -1.245   2.346  1.00  0.00    -0.506 OA
ATOM     27  H   UNL     1     -19.575  -1.543   2.806  1.00  0.00     0.293 HD
ENDBRANCH  22  26
ENDBRANCH  18  19
ENDBRANCH  17  18
BRANCH  17  28
ATOM     28  O   UNL     1     -14.110  -3.797   7.516  1.00  0.00    -0.383 OA
ATOM     29  H   UNL     1     -14.551  -2.941   7.720  1.00  0.00     0.211 HD
ENDBRANCH  17  28
ENDBRANCH  14  17
ENDBRANCH  12  13
BRANCH  12  30
ATOM     30  C   UNL     1     -10.580  -6.861   5.853  1.00  0.00     0.018 C 
ATOM     31  C   UNL     1     -10.416  -7.900   6.973  1.00  0.00     0.010 C 
BRANCH  30  32
ATOM     32  C   UNL     1     -10.119  -5.468   6.348  1.00  0.00     0.002 C 
ATOM     33  C   UNL     1      -9.254  -5.476   7.601  1.00  0.00     0.004 C 
ENDBRANCH  30  32
ENDBRANCH  12  30
ENDBRANCH  10  12
ENDBRANCH   1  10
BRANCH   5  34
ATOM     34  C   UNL     1     -11.796  -4.577   1.635  1.00  0.00     0.242 C 
ATOM     35  O   UNL     1     -12.874  -5.092   1.340  1.00  0.00    -0.273 OA
ATOM     36  N   UNL     1     -11.247  -3.544   0.909  1.00  0.00    -0.354 N 
ATOM     37  H   UNL     1     -10.298  -3.240   1.127  1.00  0.00     0.163 HD
BRANCH  36  38
ATOM     38  C   UNL     1     -12.004  -2.808  -0.083  1.00  0.00     0.116 C 
BRANCH  38  39
ATOM     39  C   UNL     1     -11.449  -3.094  -1.476  1.00  0.00     0.023 C 
BRANCH  39  40
ATOM     40  C   UNL     1     -10.746  -4.444  -1.557  1.00  0.00     0.026 C 
BRANCH  40  41
ATOM     41  C   UNL     1     -11.740  -5.553  -1.904  1.00  0.00     0.146 C 
BRANCH  41  42
ATOM     42  N   UNL     1     -11.523  -5.997  -3.275  1.00  0.00    -0.254 NA
ATOM     43  C   UNL     1     -12.508  -6.035  -4.091  1.00  0.00     0.185 C 
ATOM     44  N   UNL     1     -13.801  -5.715  -3.902  1.00  0.00    -0.370 N 
ATOM     45  N   UNL     1     -12.289  -6.452  -5.349  1.00  0.00    -0.370 N 
ATOM     46  H   UNL     1     -14.506  -6.023  -4.551  1.00  0.00     0.159 HD
ATOM     47  H   UNL     1     -14.140  -5.368  -3.010  1.00  0.00     0.159 HD
ATOM     48  H   UNL     1     -11.337  -6.705  -5.578  1.00  0.00     0.159 HD
ATOM     49  H   UNL     1     -12.938  -6.288  -6.098  1.00  0.00     0.159 HD
ENDBRANCH  41  42
ENDBRANCH  40  41
ENDBRANCH  39  40
ENDBRANCH  38  39
ENDBRANCH  36  38
ENDBRANCH   5  34
BRANCH   8  50
ATOM     50  O   UNL     1      -9.352  -7.823  -0.822  1.00  0.00    -0.245 OA
BRANCH  50  51
ATOM     51  S   UNL     1      -8.531  -8.096  -2.200  1.00  0.00     0.397 S 
ATOM     52  O   UNL     1      -8.002  -9.440  -2.145  1.00  0.00    -0.169 OA
ATOM     53  O   UNL     1      -7.685  -6.958  -2.495  1.00  0.00    -0.169 OA
BRANCH  51  54
ATOM     54  O   UNL     1      -9.711  -8.134  -3.292  1.00  0.00    -0.264 OA
ATOM     55  H   UNL     1      -9.960  -9.070  -3.430  1.00  0.00     0.236 HD
ENDBRANCH  51  54
ENDBRANCH  50  51
ENDBRANCH   8  50
TORSDOF 19
ENDMDL
MODEL 13
REMARK VINA RESULT:    -6.831      4.768     10.285
REMARK INTER + INTRA:         -17.428
REMARK INTER:                 -13.789
REMARK INTRA:                  -3.639
REMARK UNBOUND:                -3.609
REMARK SMILES CC[C@@H](C)[C@@H](NC(=O)[C@@H](O)Cc1ccc(O)c(Cl)c1)C(=O)N1[C@H](C(=O)NCCCCN=C(N)N)C[C@H]2CC[C@H](OS(=O)(=O)O)C[C@@H]21
REMARK SMILES IDX 22 1 36 2 46 3 35 4 23 5 45 6 37 7 39 8 38 9 20 10 21 11
REMARK SMILES IDX 5 12 6 13 7 14 8 15 9 17 11 18 12 19 17 20 19 21 15 22 14 23
REMARK SMILES IDX 13 24 18 25 16 26 10 28 3 30 4 31 2 32 1 33 24 34 25 35
REMARK SMILES IDX 26 36 27 38 28 39 29 40 30 41 31 42 32 43 33 44 34 45 40 50
REMARK SMILES IDX 41 51 42 52 43 53 44 54
REMARK H PARENT 6 16 16 27 10 29 26 37 33 46 33 47 34 48 34 49 44 55
ROOT
ATOM      1  N   UNL     1      -7.132   0.794  -7.642  1.00  0.00    -0.326 N 
ATOM      2  C   UNL     1      -7.399   3.125  -7.458  1.00  0.00     0.014 C 
ATOM      3  C   UNL     1      -8.159   1.800  -7.360  1.00  0.00     0.091 C 
ATOM      4  C   UNL     1      -6.389   2.851  -8.561  1.00  0.00     0.041 C 
ATOM      5  C   UNL     1      -5.899   1.453  -8.140  1.00  0.00     0.175 C 
ATOM      6  C   UNL     1      -8.870   1.749  -6.008  1.00  0.00     0.059 C 
ATOM      7  C   UNL     1      -8.358   4.291  -7.601  1.00  0.00     0.008 C 
ATOM      8  C   UNL     1      -9.315   3.134  -5.488  1.00  0.00     0.143 C 
ATOM      9  C   UNL     1      -9.553   4.135  -6.637  1.00  0.00     0.034 C 
ENDROOT
BRANCH   1  10
ATOM     10  C   UNL     1      -7.235  -0.585  -7.712  1.00  0.00     0.246 C 
ATOM     11  O   UNL     1      -6.543  -1.279  -6.959  1.00  0.00    -0.272 OA
BRANCH  10  12
ATOM     12  C   UNL     1      -8.247  -1.229  -8.704  1.00  0.00     0.174 C 
BRANCH  12  13
ATOM     13  N   UNL     1      -9.237  -2.013  -7.967  1.00  0.00    -0.342 N 
ATOM     14  C   UNL     1     -10.496  -1.574  -7.624  1.00  0.00     0.249 C 
ATOM     15  O   UNL     1     -10.941  -0.474  -7.927  1.00  0.00    -0.272 OA
ATOM     16  H   UNL     1      -8.958  -2.880  -7.515  1.00  0.00     0.164 HD
BRANCH  14  17
ATOM     17  C   UNL     1     -11.299  -2.627  -6.832  1.00  0.00     0.207 C 
BRANCH  17  18
ATOM     18  C   UNL     1     -10.779  -4.036  -7.135  1.00  0.00     0.077 C 
BRANCH  18  19
ATOM     19  C   UNL     1     -10.696  -4.885  -5.886  1.00  0.00    -0.043 A 
ATOM     20  C   UNL     1     -10.558  -5.065  -3.471  1.00  0.00     0.083 A 
ATOM     21  C   UNL     1     -10.684  -4.282  -4.619  1.00  0.00     0.028 A 
ATOM     22  C   UNL     1     -10.441  -6.451  -3.581  1.00  0.00     0.134 A 
ATOM     23  C   UNL     1     -10.452  -7.062  -4.830  1.00  0.00     0.048 A 
ATOM     24  C   UNL     1     -10.576  -6.280  -5.981  1.00  0.00     0.008 A 
ATOM     25  Cl  UNL     1     -10.544  -4.306  -1.923  1.00  0.00    -0.080 Cl
BRANCH  22  26
ATOM     26  O   UNL     1     -10.304  -7.260  -2.485  1.00  0.00    -0.506 OA
ATOM     27  H   UNL     1      -9.517  -6.947  -2.003  1.00  0.00     0.293 HD
ENDBRANCH  22  26
ENDBRANCH  18  19
ENDBRANCH  17  18
BRANCH  17  28
ATOM     28  O   UNL     1     -12.699  -2.557  -7.149  1.00  0.00    -0.383 OA
ATOM     29  H   UNL     1     -12.797  -2.970  -8.037  1.00  0.00     0.211 HD
ENDBRANCH  17  28
ENDBRANCH  14  17
ENDBRANCH  12  13
BRANCH  12  30
ATOM     30  C   UNL     1      -7.551  -2.053  -9.820  1.00  0.00     0.018 C 
ATOM     31  C   UNL     1      -7.332  -3.507  -9.371  1.00  0.00     0.010 C 
BRANCH  30  32
ATOM     32  C   UNL     1      -6.215  -1.440 -10.305  1.00  0.00     0.002 C 
ATOM     33  C   UNL     1      -6.307  -0.592 -11.567  1.00  0.00     0.004 C 
ENDBRANCH  30  32
ENDBRANCH  12  30
ENDBRANCH  10  12
ENDBRANCH   1  10
BRANCH   5  34
ATOM     34  C   UNL     1      -4.828   1.535  -7.019  1.00  0.00     0.242 C 
ATOM     35  O   UNL     1      -5.034   1.115  -5.881  1.00  0.00    -0.273 OA
ATOM     36  N   UNL     1      -3.654   2.161  -7.375  1.00  0.00    -0.354 N 
ATOM     37  H   UNL     1      -3.589   2.595  -8.297  1.00  0.00     0.163 HD
BRANCH  36  38
ATOM     38  C   UNL     1      -2.478   2.135  -6.531  1.00  0.00     0.116 C 
BRANCH  38  39
ATOM     39  C   UNL     1      -2.374   3.441  -5.747  1.00  0.00     0.023 C 
BRANCH  39  40
ATOM     40  C   UNL     1      -3.113   4.589  -6.427  1.00  0.00     0.026 C 
BRANCH  40  41
ATOM     41  C   UNL     1      -4.215   5.137  -5.520  1.00  0.00     0.146 C 
BRANCH  41  42
ATOM     42  N   UNL     1      -4.398   4.251  -4.378  1.00  0.00    -0.254 NA
ATOM     43  C   UNL     1      -4.879   4.716  -3.287  1.00  0.00     0.185 C 
ATOM     44  N   UNL     1      -5.276   5.964  -2.978  1.00  0.00    -0.370 N 
ATOM     45  N   UNL     1      -5.036   3.884  -2.244  1.00  0.00    -0.370 N 
ATOM     46  H   UNL     1      -5.400   6.241  -2.019  1.00  0.00     0.159 HD
ATOM     47  H   UNL     1      -5.238   6.718  -3.657  1.00  0.00     0.159 HD
ATOM     48  H   UNL     1      -4.769   2.921  -2.395  1.00  0.00     0.159 HD
ATOM     49  H   UNL     1      -5.614   4.107  -1.453  1.00  0.00     0.159 HD
ENDBRANCH  41  42
ENDBRANCH  40  41
ENDBRANCH  39  40
ENDBRANCH  38  39
ENDBRANCH  36  38
ENDBRANCH   5  34
BRANCH   8  50
ATOM     50  O   UNL     1      -8.321   3.672  -4.615  1.00  0.00    -0.245 OA
BRANCH  50  51
ATOM     51  S   UNL     1      -8.624   3.776  -3.021  1.00  0.00     0.397 S 
ATOM     52  O   UNL     1      -9.999   3.384  -2.801  1.00  0.00    -0.169 OA
ATOM     53  O   UNL     1      -8.098   5.023  -2.506  1.00  0.00    -0.169 OA
BRANCH  51  54
ATOM     54  O   UNL     1      -7.728   2.578  -2.430  1.00  0.00    -0.264 OA
ATOM     55  H   UNL     1      -8.306   1.794  -2.331  1.00  0.00     0.236 HD
ENDBRANCH  51  54
ENDBRANCH  50  51
ENDBRANCH   8  50
TORSDOF 19
ENDMDL
MODEL 14
REMARK VINA RESULT:    -6.826      5.148     10.452
REMARK INTER + INTRA:         -17.418
REMARK INTER:                 -13.801
REMARK INTRA:                  -3.617
REMARK UNBOUND:                -3.609
REMARK SMILES CC[C@@H](C)[C@@H](NC(=O)[C@@H](O)Cc1ccc(O)c(Cl)c1)C(=O)N1[C@H](C(=O)NCCCCN=C(N)N)C[C@H]2CC[C@H](OS(=O)(=O)O)C[C@@H]21
REMARK SMILES IDX 22 1 36 2 46 3 35 4 23 5 45 6 37 7 39 8 38 9 20 10 21 11
REMARK SMILES IDX 5 12 6 13 7 14 8 15 9 17 11 18 12 19 17 20 19 21 15 22 14 23
REMARK SMILES IDX 13 24 18 25 16 26 10 28 3 30 4 31 2 32 1 33 24 34 25 35
REMARK SMILES IDX 26 36 27 38 28 39 29 40 30 41 31 42 32 43 33 44 34 45 40 50
REMARK SMILES IDX 41 51 42 52 43 53 44 54
REMARK H PARENT 6 16 16 27 10 29 26 37 33 46 33 47 34 48 34 49 44 55
ROOT
ATOM      1  N   UNL     1      -7.967   0.561  -6.626  1.00  0.00    -0.326 N 
ATOM      2  C   UNL     1      -7.946   2.845  -7.199  1.00  0.00     0.014 C 
ATOM      3  C   UNL     1      -8.747   1.787  -6.435  1.00  0.00     0.091 C 
ATOM      4  C   UNL     1      -7.386   2.057  -8.374  1.00  0.00     0.041 C 
ATOM      5  C   UNL     1      -6.914   0.784  -7.648  1.00  0.00     0.175 C 
ATOM      6  C   UNL     1      -8.972   2.288  -5.009  1.00  0.00     0.059 C 
ATOM      7  C   UNL     1      -8.788   4.077  -7.464  1.00  0.00     0.008 C 
ATOM      8  C   UNL     1      -9.092   3.824  -4.902  1.00  0.00     0.143 C 
ATOM      9  C   UNL     1      -9.605   4.458  -6.211  1.00  0.00     0.034 C 
ENDROOT
BRANCH   1  10
ATOM     10  C   UNL     1      -8.212  -0.726  -6.179  1.00  0.00     0.246 C 
ATOM     11  O   UNL     1      -7.569  -1.161  -5.217  1.00  0.00    -0.272 OA
BRANCH  10  12
ATOM     12  C   UNL     1      -9.317  -1.579  -6.866  1.00  0.00     0.174 C 
BRANCH  12  13
ATOM     13  N   UNL     1      -9.924  -2.487  -5.893  1.00  0.00    -0.342 N 
ATOM     14  C   UNL     1     -11.264  -2.792  -5.827  1.00  0.00     0.249 C 
ATOM     15  O   UNL     1     -12.103  -2.353  -6.604  1.00  0.00    -0.272 OA
ATOM     16  H   UNL     1      -9.381  -2.803  -5.093  1.00  0.00     0.164 HD
BRANCH  14  17
ATOM     17  C   UNL     1     -11.597  -3.768  -4.678  1.00  0.00     0.207 C 
BRANCH  17  18
ATOM     18  C   UNL     1     -11.273  -5.208  -5.088  1.00  0.00     0.077 C 
BRANCH  18  19
ATOM     19  C   UNL     1     -10.517  -5.945  -4.005  1.00  0.00    -0.043 A 
ATOM     20  C   UNL     1      -9.654  -6.045  -1.740  1.00  0.00     0.083 A 
ATOM     21  C   UNL     1     -10.394  -5.387  -2.723  1.00  0.00     0.028 A 
ATOM     22  C   UNL     1      -9.033  -7.261  -2.031  1.00  0.00     0.134 A 
ATOM     23  C   UNL     1      -9.148  -7.825  -3.296  1.00  0.00     0.048 A 
ATOM     24  C   UNL     1      -9.886  -7.167  -4.282  1.00  0.00     0.008 A 
ATOM     25  Cl  UNL     1      -9.513  -5.344  -0.171  1.00  0.00    -0.080 Cl
BRANCH  22  26
ATOM     26  O   UNL     1      -8.289  -7.938  -1.103  1.00  0.00    -0.506 OA
ATOM     27  H   UNL     1      -8.913  -8.476  -0.581  1.00  0.00     0.293 HD
ENDBRANCH  22  26
ENDBRANCH  18  19
ENDBRANCH  17  18
BRANCH  17  28
ATOM     28  O   UNL     1     -12.982  -3.678  -4.307  1.00  0.00    -0.383 OA
ATOM     29  H   UNL     1     -13.328  -4.599  -4.324  1.00  0.00     0.211 HD
ENDBRANCH  17  28
ENDBRANCH  14  17
ENDBRANCH  12  13
BRANCH  12  30
ATOM     30  C   UNL     1      -8.802  -2.322  -8.129  1.00  0.00     0.018 C 
ATOM     31  C   UNL     1      -9.846  -2.273  -9.255  1.00  0.00     0.010 C 
BRANCH  30  32
ATOM     32  C   UNL     1      -8.379  -3.787  -7.859  1.00  0.00     0.002 C 
ATOM     33  C   UNL     1      -7.384  -4.371  -8.853  1.00  0.00     0.004 C 
ENDBRANCH  30  32
ENDBRANCH  12  30
ENDBRANCH  10  12
ENDBRANCH   1  10
BRANCH   5  34
ATOM     34  C   UNL     1      -5.530   0.989  -6.976  1.00  0.00     0.242 C 
ATOM     35  O   UNL     1      -5.403   1.129  -5.759  1.00  0.00    -0.273 OA
ATOM     36  N   UNL     1      -4.462   1.056  -7.843  1.00  0.00    -0.354 N 
ATOM     37  H   UNL     1      -4.644   1.053  -8.847  1.00  0.00     0.163 HD
BRANCH  36  38
ATOM     38  C   UNL     1      -3.089   1.027  -7.382  1.00  0.00     0.116 C 
BRANCH  38  39
ATOM     39  C   UNL     1      -2.482   2.425  -7.477  1.00  0.00     0.023 C 
BRANCH  39  40
ATOM     40  C   UNL     1      -1.513   2.717  -6.336  1.00  0.00     0.026 C 
BRANCH  40  41
ATOM     41  C   UNL     1      -1.814   4.077  -5.705  1.00  0.00     0.146 C 
BRANCH  41  42
ATOM     42  N   UNL     1      -3.105   4.563  -6.174  1.00  0.00    -0.254 NA
ATOM     43  C   UNL     1      -4.148   4.383  -5.455  1.00  0.00     0.185 C 
ATOM     44  N   UNL     1      -4.281   3.784  -4.257  1.00  0.00    -0.370 N 
ATOM     45  N   UNL     1      -5.330   4.834  -5.907  1.00  0.00    -0.370 N 
ATOM     46  H   UNL     1      -5.186   3.498  -3.925  1.00  0.00     0.159 HD
ATOM     47  H   UNL     1      -3.483   3.397  -3.764  1.00  0.00     0.159 HD
ATOM     48  H   UNL     1      -5.317   5.307  -6.801  1.00  0.00     0.159 HD
ATOM     49  H   UNL     1      -6.133   4.945  -5.314  1.00  0.00     0.159 HD
ENDBRANCH  41  42
ENDBRANCH  40  41
ENDBRANCH  39  40
ENDBRANCH  38  39
ENDBRANCH  36  38
ENDBRANCH   5  34
BRANCH   8  50
ATOM     50  O   UNL     1      -7.821   4.394  -4.589  1.00  0.00    -0.245 OA
BRANCH  50  51
ATOM     51  S   UNL     1      -7.454   4.739  -3.042  1.00  0.00     0.397 S 
ATOM     52  O   UNL     1      -8.691   4.980  -2.334  1.00  0.00    -0.169 OA
ATOM     53  O   UNL     1      -6.358   5.684  -3.002  1.00  0.00    -0.169 OA
BRANCH  51  54
ATOM     54  O   UNL     1      -6.910   3.325  -2.504  1.00  0.00    -0.264 OA
ATOM     55  H   UNL     1      -6.395   3.494  -1.689  1.00  0.00     0.236 HD
ENDBRANCH  51  54
ENDBRANCH  50  51
ENDBRANCH   8  50
TORSDOF 19
ENDMDL
MODEL 15
REMARK VINA RESULT:    -6.823      5.237      8.077
REMARK INTER + INTRA:         -17.412
REMARK INTER:                 -14.324
REMARK INTRA:                  -3.088
REMARK UNBOUND:                -3.609
REMARK SMILES CC[C@@H](C)[C@@H](NC(=O)[C@@H](O)Cc1ccc(O)c(Cl)c1)C(=O)N1[C@H](C(=O)NCCCCN=C(N)N)C[C@H]2CC[C@H](OS(=O)(=O)O)C[C@@H]21
REMARK SMILES IDX 22 1 36 2 46 3 35 4 23 5 45 6 37 7 39 8 38 9 20 10 21 11
REMARK SMILES IDX 5 12 6 13 7 14 8 15 9 17 11 18 12 19 17 20 19 21 15 22 14 23
REMARK SMILES IDX 13 24 18 25 16 26 10 28 3 30 4 31 2 32 1 33 24 34 25 35
REMARK SMILES IDX 26 36 27 38 28 39 29 40 30 41 31 42 32 43 33 44 34 45 40 50
REMARK SMILES IDX 41 51 42 52 43 53 44 54
REMARK H PARENT 6 16 16 27 10 29 26 37 33 46 33 47 34 48 34 49 44 55
ROOT
ATOM      1  N   UNL     1      -9.593  -0.840  -6.001  1.00  0.00    -0.326 N 
ATOM      2  C   UNL     1     -10.795  -2.578  -7.039  1.00  0.00     0.014 C 
ATOM      3  C   UNL     1      -9.543  -2.291  -6.205  1.00  0.00     0.091 C 
ATOM      4  C   UNL     1     -10.908  -1.337  -7.912  1.00  0.00     0.041 C 
ATOM      5  C   UNL     1     -10.641  -0.241  -6.864  1.00  0.00     0.175 C 
ATOM      6  C   UNL     1      -9.564  -3.196  -4.975  1.00  0.00     0.059 C 
ATOM      7  C   UNL     1     -10.709  -3.942  -7.694  1.00  0.00     0.008 C 
ATOM      8  C   UNL     1     -10.243  -4.562  -5.220  1.00  0.00     0.143 C 
ATOM      9  C   UNL     1     -10.165  -4.990  -6.700  1.00  0.00     0.034 C 
ENDROOT
BRANCH   1  10
ATOM     10  C   UNL     1      -8.712  -0.007  -5.333  1.00  0.00     0.246 C 
ATOM     11  O   UNL     1      -9.035   0.453  -4.233  1.00  0.00    -0.272 OA
BRANCH  10  12
ATOM     12  C   UNL     1      -7.320   0.298  -5.961  1.00  0.00     0.174 C 
BRANCH  12  13
ATOM     13  N   UNL     1      -6.901   1.654  -5.609  1.00  0.00    -0.342 N 
ATOM     14  C   UNL     1      -5.976   1.969  -4.639  1.00  0.00     0.249 C 
ATOM     15  O   UNL     1      -5.374   1.134  -3.974  1.00  0.00    -0.272 OA
ATOM     16  H   UNL     1      -7.424   2.451  -5.963  1.00  0.00     0.164 HD
BRANCH  14  17
ATOM     17  C   UNL     1      -5.761   3.490  -4.491  1.00  0.00     0.207 C 
BRANCH  17  18
ATOM     18  C   UNL     1      -5.328   4.102  -5.827  1.00  0.00     0.077 C 
BRANCH  18  19
ATOM     19  C   UNL     1      -4.088   3.432  -6.376  1.00  0.00    -0.043 A 
ATOM     20  C   UNL     1      -1.712   2.964  -6.232  1.00  0.00     0.083 A 
ATOM     21  C   UNL     1      -2.864   3.541  -5.697  1.00  0.00     0.028 A 
ATOM     22  C   UNL     1      -1.774   2.277  -7.445  1.00  0.00     0.134 A 
ATOM     23  C   UNL     1      -2.979   2.160  -8.128  1.00  0.00     0.048 A 
ATOM     24  C   UNL     1      -4.134   2.739  -7.596  1.00  0.00     0.008 A 
ATOM     25  Cl  UNL     1      -0.218   3.109  -5.384  1.00  0.00    -0.080 Cl
BRANCH  22  26
ATOM     26  O   UNL     1      -0.669   1.703  -8.014  1.00  0.00    -0.506 OA
ATOM     27  H   UNL     1       0.105   2.042  -7.527  1.00  0.00     0.293 HD
ENDBRANCH  22  26
ENDBRANCH  18  19
ENDBRANCH  17  18
BRANCH  17  28
ATOM     28  O   UNL     1      -4.770   3.778  -3.491  1.00  0.00    -0.383 OA
ATOM     29  H   UNL     1      -3.921   3.426  -3.841  1.00  0.00     0.211 HD
ENDBRANCH  17  28
ENDBRANCH  14  17
ENDBRANCH  12  13
BRANCH  12  30
ATOM     30  C   UNL     1      -7.284   0.046  -7.492  1.00  0.00     0.018 C 
ATOM     31  C   UNL     1      -5.945  -0.580  -7.911  1.00  0.00     0.010 C 
BRANCH  30  32
ATOM     32  C   UNL     1      -7.567   1.311  -8.337  1.00  0.00     0.002 C 
ATOM     33  C   UNL     1      -8.428   1.089  -9.575  1.00  0.00     0.004 C 
ENDBRANCH  30  32
ENDBRANCH  12  30
ENDBRANCH  10  12
ENDBRANCH   1  10
BRANCH   5  34
ATOM     34  C   UNL     1     -11.915   0.082  -6.038  1.00  0.00     0.242 C 
ATOM     35  O   UNL     1     -12.914   0.595  -6.543  1.00  0.00    -0.273 OA
ATOM     36  N   UNL     1     -11.827  -0.196  -4.692  1.00  0.00    -0.354 N 
ATOM     37  H   UNL     1     -10.932  -0.507  -4.313  1.00  0.00     0.163 HD
BRANCH  36  38
ATOM     38  C   UNL     1     -12.981  -0.160  -3.818  1.00  0.00     0.116 C 
BRANCH  38  39
ATOM     39  C   UNL     1     -12.543   0.171  -2.394  1.00  0.00     0.023 C 
BRANCH  39  40
ATOM     40  C   UNL     1     -12.096  -1.065  -1.620  1.00  0.00     0.026 C 
BRANCH  40  41
ATOM     41  C   UNL     1     -10.571  -1.117  -1.515  1.00  0.00     0.146 C 
BRANCH  41  42
ATOM     42  N   UNL     1     -10.148  -0.589  -0.225  1.00  0.00    -0.254 NA
ATOM     43  C   UNL     1      -9.213   0.284  -0.174  1.00  0.00     0.185 C 
ATOM     44  N   UNL     1      -8.498   0.845  -1.166  1.00  0.00    -0.370 N 
ATOM     45  N   UNL     1      -8.835   0.755   1.026  1.00  0.00    -0.370 N 
ATOM     46  H   UNL     1      -7.638   1.327  -0.968  1.00  0.00     0.159 HD
ATOM     47  H   UNL     1      -8.664   0.612  -2.140  1.00  0.00     0.159 HD
ATOM     48  H   UNL     1      -9.330   0.389   1.828  1.00  0.00     0.159 HD
ATOM     49  H   UNL     1      -8.292   1.593   1.135  1.00  0.00     0.159 HD
ENDBRANCH  41  42
ENDBRANCH  40  41
ENDBRANCH  39  40
ENDBRANCH  38  39
ENDBRANCH  36  38
ENDBRANCH   5  34
BRANCH   8  50
ATOM     50  O   UNL     1     -11.617  -4.502  -4.837  1.00  0.00    -0.245 OA
BRANCH  50  51
ATOM     51  S   UNL     1     -12.133  -5.368  -3.561  1.00  0.00     0.397 S 
ATOM     52  O   UNL     1     -12.191  -4.487  -2.417  1.00  0.00    -0.169 OA
ATOM     53  O   UNL     1     -11.425  -6.631  -3.512  1.00  0.00    -0.169 OA
BRANCH  51  54
ATOM     54  O   UNL     1     -13.661  -5.672  -3.958  1.00  0.00    -0.264 OA
ATOM     55  H   UNL     1     -13.689  -5.855  -4.919  1.00  0.00     0.236 HD
ENDBRANCH  51  54
ENDBRANCH  50  51
ENDBRANCH   8  50
TORSDOF 19
ENDMDL
MODEL 16
REMARK VINA RESULT:    -6.819      5.046      7.928
REMARK INTER + INTRA:         -17.405
REMARK INTER:                 -15.018
REMARK INTRA:                  -2.387
REMARK UNBOUND:                -3.609
REMARK SMILES CC[C@@H](C)[C@@H](NC(=O)[C@@H](O)Cc1ccc(O)c(Cl)c1)C(=O)N1[C@H](C(=O)NCCCCN=C(N)N)C[C@H]2CC[C@H](OS(=O)(=O)O)C[C@@H]21
REMARK SMILES IDX 22 1 36 2 46 3 35 4 23 5 45 6 37 7 39 8 38 9 20 10 21 11
REMARK SMILES IDX 5 12 6 13 7 14 8 15 9 17 11 18 12 19 17 20 19 21 15 22 14 23
REMARK SMILES IDX 13 24 18 25 16 26 10 28 3 30 4 31 2 32 1 33 24 34 25 35
REMARK SMILES IDX 26 36 27 38 28 39 29 40 30 41 31 42 32 43 33 44 34 45 40 50
REMARK SMILES IDX 41 51 42 52 43 53 44 54
REMARK H PARENT 6 16 16 27 10 29 26 37 33 46 33 47 34 48 34 49 44 55
ROOT
ATOM      1  N   UNL     1      -8.896  -1.075  -6.951  1.00  0.00    -0.326 N 
ATOM      2  C   UNL     1      -9.629  -1.527  -4.760  1.00  0.00     0.014 C 
ATOM      3  C   UNL     1      -9.571  -0.426  -5.823  1.00  0.00     0.091 C 
ATOM      4  C   UNL     1      -8.330  -2.284  -4.990  1.00  0.00     0.041 C 
ATOM      5  C   UNL     1      -8.341  -2.384  -6.526  1.00  0.00     0.175 C 
ATOM      6  C   UNL     1     -10.983   0.114  -6.037  1.00  0.00     0.059 C 
ATOM      7  C   UNL     1      -9.917  -0.944  -3.390  1.00  0.00     0.008 C 
ATOM      8  C   UNL     1     -11.864   0.072  -4.769  1.00  0.00     0.143 C 
ATOM      9  C   UNL     1     -11.023   0.129  -3.478  1.00  0.00     0.034 C 
ENDROOT
BRANCH   1  10
ATOM     10  C   UNL     1      -8.547  -0.563  -8.189  1.00  0.00     0.246 C 
ATOM     11  O   UNL     1      -9.437  -0.160  -8.946  1.00  0.00    -0.272 OA
BRANCH  10  12
ATOM     12  C   UNL     1      -7.044  -0.468  -8.583  1.00  0.00     0.174 C 
BRANCH  12  13
ATOM     13  N   UNL     1      -6.572   0.906  -8.418  1.00  0.00    -0.342 N 
ATOM     14  C   UNL     1      -5.769   1.348  -7.391  1.00  0.00     0.249 C 
ATOM     15  O   UNL     1      -5.334   0.623  -6.506  1.00  0.00    -0.272 OA
ATOM     16  H   UNL     1      -6.976   1.649  -8.984  1.00  0.00     0.164 HD
BRANCH  14  17
ATOM     17  C   UNL     1      -5.457   2.857  -7.485  1.00  0.00     0.207 C 
BRANCH  17  18
ATOM     18  C   UNL     1      -4.799   3.350  -6.193  1.00  0.00     0.077 C 
BRANCH  18  19
ATOM     19  C   UNL     1      -3.360   3.760  -6.416  1.00  0.00    -0.043 A 
ATOM     20  C   UNL     1      -1.370   4.934  -5.678  1.00  0.00     0.083 A 
ATOM     21  C   UNL     1      -2.681   4.515  -5.447  1.00  0.00     0.028 A 
ATOM     22  C   UNL     1      -0.731   4.603  -6.873  1.00  0.00     0.134 A 
ATOM     23  C   UNL     1      -1.392   3.855  -7.841  1.00  0.00     0.048 A 
ATOM     24  C   UNL     1      -2.705   3.436  -7.614  1.00  0.00     0.008 A 
ATOM     25  Cl  UNL     1      -0.552   5.862  -4.476  1.00  0.00    -0.080 Cl
BRANCH  22  26
ATOM     26  O   UNL     1       0.549   5.000  -7.149  1.00  0.00    -0.506 OA
ATOM     27  H   UNL     1       0.957   5.241  -6.296  1.00  0.00     0.293 HD
ENDBRANCH  22  26
ENDBRANCH  18  19
ENDBRANCH  17  18
BRANCH  17  28
ATOM     28  O   UNL     1      -6.650   3.618  -7.732  1.00  0.00    -0.383 OA
ATOM     29  H   UNL     1      -7.363   2.959  -7.897  1.00  0.00     0.211 HD
ENDBRANCH  17  28
ENDBRANCH  14  17
ENDBRANCH  12  13
BRANCH  12  30
ATOM     30  C   UNL     1      -6.760  -1.025 -10.004  1.00  0.00     0.018 C 
ATOM     31  C   UNL     1      -6.890  -2.557 -10.026  1.00  0.00     0.010 C 
BRANCH  30  32
ATOM     32  C   UNL     1      -5.386  -0.600 -10.575  1.00  0.00     0.002 C 
ATOM     33  C   UNL     1      -4.174  -1.138  -9.826  1.00  0.00     0.004 C 
ENDBRANCH  30  32
ENDBRANCH  12  30
ENDBRANCH  10  12
ENDBRANCH   1  10
BRANCH   5  34
ATOM     34  C   UNL     1      -9.243  -3.548  -7.017  1.00  0.00     0.242 C 
ATOM     35  O   UNL     1      -9.684  -3.600  -8.165  1.00  0.00    -0.273 OA
ATOM     36  N   UNL     1      -9.556  -4.489  -6.061  1.00  0.00    -0.354 N 
ATOM     37  H   UNL     1      -9.260  -4.328  -5.098  1.00  0.00     0.163 HD
BRANCH  36  38
ATOM     38  C   UNL     1     -10.200  -5.743  -6.393  1.00  0.00     0.116 C 
BRANCH  38  39
ATOM     39  C   UNL     1     -10.276  -6.631  -5.153  1.00  0.00     0.023 C 
BRANCH  39  40
ATOM     40  C   UNL     1      -9.545  -6.027  -3.959  1.00  0.00     0.026 C 
BRANCH  40  41
ATOM     41  C   UNL     1     -10.510  -5.789  -2.797  1.00  0.00     0.146 C 
BRANCH  41  42
ATOM     42  N   UNL     1     -11.847  -6.231  -3.168  1.00  0.00    -0.254 NA
ATOM     43  C   UNL     1     -12.688  -5.385  -3.632  1.00  0.00     0.185 C 
ATOM     44  N   UNL     1     -12.553  -4.065  -3.857  1.00  0.00    -0.370 N 
ATOM     45  N   UNL     1     -13.917  -5.812  -3.965  1.00  0.00    -0.370 N 
ATOM     46  H   UNL     1     -13.361  -3.482  -3.990  1.00  0.00     0.159 HD
ATOM     47  H   UNL     1     -11.680  -3.580  -3.672  1.00  0.00     0.159 HD
ATOM     48  H   UNL     1     -14.100  -6.798  -3.834  1.00  0.00     0.159 HD
ATOM     49  H   UNL     1     -14.540  -5.278  -4.544  1.00  0.00     0.159 HD
ENDBRANCH  41  42
ENDBRANCH  40  41
ENDBRANCH  39  40
ENDBRANCH  38  39
ENDBRANCH  36  38
ENDBRANCH   5  34
BRANCH   8  50
ATOM     50  O   UNL     1     -12.640  -1.127  -4.751  1.00  0.00    -0.245 OA
BRANCH  50  51
ATOM     51  S   UNL     1     -13.960  -1.243  -5.695  1.00  0.00     0.397 S 
ATOM     52  O   UNL     1     -15.094  -1.524  -4.844  1.00  0.00    -0.169 OA
ATOM     53  O   UNL     1     -13.658  -2.057  -6.854  1.00  0.00    -0.169 OA
BRANCH  51  54
ATOM     54  O   UNL     1     -14.151   0.275  -6.192  1.00  0.00    -0.264 OA
ATOM     55  H   UNL     1     -14.946   0.636  -5.749  1.00  0.00     0.236 HD
ENDBRANCH  51  54
ENDBRANCH  50  51
ENDBRANCH   8  50
TORSDOF 19
ENDMDL
MODEL 17
REMARK VINA RESULT:    -6.741      5.364      8.699
REMARK INTER + INTRA:         -17.246
REMARK INTER:                 -12.511
REMARK INTRA:                  -4.735
REMARK UNBOUND:                -3.609
REMARK SMILES CC[C@@H](C)[C@@H](NC(=O)[C@@H](O)Cc1ccc(O)c(Cl)c1)C(=O)N1[C@H](C(=O)NCCCCN=C(N)N)C[C@H]2CC[C@H](OS(=O)(=O)O)C[C@@H]21
REMARK SMILES IDX 22 1 36 2 46 3 35 4 23 5 45 6 37 7 39 8 38 9 20 10 21 11
REMARK SMILES IDX 5 12 6 13 7 14 8 15 9 17 11 18 12 19 17 20 19 21 15 22 14 23
REMARK SMILES IDX 13 24 18 25 16 26 10 28 3 30 4 31 2 32 1 33 24 34 25 35
REMARK SMILES IDX 26 36 27 38 28 39 29 40 30 41 31 42 32 43 33 44 34 45 40 50
REMARK SMILES IDX 41 51 42 52 43 53 44 54
REMARK H PARENT 6 16 16 27 10 29 26 37 33 46 33 47 34 48 34 49 44 55
ROOT
ATOM      1  N   UNL     1      -8.960  -0.970  -6.391  1.00  0.00    -0.326 N 
ATOM      2  C   UNL     1     -10.750  -2.403  -6.922  1.00  0.00     0.014 C 
ATOM      3  C   UNL     1      -9.290  -2.396  -6.463  1.00  0.00     0.091 C 
ATOM      4  C   UNL     1     -10.815  -1.201  -7.852  1.00  0.00     0.041 C 
ATOM      5  C   UNL     1     -10.041  -0.167  -7.014  1.00  0.00     0.175 C 
ATOM      6  C   UNL     1      -9.180  -3.229  -5.187  1.00  0.00     0.059 C 
ATOM      7  C   UNL     1     -11.148  -3.770  -7.445  1.00  0.00     0.008 C 
ATOM      8  C   UNL     1     -10.185  -4.401  -5.122  1.00  0.00     0.143 C 
ATOM      9  C   UNL     1     -10.603  -4.883  -6.526  1.00  0.00     0.034 C 
ENDROOT
BRANCH   1  10
ATOM     10  C   UNL     1      -7.770  -0.349  -6.051  1.00  0.00     0.246 C 
ATOM     11  O   UNL     1      -7.302  -0.527  -4.921  1.00  0.00    -0.272 OA
BRANCH  10  12
ATOM     12  C   UNL     1      -7.028   0.520  -7.107  1.00  0.00     0.174 C 
BRANCH  12  13
ATOM     13  N   UNL     1      -6.566  -0.322  -8.210  1.00  0.00    -0.342 N 
ATOM     14  C   UNL     1      -7.132  -0.363  -9.464  1.00  0.00     0.249 C 
ATOM     15  O   UNL     1      -8.081   0.331  -9.807  1.00  0.00    -0.272 OA
ATOM     16  H   UNL     1      -5.890  -1.061  -8.030  1.00  0.00     0.164 HD
BRANCH  14  17
ATOM     17  C   UNL     1      -6.428  -1.365 -10.403  1.00  0.00     0.207 C 
BRANCH  17  18
ATOM     18  C   UNL     1      -5.547  -0.624 -11.414  1.00  0.00     0.077 C 
BRANCH  18  19
ATOM     19  C   UNL     1      -4.210  -0.240 -10.819  1.00  0.00    -0.043 A 
ATOM     20  C   UNL     1      -2.216  -0.833  -9.572  1.00  0.00     0.083 A 
ATOM     21  C   UNL     1      -3.426  -1.201 -10.162  1.00  0.00     0.028 A 
ATOM     22  C   UNL     1      -1.784   0.493  -9.633  1.00  0.00     0.134 A 
ATOM     23  C   UNL     1      -2.551   1.454 -10.281  1.00  0.00     0.048 A 
ATOM     24  C   UNL     1      -3.763   1.089 -10.871  1.00  0.00     0.008 A 
ATOM     25  Cl  UNL     1      -1.266  -2.027  -8.768  1.00  0.00    -0.080 Cl
BRANCH  22  26
ATOM     26  O   UNL     1      -0.611   0.903  -9.060  1.00  0.00    -0.506 OA
ATOM     27  H   UNL     1      -0.818   1.700  -8.537  1.00  0.00     0.293 HD
ENDBRANCH  22  26
ENDBRANCH  18  19
ENDBRANCH  17  18
BRANCH  17  28
ATOM     28  O   UNL     1      -7.384  -2.175 -11.107  1.00  0.00    -0.383 OA
ATOM     29  H   UNL     1      -8.033  -2.477 -10.432  1.00  0.00     0.211 HD
ENDBRANCH  17  28
ENDBRANCH  14  17
ENDBRANCH  12  13
BRANCH  12  30
ATOM     30  C   UNL     1      -5.884   1.368  -6.489  1.00  0.00     0.018 C 
ATOM     31  C   UNL     1      -6.247   2.862  -6.496  1.00  0.00     0.010 C 
BRANCH  30  32
ATOM     32  C   UNL     1      -4.511   1.151  -7.171  1.00  0.00     0.002 C 
ATOM     33  C   UNL     1      -3.304   1.619  -6.368  1.00  0.00     0.004 C 
ENDBRANCH  30  32
ENDBRANCH  12  30
ENDBRANCH  10  12
ENDBRANCH   1  10
BRANCH   5  34
ATOM     34  C   UNL     1     -10.943   0.478  -5.928  1.00  0.00     0.242 C 
ATOM     35  O   UNL     1     -10.840   0.195  -4.734  1.00  0.00    -0.273 OA
ATOM     36  N   UNL     1     -11.899   1.348  -6.402  1.00  0.00    -0.354 N 
ATOM     37  H   UNL     1     -12.014   1.451  -7.411  1.00  0.00     0.163 HD
BRANCH  36  38
ATOM     38  C   UNL     1     -12.677   2.197  -5.522  1.00  0.00     0.116 C 
BRANCH  38  39
ATOM     39  C   UNL     1     -14.150   2.141  -5.917  1.00  0.00     0.023 C 
BRANCH  39  40
ATOM     40  C   UNL     1     -15.075   2.042  -4.709  1.00  0.00     0.026 C 
BRANCH  40  41
ATOM     41  C   UNL     1     -14.675   0.868  -3.815  1.00  0.00     0.146 C 
BRANCH  41  42
ATOM     42  N   UNL     1     -14.810  -0.381  -4.553  1.00  0.00    -0.254 NA
ATOM     43  C   UNL     1     -14.001  -1.345  -4.319  1.00  0.00     0.185 C 
ATOM     44  N   UNL     1     -12.975  -1.423  -3.452  1.00  0.00    -0.370 N 
ATOM     45  N   UNL     1     -14.140  -2.487  -5.013  1.00  0.00    -0.370 N 
ATOM     46  H   UNL     1     -12.278  -2.142  -3.545  1.00  0.00     0.159 HD
ATOM     47  H   UNL     1     -12.738  -0.651  -2.836  1.00  0.00     0.159 HD
ATOM     48  H   UNL     1     -14.896  -2.515  -5.683  1.00  0.00     0.159 HD
ATOM     49  H   UNL     1     -13.713  -3.351  -4.729  1.00  0.00     0.159 HD
ENDBRANCH  41  42
ENDBRANCH  40  41
ENDBRANCH  39  40
ENDBRANCH  38  39
ENDBRANCH  36  38
ENDBRANCH   5  34
BRANCH   8  50
ATOM     50  O   UNL     1     -11.357  -4.002  -4.412  1.00  0.00    -0.245 OA
BRANCH  50  51
ATOM     51  S   UNL     1     -12.118  -5.073  -3.453  1.00  0.00     0.397 S 
ATOM     52  O   UNL     1     -11.211  -6.171  -3.203  1.00  0.00    -0.169 OA
ATOM     53  O   UNL     1     -13.463  -5.295  -3.943  1.00  0.00    -0.169 OA
BRANCH  51  54
ATOM     54  O   UNL     1     -12.223  -4.267  -2.066  1.00  0.00    -0.264 OA
ATOM     55  H   UNL     1     -11.715  -4.764  -1.393  1.00  0.00     0.236 HD
ENDBRANCH  51  54
ENDBRANCH  50  51
ENDBRANCH   8  50
TORSDOF 19
ENDMDL
MODEL 18
REMARK VINA RESULT:    -6.694      5.217      8.580
REMARK INTER + INTRA:         -17.151
REMARK INTER:                 -12.245
REMARK INTRA:                  -4.905
REMARK UNBOUND:                -3.609
REMARK SMILES CC[C@@H](C)[C@@H](NC(=O)[C@@H](O)Cc1ccc(O)c(Cl)c1)C(=O)N1[C@H](C(=O)NCCCCN=C(N)N)C[C@H]2CC[C@H](OS(=O)(=O)O)C[C@@H]21
REMARK SMILES IDX 22 1 36 2 46 3 35 4 23 5 45 6 37 7 39 8 38 9 20 10 21 11
REMARK SMILES IDX 5 12 6 13 7 14 8 15 9 17 11 18 12 19 17 20 19 21 15 22 14 23
REMARK SMILES IDX 13 24 18 25 16 26 10 28 3 30 4 31 2 32 1 33 24 34 25 35
REMARK SMILES IDX 26 36 27 38 28 39 29 40 30 41 31 42 32 43 33 44 34 45 40 50
REMARK SMILES IDX 41 51 42 52 43 53 44 54
REMARK H PARENT 6 16 16 27 10 29 26 37 33 46 33 47 34 48 34 49 44 55
ROOT
ATOM      1  N   UNL     1      -9.580  -1.744  -7.630  1.00  0.00    -0.326 N 
ATOM      2  C   UNL     1      -9.699  -1.279  -5.325  1.00  0.00     0.014 C 
ATOM      3  C   UNL     1      -9.845  -0.636  -6.708  1.00  0.00     0.091 C 
ATOM      4  C   UNL     1      -8.594  -2.300  -5.545  1.00  0.00     0.041 C 
ATOM      5  C   UNL     1      -9.050  -2.911  -6.883  1.00  0.00     0.175 C 
ATOM      6  C   UNL     1     -11.205   0.056  -6.777  1.00  0.00     0.059 C 
ATOM      7  C   UNL     1      -9.532  -0.222  -4.251  1.00  0.00     0.008 C 
ATOM      8  C   UNL     1     -11.689   0.614  -5.421  1.00  0.00     0.143 C 
ATOM      9  C   UNL     1     -10.514   0.946  -4.479  1.00  0.00     0.034 C 
ENDROOT
BRANCH   1  10
ATOM     10  C   UNL     1      -9.552  -1.759  -9.014  1.00  0.00     0.246 C 
ATOM     11  O   UNL     1     -10.322  -2.510  -9.623  1.00  0.00    -0.272 OA
BRANCH  10  12
ATOM     12  C   UNL     1      -8.585  -0.804  -9.772  1.00  0.00     0.174 C 
BRANCH  12  13
ATOM     13  N   UNL     1      -7.268  -0.821  -9.137  1.00  0.00    -0.342 N 
ATOM     14  C   UNL     1      -6.079  -1.056  -9.790  1.00  0.00     0.249 C 
ATOM     15  O   UNL     1      -5.990  -1.252 -10.995  1.00  0.00    -0.272 OA
ATOM     16  H   UNL     1      -7.198  -0.830  -8.122  1.00  0.00     0.164 HD
BRANCH  14  17
ATOM     17  C   UNL     1      -4.862  -1.025  -8.840  1.00  0.00     0.207 C 
BRANCH  17  18
ATOM     18  C   UNL     1      -4.092   0.289  -9.000  1.00  0.00     0.077 C 
BRANCH  18  19
ATOM     19  C   UNL     1      -4.139   1.125  -7.741  1.00  0.00    -0.043 A 
ATOM     20  C   UNL     1      -5.349   1.944  -5.805  1.00  0.00     0.083 A 
ATOM     21  C   UNL     1      -5.291   1.134  -6.939  1.00  0.00     0.028 A 
ATOM     22  C   UNL     1      -4.261   2.749  -5.465  1.00  0.00     0.134 A 
ATOM     23  C   UNL     1      -3.114   2.750  -6.250  1.00  0.00     0.048 A 
ATOM     24  C   UNL     1      -3.054   1.942  -7.387  1.00  0.00     0.008 A 
ATOM     25  Cl  UNL     1      -6.773   1.941  -4.832  1.00  0.00    -0.080 Cl
BRANCH  22  26
ATOM     26  O   UNL     1      -4.276   3.568  -4.368  1.00  0.00    -0.506 OA
ATOM     27  H   UNL     1      -4.627   4.428  -4.665  1.00  0.00     0.293 HD
ENDBRANCH  22  26
ENDBRANCH  18  19
ENDBRANCH  17  18
BRANCH  17  28
ATOM     28  O   UNL     1      -3.979  -2.129  -9.095  1.00  0.00    -0.383 OA
ATOM     29  H   UNL     1      -3.084  -1.739  -9.217  1.00  0.00     0.211 HD
ENDBRANCH  17  28
ENDBRANCH  14  17
ENDBRANCH  12  13
BRANCH  12  30
ATOM     30  C   UNL     1      -9.154   0.633  -9.918  1.00  0.00     0.018 C 
ATOM     31  C   UNL     1      -9.216   1.049 -11.396  1.00  0.00     0.010 C 
BRANCH  30  32
ATOM     32  C   UNL     1      -8.380   1.694  -9.099  1.00  0.00     0.002 C 
ATOM     33  C   UNL     1      -7.706   2.786  -9.920  1.00  0.00     0.004 C 
ENDBRANCH  30  32
ENDBRANCH  12  30
ENDBRANCH  10  12
ENDBRANCH   1  10
BRANCH   5  34
ATOM     34  C   UNL     1     -10.156  -3.980  -6.675  1.00  0.00     0.242 C 
ATOM     35  O   UNL     1     -11.319  -3.802  -7.035  1.00  0.00    -0.273 OA
ATOM     36  N   UNL     1      -9.753  -5.118  -6.013  1.00  0.00    -0.354 N 
ATOM     37  H   UNL     1      -8.806  -5.157  -5.633  1.00  0.00     0.163 HD
BRANCH  36  38
ATOM     38  C   UNL     1     -10.589  -6.298  -5.924  1.00  0.00     0.116 C 
BRANCH  38  39
ATOM     39  C   UNL     1     -10.337  -7.013  -4.598  1.00  0.00     0.023 C 
BRANCH  39  40
ATOM     40  C   UNL     1     -10.204  -6.043  -3.429  1.00  0.00     0.026 C 
BRANCH  40  41
ATOM     41  C   UNL     1     -11.575  -5.717  -2.836  1.00  0.00     0.146 C 
BRANCH  41  42
ATOM     42  N   UNL     1     -11.588  -4.344  -2.350  1.00  0.00    -0.254 NA
ATOM     43  C   UNL     1     -12.099  -3.421  -3.075  1.00  0.00     0.185 C 
ATOM     44  N   UNL     1     -12.670  -3.492  -4.291  1.00  0.00    -0.370 N 
ATOM     45  N   UNL     1     -12.097  -2.160  -2.610  1.00  0.00    -0.370 N 
ATOM     46  H   UNL     1     -12.806  -2.662  -4.843  1.00  0.00     0.159 HD
ATOM     47  H   UNL     1     -12.767  -4.374  -4.784  1.00  0.00     0.159 HD
ATOM     48  H   UNL     1     -11.693  -2.021  -1.695  1.00  0.00     0.159 HD
ATOM     49  H   UNL     1     -12.677  -1.437  -2.998  1.00  0.00     0.159 HD
ENDBRANCH  41  42
ENDBRANCH  40  41
ENDBRANCH  39  40
ENDBRANCH  38  39
ENDBRANCH  36  38
ENDBRANCH   5  34
BRANCH   8  50
ATOM     50  O   UNL     1     -12.534  -0.337  -4.774  1.00  0.00    -0.245 OA
BRANCH  50  51
ATOM     51  S   UNL     1     -14.097  -0.451  -5.210  1.00  0.00     0.397 S 
ATOM     52  O   UNL     1     -14.213  -1.514  -6.183  1.00  0.00    -0.169 OA
ATOM     53  O   UNL     1     -14.628   0.872  -5.464  1.00  0.00    -0.169 OA
BRANCH  51  54
ATOM     54  O   UNL     1     -14.781  -1.010  -3.867  1.00  0.00    -0.264 OA
ATOM     55  H   UNL     1     -14.279  -1.802  -3.584  1.00  0.00     0.236 HD
ENDBRANCH  51  54
ENDBRANCH  50  51
ENDBRANCH   8  50
TORSDOF 19
ENDMDL
MODEL 19
REMARK VINA RESULT:    -6.673     12.534     16.323
REMARK INTER + INTRA:         -17.109
REMARK INTER:                 -13.316
REMARK INTRA:                  -3.793
REMARK UNBOUND:                -3.609
REMARK SMILES CC[C@@H](C)[C@@H](NC(=O)[C@@H](O)Cc1ccc(O)c(Cl)c1)C(=O)N1[C@H](C(=O)NCCCCN=C(N)N)C[C@H]2CC[C@H](OS(=O)(=O)O)C[C@@H]21
REMARK SMILES IDX 22 1 36 2 46 3 35 4 23 5 45 6 37 7 39 8 38 9 20 10 21 11
REMARK SMILES IDX 5 12 6 13 7 14 8 15 9 17 11 18 12 19 17 20 19 21 15 22 14 23
REMARK SMILES IDX 13 24 18 25 16 26 10 28 3 30 4 31 2 32 1 33 24 34 25 35
REMARK SMILES IDX 26 36 27 38 28 39 29 40 30 41 31 42 32 43 33 44 34 45 40 50
REMARK SMILES IDX 41 51 42 52 43 53 44 54
REMARK H PARENT 6 16 16 27 10 29 26 37 33 46 33 47 34 48 34 49 44 55
ROOT
ATOM      1  N   UNL     1     -11.273  -6.587   2.273  1.00  0.00    -0.326 N 
ATOM      2  C   UNL     1      -9.355  -5.585   1.345  1.00  0.00     0.014 C 
ATOM      3  C   UNL     1     -10.015  -6.941   1.609  1.00  0.00     0.091 C 
ATOM      4  C   UNL     1      -9.780  -4.765   2.554  1.00  0.00     0.041 C 
ATOM      5  C   UNL     1     -11.269  -5.148   2.633  1.00  0.00     0.175 C 
ATOM      6  C   UNL     1     -10.083  -7.710   0.291  1.00  0.00     0.059 C 
ATOM      7  C   UNL     1      -7.879  -5.750   1.040  1.00  0.00     0.008 C 
ATOM      8  C   UNL     1      -8.915  -7.399  -0.670  1.00  0.00     0.143 C 
ATOM      9  C   UNL     1      -7.651  -6.939   0.083  1.00  0.00     0.034 C 
ENDROOT
BRANCH   1  10
ATOM     10  C   UNL     1     -12.277  -7.403   2.765  1.00  0.00     0.246 C 
ATOM     11  O   UNL     1     -13.190  -7.754   2.010  1.00  0.00    -0.272 OA
BRANCH  10  12
ATOM     12  C   UNL     1     -12.213  -7.895   4.240  1.00  0.00     0.174 C 
BRANCH  12  13
ATOM     13  N   UNL     1     -13.291  -7.285   5.016  1.00  0.00    -0.342 N 
ATOM     14  C   UNL     1     -14.420  -7.941   5.454  1.00  0.00     0.249 C 
ATOM     15  O   UNL     1     -14.634  -9.131   5.261  1.00  0.00    -0.272 OA
ATOM     16  H   UNL     1     -13.329  -6.273   5.118  1.00  0.00     0.164 HD
BRANCH  14  17
ATOM     17  C   UNL     1     -15.381  -7.019   6.234  1.00  0.00     0.207 C 
BRANCH  17  18
ATOM     18  C   UNL     1     -14.675  -5.716   6.623  1.00  0.00     0.077 C 
BRANCH  18  19
ATOM     19  C   UNL     1     -15.396  -4.502   6.081  1.00  0.00    -0.043 A 
ATOM     20  C   UNL     1     -15.418  -2.518   4.686  1.00  0.00     0.083 A 
ATOM     21  C   UNL     1     -14.769  -3.664   5.146  1.00  0.00     0.028 A 
ATOM     22  C   UNL     1     -16.694  -2.202   5.156  1.00  0.00     0.134 A 
ATOM     23  C   UNL     1     -17.326  -3.023   6.082  1.00  0.00     0.048 A 
ATOM     24  C   UNL     1     -16.678  -4.170   6.546  1.00  0.00     0.008 A 
ATOM     25  Cl  UNL     1     -14.631  -1.500   3.537  1.00  0.00    -0.080 Cl
BRANCH  22  26
ATOM     26  O   UNL     1     -17.365  -1.083   4.742  1.00  0.00    -0.506 OA
ATOM     27  H   UNL     1     -17.309  -0.437   5.470  1.00  0.00     0.293 HD
ENDBRANCH  22  26
ENDBRANCH  18  19
ENDBRANCH  17  18
BRANCH  17  28
ATOM     28  O   UNL     1     -15.872  -7.666   7.418  1.00  0.00    -0.383 OA
ATOM     29  H   UNL     1     -15.781  -8.633   7.257  1.00  0.00     0.211 HD
ENDBRANCH  17  28
ENDBRANCH  14  17
ENDBRANCH  12  13
BRANCH  12  30
ATOM     30  C   UNL     1     -10.819  -7.674   4.886  1.00  0.00     0.018 C 
ATOM     31  C   UNL     1     -10.096  -9.013   5.097  1.00  0.00     0.010 C 
BRANCH  30  32
ATOM     32  C   UNL     1     -10.869  -6.881   6.215  1.00  0.00     0.002 C 
ATOM     33  C   UNL     1     -10.105  -5.563   6.216  1.00  0.00     0.004 C 
ENDBRANCH  30  32
ENDBRANCH  12  30
ENDBRANCH  10  12
ENDBRANCH   1  10
BRANCH   5  34
ATOM     34  C   UNL     1     -12.124  -4.328   1.631  1.00  0.00     0.242 C 
ATOM     35  O   UNL     1     -13.072  -4.820   1.018  1.00  0.00    -0.273 OA
ATOM     36  N   UNL     1     -11.713  -3.028   1.436  1.00  0.00    -0.354 N 
ATOM     37  H   UNL     1     -10.850  -2.714   1.881  1.00  0.00     0.163 HD
BRANCH  36  38
ATOM     38  C   UNL     1     -12.513  -2.065   0.709  1.00  0.00     0.116 C 
BRANCH  38  39
ATOM     39  C   UNL     1     -11.834  -1.720  -0.614  1.00  0.00     0.023 C 
BRANCH  39  40
ATOM     40  C   UNL     1     -10.686  -2.668  -0.944  1.00  0.00     0.026 C 
BRANCH  40  41
ATOM     41  C   UNL     1     -10.659  -2.987  -2.439  1.00  0.00     0.146 C 
BRANCH  41  42
ATOM     42  N   UNL     1     -11.901  -2.545  -3.059  1.00  0.00    -0.254 NA
ATOM     43  C   UNL     1     -12.285  -3.078  -4.158  1.00  0.00     0.185 C 
ATOM     44  N   UNL     1     -11.711  -4.044  -4.898  1.00  0.00    -0.370 N 
ATOM     45  N   UNL     1     -13.431  -2.654  -4.716  1.00  0.00    -0.370 N 
ATOM     46  H   UNL     1     -11.990  -4.193  -5.853  1.00  0.00     0.159 HD
ATOM     47  H   UNL     1     -10.843  -4.488  -4.614  1.00  0.00     0.159 HD
ATOM     48  H   UNL     1     -13.932  -1.932  -4.216  1.00  0.00     0.159 HD
ATOM     49  H   UNL     1     -13.913  -3.171  -5.429  1.00  0.00     0.159 HD
ENDBRANCH  41  42
ENDBRANCH  40  41
ENDBRANCH  39  40
ENDBRANCH  38  39
ENDBRANCH  36  38
ENDBRANCH   5  34
BRANCH   8  50
ATOM     50  O   UNL     1      -9.296  -6.373  -1.588  1.00  0.00    -0.245 OA
BRANCH  50  51
ATOM     51  S   UNL     1      -9.990  -6.777  -3.002  1.00  0.00     0.397 S 
ATOM     52  O   UNL     1     -11.376  -6.371  -2.951  1.00  0.00    -0.169 OA
ATOM     53  O   UNL     1      -9.607  -8.126  -3.364  1.00  0.00    -0.169 OA
BRANCH  51  54
ATOM     54  O   UNL     1      -9.274  -5.767  -4.028  1.00  0.00    -0.264 OA
ATOM     55  H   UNL     1      -9.103  -4.929  -3.551  1.00  0.00     0.236 HD
ENDBRANCH  51  54
ENDBRANCH  50  51
ENDBRANCH   8  50
TORSDOF 19
ENDMDL
MODEL 20
REMARK VINA RESULT:    -6.629      4.760      8.070
REMARK INTER + INTRA:         -17.020
REMARK INTER:                 -13.303
REMARK INTRA:                  -3.717
REMARK UNBOUND:                -3.609
REMARK SMILES CC[C@@H](C)[C@@H](NC(=O)[C@@H](O)Cc1ccc(O)c(Cl)c1)C(=O)N1[C@H](C(=O)NCCCCN=C(N)N)C[C@H]2CC[C@H](OS(=O)(=O)O)C[C@@H]21
REMARK SMILES IDX 22 1 36 2 46 3 35 4 23 5 45 6 37 7 39 8 38 9 20 10 21 11
REMARK SMILES IDX 5 12 6 13 7 14 8 15 9 17 11 18 12 19 17 20 19 21 15 22 14 23
REMARK SMILES IDX 13 24 18 25 16 26 10 28 3 30 4 31 2 32 1 33 24 34 25 35
REMARK SMILES IDX 26 36 27 38 28 39 29 40 30 41 31 42 32 43 33 44 34 45 40 50
REMARK SMILES IDX 41 51 42 52 43 53 44 54
REMARK H PARENT 6 16 16 27 10 29 26 37 33 46 33 47 34 48 34 49 44 55
ROOT
ATOM      1  N   UNL     1      -8.635  -1.473  -7.241  1.00  0.00    -0.326 N 
ATOM      2  C   UNL     1     -10.394  -3.037  -7.178  1.00  0.00     0.014 C 
ATOM      3  C   UNL     1      -8.900  -2.870  -6.886  1.00  0.00     0.091 C 
ATOM      4  C   UNL     1     -10.600  -2.142  -8.390  1.00  0.00     0.041 C 
ATOM      5  C   UNL     1      -9.806  -0.899  -7.949  1.00  0.00     0.175 C 
ATOM      6  C   UNL     1      -8.636  -3.315  -5.448  1.00  0.00     0.059 C 
ATOM      7  C   UNL     1     -10.769  -4.503  -7.264  1.00  0.00     0.008 C 
ATOM      8  C   UNL     1      -9.572  -4.444  -4.965  1.00  0.00     0.143 C 
ATOM      9  C   UNL     1     -10.091  -5.306  -6.134  1.00  0.00     0.034 C 
ENDROOT
BRANCH   1  10
ATOM     10  C   UNL     1      -7.451  -0.757  -7.204  1.00  0.00     0.246 C 
ATOM     11  O   UNL     1      -6.919  -0.532  -6.111  1.00  0.00    -0.272 OA
BRANCH  10  12
ATOM     12  C   UNL     1      -6.795  -0.288  -8.535  1.00  0.00     0.174 C 
BRANCH  12  13
ATOM     13  N   UNL     1      -5.350  -0.153  -8.359  1.00  0.00    -0.342 N 
ATOM     14  C   UNL     1      -4.404  -0.484  -9.303  1.00  0.00     0.249 C 
ATOM     15  O   UNL     1      -4.675  -0.907 -10.420  1.00  0.00    -0.272 OA
ATOM     16  H   UNL     1      -4.971   0.036  -7.434  1.00  0.00     0.164 HD
BRANCH  14  17
ATOM     17  C   UNL     1      -2.961  -0.243  -8.810  1.00  0.00     0.207 C 
BRANCH  17  18
ATOM     18  C   UNL     1      -2.503   1.175  -9.167  1.00  0.00     0.077 C 
BRANCH  18  19
ATOM     19  C   UNL     1      -2.089   1.957  -7.941  1.00  0.00    -0.043 A 
ATOM     20  C   UNL     1      -2.674   3.296  -6.005  1.00  0.00     0.083 A 
ATOM     21  C   UNL     1      -3.060   2.533  -7.107  1.00  0.00     0.028 A 
ATOM     22  C   UNL     1      -1.320   3.488  -5.729  1.00  0.00     0.134 A 
ATOM     23  C   UNL     1      -0.348   2.923  -6.546  1.00  0.00     0.048 A 
ATOM     24  C   UNL     1      -0.731   2.161  -7.651  1.00  0.00     0.008 A 
ATOM     25  Cl  UNL     1      -3.882   3.996  -4.992  1.00  0.00    -0.080 Cl
BRANCH  22  26
ATOM     26  O   UNL     1      -0.893   4.237  -4.665  1.00  0.00    -0.506 OA
ATOM     27  H   UNL     1      -1.366   5.088  -4.713  1.00  0.00     0.293 HD
ENDBRANCH  22  26
ENDBRANCH  18  19
ENDBRANCH  17  18
BRANCH  17  28
ATOM     28  O   UNL     1      -2.053  -1.196  -9.385  1.00  0.00    -0.383 OA
ATOM     29  H   UNL     1      -2.495  -2.072  -9.311  1.00  0.00     0.211 HD
ENDBRANCH  17  28
ENDBRANCH  14  17
ENDBRANCH  12  13
BRANCH  12  30
ATOM     30  C   UNL     1      -7.446   1.002  -9.103  1.00  0.00     0.018 C 
ATOM     31  C   UNL     1      -7.777   0.836 -10.594  1.00  0.00     0.010 C 
BRANCH  30  32
ATOM     32  C   UNL     1      -6.594   2.276  -8.886  1.00  0.00     0.002 C 
ATOM     33  C   UNL     1      -5.984   2.874 -10.147  1.00  0.00     0.004 C 
ENDBRANCH  30  32
ENDBRANCH  12  30
ENDBRANCH  10  12
ENDBRANCH   1  10
BRANCH   5  34
ATOM     34  C   UNL     1     -10.637   0.002  -6.997  1.00  0.00     0.242 C 
ATOM     35  O   UNL     1     -11.855   0.137  -7.115  1.00  0.00    -0.273 OA
ATOM     36  N   UNL     1      -9.906   0.681  -6.047  1.00  0.00    -0.354 N 
ATOM     37  H   UNL     1      -8.888   0.621  -6.075  1.00  0.00     0.163 HD
BRANCH  36  38
ATOM     38  C   UNL     1     -10.533   1.389  -4.950  1.00  0.00     0.116 C 
BRANCH  38  39
ATOM     39  C   UNL     1     -10.048   0.820  -3.620  1.00  0.00     0.023 C 
BRANCH  39  40
ATOM     40  C   UNL     1     -10.678  -0.532  -3.300  1.00  0.00     0.026 C 
BRANCH  40  41
ATOM     41  C   UNL     1     -12.138  -0.363  -2.882  1.00  0.00     0.146 C 
BRANCH  41  42
ATOM     42  N   UNL     1     -12.937  -1.448  -3.436  1.00  0.00    -0.254 NA
ATOM     43  C   UNL     1     -13.728  -1.215  -4.416  1.00  0.00     0.185 C 
ATOM     44  N   UNL     1     -13.974  -0.069  -5.076  1.00  0.00    -0.370 N 
ATOM     45  N   UNL     1     -14.459  -2.228  -4.910  1.00  0.00    -0.370 N 
ATOM     46  H   UNL     1     -14.790   0.024  -5.656  1.00  0.00     0.159 HD
ATOM     47  H   UNL     1     -13.495   0.795  -4.841  1.00  0.00     0.159 HD
ATOM     48  H   UNL     1     -14.327  -3.131  -4.474  1.00  0.00     0.159 HD
ATOM     49  H   UNL     1     -14.911  -2.186  -5.806  1.00  0.00     0.159 HD
ENDBRANCH  41  42
ENDBRANCH  40  41
ENDBRANCH  39  40
ENDBRANCH  38  39
ENDBRANCH  36  38
ENDBRANCH   5  34
BRANCH   8  50
ATOM     50  O   UNL     1     -10.694  -3.890  -4.278  1.00  0.00    -0.245 OA
BRANCH  50  51
ATOM     51  S   UNL     1     -11.743  -4.879  -3.526  1.00  0.00     0.397 S 
ATOM     52  O   UNL     1     -11.034  -6.082  -3.154  1.00  0.00    -0.169 OA
ATOM     53  O   UNL     1     -12.984  -4.928  -4.270  1.00  0.00    -0.169 OA
BRANCH  51  54
ATOM     54  O   UNL     1     -12.021  -4.092  -2.151  1.00  0.00    -0.264 OA
ATOM     55  H   UNL     1     -12.943  -4.278  -1.881  1.00  0.00     0.236 HD
ENDBRANCH  51  54
ENDBRANCH  50  51
ENDBRANCH   8  50
TORSDOF 19
ENDMDL
MODEL 21
REMARK VINA RESULT:    -6.614      2.046      2.695
REMARK INTER + INTRA:         -16.989
REMARK INTER:                 -11.701
REMARK INTRA:                  -5.288
REMARK UNBOUND:                -3.609
REMARK SMILES CC[C@@H](C)[C@@H](NC(=O)[C@@H](O)Cc1ccc(O)c(Cl)c1)C(=O)N1[C@H](C(=O)NCCCCN=C(N)N)C[C@H]2CC[C@H](OS(=O)(=O)O)C[C@@H]21
REMARK SMILES IDX 22 1 36 2 46 3 35 4 23 5 45 6 37 7 39 8 38 9 20 10 21 11
REMARK SMILES IDX 5 12 6 13 7 14 8 15 9 17 11 18 12 19 17 20 19 21 15 22 14 23
REMARK SMILES IDX 13 24 18 25 16 26 10 28 3 30 4 31 2 32 1 33 24 34 25 35
REMARK SMILES IDX 26 36 27 38 28 39 29 40 30 41 31 42 32 43 33 44 34 45 40 50
REMARK SMILES IDX 41 51 42 52 43 53 44 54
REMARK H PARENT 6 16 16 27 10 29 26 37 33 46 33 47 34 48 34 49 44 55
ROOT
ATOM      1  N   UNL     1      -6.911   1.936  -7.440  1.00  0.00    -0.326 N 
ATOM      2  C   UNL     1      -7.382   2.613  -9.645  1.00  0.00     0.014 C 
ATOM      3  C   UNL     1      -6.282   2.609  -8.579  1.00  0.00     0.091 C 
ATOM      4  C   UNL     1      -8.648   2.779  -8.819  1.00  0.00     0.041 C 
ATOM      5  C   UNL     1      -8.366   1.777  -7.684  1.00  0.00     0.175 C 
ATOM      6  C   UNL     1      -5.025   1.987  -9.184  1.00  0.00     0.059 C 
ATOM      7  C   UNL     1      -7.072   3.614 -10.740  1.00  0.00     0.008 C 
ATOM      8  C   UNL     1      -4.871   2.245 -10.699  1.00  0.00     0.143 C 
ATOM      9  C   UNL     1      -5.584   3.539 -11.141  1.00  0.00     0.034 C 
ENDROOT
BRANCH   1  10
ATOM     10  C   UNL     1      -6.404   1.660  -6.181  1.00  0.00     0.246 C 
ATOM     11  O   UNL     1      -6.340   0.485  -5.804  1.00  0.00    -0.272 OA
BRANCH  10  12
ATOM     12  C   UNL     1      -5.888   2.826  -5.289  1.00  0.00     0.174 C 
BRANCH  12  13
ATOM     13  N   UNL     1      -4.454   3.020  -5.504  1.00  0.00    -0.342 N 
ATOM     14  C   UNL     1      -3.854   4.227  -5.784  1.00  0.00     0.249 C 
ATOM     15  O   UNL     1      -4.459   5.289  -5.858  1.00  0.00    -0.272 OA
ATOM     16  H   UNL     1      -3.849   2.212  -5.629  1.00  0.00     0.164 HD
BRANCH  14  17
ATOM     17  C   UNL     1      -2.327   4.103  -5.975  1.00  0.00     0.207 C 
BRANCH  17  18
ATOM     18  C   UNL     1      -1.932   2.639  -6.196  1.00  0.00     0.077 C 
BRANCH  18  19
ATOM     19  C   UNL     1      -1.690   2.337  -7.658  1.00  0.00    -0.043 A 
ATOM     20  C   UNL     1      -1.312   3.101  -9.928  1.00  0.00     0.083 A 
ATOM     21  C   UNL     1      -1.486   3.381  -8.573  1.00  0.00     0.028 A 
ATOM     22  C   UNL     1      -1.343   1.781 -10.378  1.00  0.00     0.134 A 
ATOM     23  C   UNL     1      -1.544   0.737  -9.483  1.00  0.00     0.048 A 
ATOM     24  C   UNL     1      -1.720   1.014  -8.126  1.00  0.00     0.008 A 
ATOM     25  Cl  UNL     1      -1.062   4.398 -11.037  1.00  0.00    -0.080 Cl
BRANCH  22  26
ATOM     26  O   UNL     1      -1.188   1.458 -11.699  1.00  0.00    -0.506 OA
ATOM     27  H   UNL     1      -0.513   0.755 -11.739  1.00  0.00     0.293 HD
ENDBRANCH  22  26
ENDBRANCH  18  19
ENDBRANCH  17  18
BRANCH  17  28
ATOM     28  O   UNL     1      -1.619   4.621  -4.837  1.00  0.00    -0.383 OA
ATOM     29  H   UNL     1      -2.308   4.932  -4.207  1.00  0.00     0.211 HD
ENDBRANCH  17  28
ENDBRANCH  14  17
ENDBRANCH  12  13
BRANCH  12  30
ATOM     30  C   UNL     1      -6.242   2.636  -3.790  1.00  0.00     0.018 C 
ATOM     31  C   UNL     1      -7.751   2.808  -3.559  1.00  0.00     0.010 C 
BRANCH  30  32
ATOM     32  C   UNL     1      -5.449   3.569  -2.842  1.00  0.00     0.002 C 
ATOM     33  C   UNL     1      -6.018   4.973  -2.684  1.00  0.00     0.004 C 
ENDBRANCH  30  32
ENDBRANCH  12  30
ENDBRANCH  10  12
ENDBRANCH   1  10
BRANCH   5  34
ATOM     34  C   UNL     1      -8.696   0.321  -8.111  1.00  0.00     0.242 C 
ATOM     35  O   UNL     1      -8.709  -0.031  -9.290  1.00  0.00    -0.273 OA
ATOM     36  N   UNL     1      -9.026  -0.531  -7.081  1.00  0.00    -0.354 N 
ATOM     37  H   UNL     1      -9.115  -0.150  -6.138  1.00  0.00     0.163 HD
BRANCH  36  38
ATOM     38  C   UNL     1      -9.150  -1.961  -7.270  1.00  0.00     0.116 C 
BRANCH  38  39
ATOM     39  C   UNL     1      -7.806  -2.637  -7.006  1.00  0.00     0.023 C 
BRANCH  39  40
ATOM     40  C   UNL     1      -7.697  -3.999  -7.683  1.00  0.00     0.026 C 
BRANCH  40  41
ATOM     41  C   UNL     1      -6.645  -3.971  -8.793  1.00  0.00     0.146 C 
BRANCH  41  42
ATOM     42  N   UNL     1      -7.211  -3.366  -9.992  1.00  0.00    -0.254 NA
ATOM     43  C   UNL     1      -6.796  -2.219 -10.379  1.00  0.00     0.185 C 
ATOM     44  N   UNL     1      -5.863  -1.410  -9.843  1.00  0.00    -0.370 N 
ATOM     45  N   UNL     1      -7.333  -1.677 -11.484  1.00  0.00    -0.370 N 
ATOM     46  H   UNL     1      -5.812  -0.441 -10.107  1.00  0.00     0.159 HD
ATOM     47  H   UNL     1      -5.346  -1.672  -9.009  1.00  0.00     0.159 HD
ATOM     48  H   UNL     1      -8.039  -2.226 -11.955  1.00  0.00     0.159 HD
ATOM     49  H   UNL     1      -6.907  -0.913 -11.977  1.00  0.00     0.159 HD
ENDBRANCH  41  42
ENDBRANCH  40  41
ENDBRANCH  39  40
ENDBRANCH  38  39
ENDBRANCH  36  38
ENDBRANCH   5  34
BRANCH   8  50
ATOM     50  O   UNL     1      -5.414   1.152 -11.440  1.00  0.00    -0.245 OA
BRANCH  50  51
ATOM     51  S   UNL     1      -4.489   0.388 -12.538  1.00  0.00     0.397 S 
ATOM     52  O   UNL     1      -3.706  -0.610 -11.844  1.00  0.00    -0.169 OA
ATOM     53  O   UNL     1      -3.873   1.361 -13.416  1.00  0.00    -0.169 OA
BRANCH  51  54
ATOM     54  O   UNL     1      -5.583  -0.427 -13.390  1.00  0.00    -0.264 OA
ATOM     55  H   UNL     1      -6.379   0.136 -13.469  1.00  0.00     0.236 HD
ENDBRANCH  51  54
ENDBRANCH  50  51
ENDBRANCH   8  50
TORSDOF 19
ENDMDL
MODEL 22
REMARK VINA RESULT:    -6.585      3.882      7.043
REMARK INTER + INTRA:         -16.930
REMARK INTER:                 -13.731
REMARK INTRA:                  -3.199
REMARK UNBOUND:                -3.609
REMARK SMILES CC[C@@H](C)[C@@H](NC(=O)[C@@H](O)Cc1ccc(O)c(Cl)c1)C(=O)N1[C@H](C(=O)NCCCCN=C(N)N)C[C@H]2CC[C@H](OS(=O)(=O)O)C[C@@H]21
REMARK SMILES IDX 22 1 36 2 46 3 35 4 23 5 45 6 37 7 39 8 38 9 20 10 21 11
REMARK SMILES IDX 5 12 6 13 7 14 8 15 9 17 11 18 12 19 17 20 19 21 15 22 14 23
REMARK SMILES IDX 13 24 18 25 16 26 10 28 3 30 4 31 2 32 1 33 24 34 25 35
REMARK SMILES IDX 26 36 27 38 28 39 29 40 30 41 31 42 32 43 33 44 34 45 40 50
REMARK SMILES IDX 41 51 42 52 43 53 44 54
REMARK H PARENT 6 16 16 27 10 29 26 37 33 46 33 47 34 48 34 49 44 55
ROOT
ATOM      1  N   UNL     1      -5.064   0.830  -8.323  1.00  0.00    -0.326 N 
ATOM      2  C   UNL     1      -6.645   0.095  -9.904  1.00  0.00     0.014 C 
ATOM      3  C   UNL     1      -5.570  -0.402  -8.933  1.00  0.00     0.091 C 
ATOM      4  C   UNL     1      -6.074   1.419 -10.387  1.00  0.00     0.041 C 
ATOM      5  C   UNL     1      -5.591   2.011  -9.050  1.00  0.00     0.175 C 
ATOM      6  C   UNL     1      -6.193  -1.459  -8.023  1.00  0.00     0.059 C 
ATOM      7  C   UNL     1      -6.998  -0.976 -10.917  1.00  0.00     0.008 C 
ATOM      8  C   UNL     1      -7.308  -2.285  -8.701  1.00  0.00     0.143 C 
ATOM      9  C   UNL     1      -7.129  -2.352 -10.231  1.00  0.00     0.034 C 
ENDROOT
BRANCH   1  10
ATOM     10  C   UNL     1      -4.065   1.009  -7.381  1.00  0.00     0.246 C 
ATOM     11  O   UNL     1      -4.362   1.000  -6.181  1.00  0.00    -0.272 OA
BRANCH  10  12
ATOM     12  C   UNL     1      -2.590   1.173  -7.848  1.00  0.00     0.174 C 
BRANCH  12  13
ATOM     13  N   UNL     1      -2.212   2.586  -7.819  1.00  0.00    -0.342 N 
ATOM     14  C   UNL     1      -1.465   3.184  -6.830  1.00  0.00     0.249 C 
ATOM     15  O   UNL     1      -1.005   2.585  -5.866  1.00  0.00    -0.272 OA
ATOM     16  H   UNL     1      -2.650   3.237  -8.466  1.00  0.00     0.164 HD
BRANCH  14  17
ATOM     17  C   UNL     1      -1.250   4.693  -7.076  1.00  0.00     0.207 C 
BRANCH  17  18
ATOM     18  C   UNL     1       0.217   4.976  -7.418  1.00  0.00     0.077 C 
BRANCH  18  19
ATOM     19  C   UNL     1       0.537   4.623  -8.853  1.00  0.00    -0.043 A 
ATOM     20  C   UNL     1       0.122   4.891 -11.228  1.00  0.00     0.083 A 
ATOM     21  C   UNL     1      -0.141   5.255  -9.906  1.00  0.00     0.028 A 
ATOM     22  C   UNL     1       1.060   3.896 -11.504  1.00  0.00     0.134 A 
ATOM     23  C   UNL     1       1.739   3.262 -10.471  1.00  0.00     0.048 A 
ATOM     24  C   UNL     1       1.477   3.622  -9.147  1.00  0.00     0.008 A 
ATOM     25  Cl  UNL     1      -0.722   5.679 -12.509  1.00  0.00    -0.080 Cl
BRANCH  22  26
ATOM     26  O   UNL     1       1.344   3.499 -12.783  1.00  0.00    -0.506 OA
ATOM     27  H   UNL     1       1.667   2.580 -12.726  1.00  0.00     0.293 HD
ENDBRANCH  22  26
ENDBRANCH  18  19
ENDBRANCH  17  18
BRANCH  17  28
ATOM     28  O   UNL     1      -1.628   5.464  -5.924  1.00  0.00    -0.383 OA
ATOM     29  H   UNL     1      -1.504   4.872  -5.148  1.00  0.00     0.211 HD
ENDBRANCH  17  28
ENDBRANCH  14  17
ENDBRANCH  12  13
BRANCH  12  30
ATOM     30  C   UNL     1      -2.321   0.516  -9.229  1.00  0.00     0.018 C 
ATOM     31  C   UNL     1      -1.681  -0.871  -9.058  1.00  0.00     0.010 C 
BRANCH  30  32
ATOM     32  C   UNL     1      -1.459   1.387 -10.174  1.00  0.00     0.002 C 
ATOM     33  C   UNL     1      -2.214   2.047 -11.321  1.00  0.00     0.004 C 
ENDBRANCH  30  32
ENDBRANCH  12  30
ENDBRANCH  10  12
ENDBRANCH   1  10
BRANCH   5  34
ATOM     34  C   UNL     1      -6.755   2.668  -8.262  1.00  0.00     0.242 C 
ATOM     35  O   UNL     1      -7.191   2.192  -7.214  1.00  0.00    -0.273 OA
ATOM     36  N   UNL     1      -7.300   3.789  -8.847  1.00  0.00    -0.354 N 
ATOM     37  H   UNL     1      -6.976   4.066  -9.775  1.00  0.00     0.163 HD
BRANCH  36  38
ATOM     38  C   UNL     1      -8.239   4.646  -8.153  1.00  0.00     0.116 C 
BRANCH  38  39
ATOM     39  C   UNL     1      -9.139   5.354  -9.162  1.00  0.00     0.023 C 
BRANCH  39  40
ATOM     40  C   UNL     1      -8.447   6.538  -9.829  1.00  0.00     0.026 C 
BRANCH  40  41
ATOM     41  C   UNL     1      -9.257   7.820  -9.633  1.00  0.00     0.146 C 
BRANCH  41  42
ATOM     42  N   UNL     1      -9.286   8.173  -8.220  1.00  0.00    -0.254 NA
ATOM     43  C   UNL     1      -9.593   9.366  -7.871  1.00  0.00     0.185 C 
ATOM     44  N   UNL     1      -9.917  10.432  -8.626  1.00  0.00    -0.370 N 
ATOM     45  N   UNL     1      -9.610   9.672  -6.563  1.00  0.00    -0.370 N 
ATOM     46  H   UNL     1      -9.895  11.360  -8.239  1.00  0.00     0.159 HD
ATOM     47  H   UNL     1      -9.966  10.373  -9.638  1.00  0.00     0.159 HD
ATOM     48  H   UNL     1      -9.385   8.922  -5.924  1.00  0.00     0.159 HD
ATOM     49  H   UNL     1     -10.060  10.495  -6.203  1.00  0.00     0.159 HD
ENDBRANCH  41  42
ENDBRANCH  40  41
ENDBRANCH  39  40
ENDBRANCH  38  39
ENDBRANCH  36  38
ENDBRANCH   5  34
BRANCH   8  50
ATOM     50  O   UNL     1      -8.584  -1.711  -8.418  1.00  0.00    -0.245 OA
BRANCH  50  51
ATOM     51  S   UNL     1      -9.827  -2.677  -8.008  1.00  0.00     0.397 S 
ATOM     52  O   UNL     1     -10.617  -2.915  -9.195  1.00  0.00    -0.169 OA
ATOM     53  O   UNL     1     -10.426  -2.203  -6.778  1.00  0.00    -0.169 OA
BRANCH  51  54
ATOM     54  O   UNL     1      -9.081  -4.067  -7.693  1.00  0.00    -0.264 OA
ATOM     55  H   UNL     1      -9.145  -4.228  -6.730  1.00  0.00     0.236 HD
ENDBRANCH  51  54
ENDBRANCH  50  51
ENDBRANCH   8  50
TORSDOF 19
ENDMDL
MODEL 23
REMARK VINA RESULT:    -6.565     11.327     15.048
REMARK INTER + INTRA:         -16.889
REMARK INTER:                 -13.549
REMARK INTRA:                  -3.340
REMARK UNBOUND:                -3.609
REMARK SMILES CC[C@@H](C)[C@@H](NC(=O)[C@@H](O)Cc1ccc(O)c(Cl)c1)C(=O)N1[C@H](C(=O)NCCCCN=C(N)N)C[C@H]2CC[C@H](OS(=O)(=O)O)C[C@@H]21
REMARK SMILES IDX 22 1 36 2 46 3 35 4 23 5 45 6 37 7 39 8 38 9 20 10 21 11
REMARK SMILES IDX 5 12 6 13 7 14 8 15 9 17 11 18 12 19 17 20 19 21 15 22 14 23
REMARK SMILES IDX 13 24 18 25 16 26 10 28 3 30 4 31 2 32 1 33 24 34 25 35
REMARK SMILES IDX 26 36 27 38 28 39 29 40 30 41 31 42 32 43 33 44 34 45 40 50
REMARK SMILES IDX 41 51 42 52 43 53 44 54
REMARK H PARENT 6 16 16 27 10 29 26 37 33 46 33 47 34 48 34 49 44 55
ROOT
ATOM      1  N   UNL     1     -11.725  -4.396  -1.330  1.00  0.00    -0.326 N 
ATOM      2  C   UNL     1     -10.828  -2.462  -2.329  1.00  0.00     0.014 C 
ATOM      3  C   UNL     1     -11.232  -3.910  -2.622  1.00  0.00     0.091 C 
ATOM      4  C   UNL     1     -10.308  -2.543  -0.901  1.00  0.00     0.041 C 
ATOM      5  C   UNL     1     -11.402  -3.418  -0.262  1.00  0.00     0.175 C 
ATOM      6  C   UNL     1     -12.192  -3.911  -3.811  1.00  0.00     0.059 C 
ATOM      7  C   UNL     1      -9.924  -1.920  -3.419  1.00  0.00     0.008 C 
ATOM      8  C   UNL     1     -11.922  -2.781  -4.828  1.00  0.00     0.143 C 
ATOM      9  C   UNL     1     -10.449  -2.327  -4.812  1.00  0.00     0.034 C 
ENDROOT
BRANCH   1  10
ATOM     10  C   UNL     1     -12.210  -5.645  -0.978  1.00  0.00     0.246 C 
ATOM     11  O   UNL     1     -13.424  -5.861  -1.052  1.00  0.00    -0.272 OA
BRANCH  10  12
ATOM     12  C   UNL     1     -11.214  -6.757  -0.539  1.00  0.00     0.174 C 
BRANCH  12  13
ATOM     13  N   UNL     1     -11.261  -6.924   0.913  1.00  0.00    -0.342 N 
ATOM     14  C   UNL     1     -11.922  -7.936   1.572  1.00  0.00     0.249 C 
ATOM     15  O   UNL     1     -12.529  -8.836   1.005  1.00  0.00    -0.272 OA
ATOM     16  H   UNL     1     -10.938  -6.171   1.517  1.00  0.00     0.164 HD
BRANCH  14  17
ATOM     17  C   UNL     1     -11.799  -7.827   3.107  1.00  0.00     0.207 C 
BRANCH  17  18
ATOM     18  C   UNL     1     -11.084  -9.057   3.675  1.00  0.00     0.077 C 
BRANCH  18  19
ATOM     19  C   UNL     1      -9.635  -9.112   3.248  1.00  0.00    -0.043 A 
ATOM     20  C   UNL     1      -7.832 -10.223   2.065  1.00  0.00     0.083 A 
ATOM     21  C   UNL     1      -9.180 -10.148   2.417  1.00  0.00     0.028 A 
ATOM     22  C   UNL     1      -6.932  -9.268   2.539  1.00  0.00     0.134 A 
ATOM     23  C   UNL     1      -7.369  -8.237   3.362  1.00  0.00     0.048 A 
ATOM     24  C   UNL     1      -8.717  -8.160   3.718  1.00  0.00     0.008 A 
ATOM     25  Cl  UNL     1      -7.292 -11.504   1.044  1.00  0.00    -0.080 Cl
BRANCH  22  26
ATOM     26  O   UNL     1      -5.599  -9.307   2.229  1.00  0.00    -0.506 OA
ATOM     27  H   UNL     1      -5.539  -9.484   1.272  1.00  0.00     0.293 HD
ENDBRANCH  22  26
ENDBRANCH  18  19
ENDBRANCH  17  18
BRANCH  17  28
ATOM     28  O   UNL     1     -13.092  -7.701   3.721  1.00  0.00    -0.383 OA
ATOM     29  H   UNL     1     -13.670  -8.361   3.276  1.00  0.00     0.211 HD
ENDBRANCH  17  28
ENDBRANCH  14  17
ENDBRANCH  12  13
BRANCH  12  30
ATOM     30  C   UNL     1      -9.773  -6.513  -1.061  1.00  0.00     0.018 C 
ATOM     31  C   UNL     1      -9.628  -7.000  -2.512  1.00  0.00     0.010 C 
BRANCH  30  32
ATOM     32  C   UNL     1      -8.675  -7.149  -0.175  1.00  0.00     0.002 C 
ATOM     33  C   UNL     1      -7.642  -6.176   0.380  1.00  0.00     0.004 C 
ENDBRANCH  30  32
ENDBRANCH  12  30
ENDBRANCH  10  12
ENDBRANCH   1  10
BRANCH   5  34
ATOM     34  C   UNL     1     -12.654  -2.583   0.117  1.00  0.00     0.242 C 
ATOM     35  O   UNL     1     -13.303  -1.955  -0.719  1.00  0.00    -0.273 OA
ATOM     36  N   UNL     1     -12.953  -2.553   1.461  1.00  0.00    -0.354 N 
ATOM     37  H   UNL     1     -12.309  -2.995   2.117  1.00  0.00     0.163 HD
BRANCH  36  38
ATOM     38  C   UNL     1     -14.197  -2.008   1.964  1.00  0.00     0.116 C 
BRANCH  38  39
ATOM     39  C   UNL     1     -14.264  -2.184   3.479  1.00  0.00     0.023 C 
BRANCH  39  40
ATOM     40  C   UNL     1     -13.620  -3.486   3.944  1.00  0.00     0.026 C 
BRANCH  40  41
ATOM     41  C   UNL     1     -14.065  -3.834   5.364  1.00  0.00     0.146 C 
BRANCH  41  42
ATOM     42  N   UNL     1     -14.121  -5.281   5.522  1.00  0.00    -0.254 NA
ATOM     43  C   UNL     1     -15.176  -5.825   6.002  1.00  0.00     0.185 C 
ATOM     44  N   UNL     1     -16.327  -5.265   6.416  1.00  0.00    -0.370 N 
ATOM     45  N   UNL     1     -15.206  -7.161   6.144  1.00  0.00    -0.370 N 
ATOM     46  H   UNL     1     -16.970  -5.780   6.993  1.00  0.00     0.159 HD
ATOM     47  H   UNL     1     -16.480  -4.262   6.367  1.00  0.00     0.159 HD
ATOM     48  H   UNL     1     -14.379  -7.662   5.846  1.00  0.00     0.159 HD
ATOM     49  H   UNL     1     -16.058  -7.674   6.282  1.00  0.00     0.159 HD
ENDBRANCH  41  42
ENDBRANCH  40  41
ENDBRANCH  39  40
ENDBRANCH  38  39
ENDBRANCH  36  38
ENDBRANCH   5  34
BRANCH   8  50
ATOM     50  O   UNL     1     -12.749  -1.653  -4.538  1.00  0.00    -0.245 OA
BRANCH  50  51
ATOM     51  S   UNL     1     -13.928  -1.234  -5.577  1.00  0.00     0.397 S 
ATOM     52  O   UNL     1     -13.597  -1.782  -6.873  1.00  0.00    -0.169 OA
ATOM     53  O   UNL     1     -14.251   0.167  -5.404  1.00  0.00    -0.169 OA
BRANCH  51  54
ATOM     54  O   UNL     1     -15.172  -2.099  -5.040  1.00  0.00    -0.264 OA
ATOM     55  H   UNL     1     -15.714  -2.355  -5.814  1.00  0.00     0.236 HD
ENDBRANCH  51  54
ENDBRANCH  50  51
ENDBRANCH   8  50
TORSDOF 19
ENDMDL
MODEL 24
REMARK VINA RESULT:    -6.553      5.240      7.853
REMARK INTER + INTRA:         -16.866
REMARK INTER:                 -14.165
REMARK INTRA:                  -2.700
REMARK UNBOUND:                -3.609
REMARK SMILES CC[C@@H](C)[C@@H](NC(=O)[C@@H](O)Cc1ccc(O)c(Cl)c1)C(=O)N1[C@H](C(=O)NCCCCN=C(N)N)C[C@H]2CC[C@H](OS(=O)(=O)O)C[C@@H]21
REMARK SMILES IDX 22 1 36 2 46 3 35 4 23 5 45 6 37 7 39 8 38 9 20 10 21 11
REMARK SMILES IDX 5 12 6 13 7 14 8 15 9 17 11 18 12 19 17 20 19 21 15 22 14 23
REMARK SMILES IDX 13 24 18 25 16 26 10 28 3 30 4 31 2 32 1 33 24 34 25 35
REMARK SMILES IDX 26 36 27 38 28 39 29 40 30 41 31 42 32 43 33 44 34 45 40 50
REMARK SMILES IDX 41 51 42 52 43 53 44 54
REMARK H PARENT 6 16 16 27 10 29 26 37 33 46 33 47 34 48 34 49 44 55
ROOT
ATOM      1  N   UNL     1      -9.429   0.509  -5.244  1.00  0.00    -0.326 N 
ATOM      2  C   UNL     1     -10.733   0.545  -3.285  1.00  0.00     0.014 C 
ATOM      3  C   UNL     1     -10.615   1.161  -4.682  1.00  0.00     0.091 C 
ATOM      4  C   UNL     1      -9.280   0.347  -2.882  1.00  0.00     0.041 C 
ATOM      5  C   UNL     1      -8.715  -0.246  -4.186  1.00  0.00     0.175 C 
ATOM      6  C   UNL     1     -11.950   0.982  -5.402  1.00  0.00     0.059 C 
ATOM      7  C   UNL     1     -11.642   1.376  -2.401  1.00  0.00     0.008 C 
ATOM      8  C   UNL     1     -13.173   1.006  -4.460  1.00  0.00     0.143 C 
ATOM      9  C   UNL     1     -12.900   1.818  -3.178  1.00  0.00     0.034 C 
ENDROOT
BRANCH   1  10
ATOM     10  C   UNL     1      -8.823   0.681  -6.477  1.00  0.00     0.246 C 
ATOM     11  O   UNL     1      -9.528   0.766  -7.488  1.00  0.00    -0.272 OA
BRANCH  10  12
ATOM     12  C   UNL     1      -7.274   0.806  -6.559  1.00  0.00     0.174 C 
BRANCH  12  13
ATOM     13  N   UNL     1      -6.843   2.068  -5.959  1.00  0.00    -0.342 N 
ATOM     14  C   UNL     1      -5.990   2.182  -4.884  1.00  0.00     0.249 C 
ATOM     15  O   UNL     1      -5.470   1.226  -4.322  1.00  0.00    -0.272 OA
ATOM     16  H   UNL     1      -7.311   2.934  -6.216  1.00  0.00     0.164 HD
BRANCH  14  17
ATOM     17  C   UNL     1      -5.741   3.649  -4.474  1.00  0.00     0.207 C 
BRANCH  17  18
ATOM     18  C   UNL     1      -5.205   4.454  -5.662  1.00  0.00     0.077 C 
BRANCH  18  19
ATOM     19  C   UNL     1      -3.723   4.234  -5.866  1.00  0.00    -0.043 A 
ATOM     20  C   UNL     1      -1.900   2.974  -6.852  1.00  0.00     0.083 A 
ATOM     21  C   UNL     1      -3.268   3.205  -6.705  1.00  0.00     0.028 A 
ATOM     22  C   UNL     1      -0.980   3.766  -6.164  1.00  0.00     0.134 A 
ATOM     23  C   UNL     1      -1.417   4.789  -5.330  1.00  0.00     0.048 A 
ATOM     24  C   UNL     1      -2.785   5.021  -5.179  1.00  0.00     0.008 A 
ATOM     25  Cl  UNL     1      -1.361   1.704  -7.887  1.00  0.00    -0.080 Cl
BRANCH  22  26
ATOM     26  O   UNL     1       0.370   3.570  -6.269  1.00  0.00    -0.506 OA
ATOM     27  H   UNL     1       0.798   4.319  -5.813  1.00  0.00     0.293 HD
ENDBRANCH  22  26
ENDBRANCH  18  19
ENDBRANCH  17  18
BRANCH  17  28
ATOM     28  O   UNL     1      -4.809   3.730  -3.383  1.00  0.00    -0.383 OA
ATOM     29  H   UNL     1      -5.277   3.366  -2.598  1.00  0.00     0.211 HD
ENDBRANCH  17  28
ENDBRANCH  14  17
ENDBRANCH  12  13
BRANCH  12  30
ATOM     30  C   UNL     1      -6.732   0.621  -8.002  1.00  0.00     0.018 C 
ATOM     31  C   UNL     1      -5.660  -0.479  -8.047  1.00  0.00     0.010 C 
BRANCH  30  32
ATOM     32  C   UNL     1      -6.184   1.924  -8.632  1.00  0.00     0.002 C 
ATOM     33  C   UNL     1      -7.012   2.492  -9.778  1.00  0.00     0.004 C 
ENDBRANCH  30  32
ENDBRANCH  12  30
ENDBRANCH  10  12
ENDBRANCH   1  10
BRANCH   5  34
ATOM     34  C   UNL     1      -9.012  -1.766  -4.298  1.00  0.00     0.242 C 
ATOM     35  O   UNL     1     -10.001  -2.283  -3.780  1.00  0.00    -0.273 OA
ATOM     36  N   UNL     1      -8.062  -2.500  -4.972  1.00  0.00    -0.354 N 
ATOM     37  H   UNL     1      -7.205  -2.035  -5.275  1.00  0.00     0.163 HD
BRANCH  36  38
ATOM     38  C   UNL     1      -8.279  -3.879  -5.356  1.00  0.00     0.116 C 
BRANCH  38  39
ATOM     39  C   UNL     1      -9.162  -3.938  -6.600  1.00  0.00     0.023 C 
BRANCH  39  40
ATOM     40  C   UNL     1     -10.123  -5.122  -6.577  1.00  0.00     0.026 C 
BRANCH  40  41
ATOM     41  C   UNL     1     -10.426  -5.547  -5.140  1.00  0.00     0.146 C 
BRANCH  41  42
ATOM     42  N   UNL     1     -11.843  -5.858  -5.007  1.00  0.00    -0.254 NA
ATOM     43  C   UNL     1     -12.511  -5.361  -4.034  1.00  0.00     0.185 C 
ATOM     44  N   UNL     1     -12.116  -4.544  -3.041  1.00  0.00    -0.370 N 
ATOM     45  N   UNL     1     -13.815  -5.663  -3.926  1.00  0.00    -0.370 N 
ATOM     46  H   UNL     1     -12.679  -4.431  -2.215  1.00  0.00     0.159 HD
ATOM     47  H   UNL     1     -11.161  -4.205  -2.978  1.00  0.00     0.159 HD
ATOM     48  H   UNL     1     -14.196  -6.268  -4.641  1.00  0.00     0.159 HD
ATOM     49  H   UNL     1     -14.449  -5.139  -3.349  1.00  0.00     0.159 HD
ENDBRANCH  41  42
ENDBRANCH  40  41
ENDBRANCH  39  40
ENDBRANCH  38  39
ENDBRANCH  36  38
ENDBRANCH   5  34
BRANCH   8  50
ATOM     50  O   UNL     1     -13.531  -0.325  -4.086  1.00  0.00    -0.245 OA
BRANCH  50  51
ATOM     51  S   UNL     1     -14.620  -1.143  -4.975  1.00  0.00     0.397 S 
ATOM     52  O   UNL     1     -14.355  -0.870  -6.369  1.00  0.00    -0.169 OA
ATOM     53  O   UNL     1     -15.940  -0.971  -4.405  1.00  0.00    -0.169 OA
BRANCH  51  54
ATOM     54  O   UNL     1     -14.172  -2.668  -4.734  1.00  0.00    -0.264 OA
ATOM     55  H   UNL     1     -14.149  -2.824  -3.768  1.00  0.00     0.236 HD
ENDBRANCH  51  54
ENDBRANCH  50  51
ENDBRANCH   8  50
TORSDOF 19
ENDMDL
MODEL 25
REMARK VINA RESULT:    -6.544      4.727      9.791
REMARK INTER + INTRA:         -16.847
REMARK INTER:                 -14.043
REMARK INTRA:                  -2.805
REMARK UNBOUND:                -3.609
REMARK SMILES CC[C@@H](C)[C@@H](NC(=O)[C@@H](O)Cc1ccc(O)c(Cl)c1)C(=O)N1[C@H](C(=O)NCCCCN=C(N)N)C[C@H]2CC[C@H](OS(=O)(=O)O)C[C@@H]21
REMARK SMILES IDX 22 1 36 2 46 3 35 4 23 5 45 6 37 7 39 8 38 9 20 10 21 11
REMARK SMILES IDX 5 12 6 13 7 14 8 15 9 17 11 18 12 19 17 20 19 21 15 22 14 23
REMARK SMILES IDX 13 24 18 25 16 26 10 28 3 30 4 31 2 32 1 33 24 34 25 35
REMARK SMILES IDX 26 36 27 38 28 39 29 40 30 41 31 42 32 43 33 44 34 45 40 50
REMARK SMILES IDX 41 51 42 52 43 53 44 54
REMARK H PARENT 6 16 16 27 10 29 26 37 33 46 33 47 34 48 34 49 44 55
ROOT
ATOM      1  N   UNL     1      -7.117   0.662  -7.111  1.00  0.00    -0.326 N 
ATOM      2  C   UNL     1      -6.888   3.005  -7.120  1.00  0.00     0.014 C 
ATOM      3  C   UNL     1      -7.726   1.864  -6.535  1.00  0.00     0.091 C 
ATOM      4  C   UNL     1      -6.547   2.491  -8.510  1.00  0.00     0.041 C 
ATOM      5  C   UNL     1      -6.154   1.040  -8.175  1.00  0.00     0.175 C 
ATOM      6  C   UNL     1      -7.745   2.010  -5.015  1.00  0.00     0.059 C 
ATOM      7  C   UNL     1      -7.604   4.333  -6.974  1.00  0.00     0.008 C 
ATOM      8  C   UNL     1      -7.674   3.474  -4.529  1.00  0.00     0.143 C 
ATOM      9  C   UNL     1      -8.239   4.458  -5.573  1.00  0.00     0.034 C 
ENDROOT
BRANCH   1  10
ATOM     10  C   UNL     1      -7.463  -0.670  -6.957  1.00  0.00     0.246 C 
ATOM     11  O   UNL     1      -6.573  -1.527  -6.960  1.00  0.00    -0.272 OA
BRANCH  10  12
ATOM     12  C   UNL     1      -8.956  -1.053  -6.741  1.00  0.00     0.174 C 
BRANCH  12  13
ATOM     13  N   UNL     1      -9.173  -1.449  -5.349  1.00  0.00    -0.342 N 
ATOM     14  C   UNL     1     -10.078  -0.862  -4.493  1.00  0.00     0.249 C 
ATOM     15  O   UNL     1     -10.830   0.049  -4.816  1.00  0.00    -0.272 OA
ATOM     16  H   UNL     1      -8.517  -2.081  -4.897  1.00  0.00     0.164 HD
BRANCH  14  17
ATOM     17  C   UNL     1     -10.059  -1.491  -3.084  1.00  0.00     0.207 C 
BRANCH  17  18
ATOM     18  C   UNL     1     -11.247  -2.441  -2.905  1.00  0.00     0.077 C 
BRANCH  18  19
ATOM     19  C   UNL     1     -10.845  -3.887  -3.093  1.00  0.00    -0.043 A 
ATOM     20  C   UNL     1     -10.615  -5.838  -4.517  1.00  0.00     0.083 A 
ATOM     21  C   UNL     1     -10.941  -4.490  -4.357  1.00  0.00     0.028 A 
ATOM     22  C   UNL     1     -10.195  -6.589  -3.419  1.00  0.00     0.134 A 
ATOM     23  C   UNL     1     -10.095  -6.004  -2.162  1.00  0.00     0.048 A 
ATOM     24  C   UNL     1     -10.422  -4.656  -1.998  1.00  0.00     0.008 A 
ATOM     25  Cl  UNL     1     -10.740  -6.561  -6.077  1.00  0.00    -0.080 Cl
BRANCH  22  26
ATOM     26  O   UNL     1      -9.875  -7.916  -3.524  1.00  0.00    -0.506 OA
ATOM     27  H   UNL     1     -10.646  -8.417  -3.199  1.00  0.00     0.293 HD
ENDBRANCH  22  26
ENDBRANCH  18  19
ENDBRANCH  17  18
BRANCH  17  28
ATOM     28  O   UNL     1     -10.100  -0.479  -2.065  1.00  0.00    -0.383 OA
ATOM     29  H   UNL     1     -10.585  -0.877  -1.307  1.00  0.00     0.211 HD
ENDBRANCH  17  28
ENDBRANCH  14  17
ENDBRANCH  12  13
BRANCH  12  30
ATOM     30  C   UNL     1      -9.450  -2.128  -7.746  1.00  0.00     0.018 C 
ATOM     31  C   UNL     1     -10.968  -2.019  -7.960  1.00  0.00     0.010 C 
BRANCH  30  32
ATOM     32  C   UNL     1      -9.072  -3.575  -7.344  1.00  0.00     0.002 C 
ATOM     33  C   UNL     1      -8.113  -4.284  -8.291  1.00  0.00     0.004 C 
ENDBRANCH  30  32
ENDBRANCH  12  30
ENDBRANCH  10  12
ENDBRANCH   1  10
BRANCH   5  34
ATOM     34  C   UNL     1      -4.695   0.947  -7.656  1.00  0.00     0.242 C 
ATOM     35  O   UNL     1      -4.422   0.955  -6.455  1.00  0.00    -0.273 OA
ATOM     36  N   UNL     1      -3.726   0.910  -8.634  1.00  0.00    -0.354 N 
ATOM     37  H   UNL     1      -4.007   1.028  -9.608  1.00  0.00     0.163 HD
BRANCH  36  38
ATOM     38  C   UNL     1      -2.341   0.609  -8.338  1.00  0.00     0.116 C 
BRANCH  38  39
ATOM     39  C   UNL     1      -1.466   1.817  -8.666  1.00  0.00     0.023 C 
BRANCH  39  40
ATOM     40  C   UNL     1      -2.241   3.130  -8.611  1.00  0.00     0.026 C 
BRANCH  40  41
ATOM     41  C   UNL     1      -1.411   4.221  -7.935  1.00  0.00     0.146 C 
BRANCH  41  42
ATOM     42  N   UNL     1      -0.523   3.623  -6.947  1.00  0.00    -0.254 NA
ATOM     43  C   UNL     1      -0.880   3.581  -5.718  1.00  0.00     0.185 C 
ATOM     44  N   UNL     1      -2.008   4.019  -5.129  1.00  0.00    -0.370 N 
ATOM     45  N   UNL     1      -0.045   3.030  -4.822  1.00  0.00    -0.370 N 
ATOM     46  H   UNL     1      -2.051   4.143  -4.132  1.00  0.00     0.159 HD
ATOM     47  H   UNL     1      -2.755   4.451  -5.663  1.00  0.00     0.159 HD
ATOM     48  H   UNL     1       0.826   2.667  -5.185  1.00  0.00     0.159 HD
ATOM     49  H   UNL     1      -0.341   2.748  -3.904  1.00  0.00     0.159 HD
ENDBRANCH  41  42
ENDBRANCH  40  41
ENDBRANCH  39  40
ENDBRANCH  38  39
ENDBRANCH  36  38
ENDBRANCH   5  34
BRANCH   8  50
ATOM     50  O   UNL     1      -6.320   3.834  -4.254  1.00  0.00    -0.245 OA
BRANCH  50  51
ATOM     51  S   UNL     1      -5.990   4.821  -3.004  1.00  0.00     0.397 S 
ATOM     52  O   UNL     1      -5.714   6.137  -3.536  1.00  0.00    -0.169 OA
ATOM     53  O   UNL     1      -5.077   4.164  -2.092  1.00  0.00    -0.169 OA
BRANCH  51  54
ATOM     54  O   UNL     1      -7.420   4.934  -2.279  1.00  0.00    -0.264 OA
ATOM     55  H   UNL     1      -8.083   5.167  -2.960  1.00  0.00     0.236 HD
ENDBRANCH  51  54
ENDBRANCH  50  51
ENDBRANCH   8  50
TORSDOF 19
ENDMDL
MODEL 26
REMARK VINA RESULT:    -6.519      4.313      9.277
REMARK INTER + INTRA:         -16.798
REMARK INTER:                 -13.712
REMARK INTRA:                  -3.085
REMARK UNBOUND:                -3.609
REMARK SMILES CC[C@@H](C)[C@@H](NC(=O)[C@@H](O)Cc1ccc(O)c(Cl)c1)C(=O)N1[C@H](C(=O)NCCCCN=C(N)N)C[C@H]2CC[C@H](OS(=O)(=O)O)C[C@@H]21
REMARK SMILES IDX 22 1 36 2 46 3 35 4 23 5 45 6 37 7 39 8 38 9 20 10 21 11
REMARK SMILES IDX 5 12 6 13 7 14 8 15 9 17 11 18 12 19 17 20 19 21 15 22 14 23
REMARK SMILES IDX 13 24 18 25 16 26 10 28 3 30 4 31 2 32 1 33 24 34 25 35
REMARK SMILES IDX 26 36 27 38 28 39 29 40 30 41 31 42 32 43 33 44 34 45 40 50
REMARK SMILES IDX 41 51 42 52 43 53 44 54
REMARK H PARENT 6 16 16 27 10 29 26 37 33 46 33 47 34 48 34 49 44 55
ROOT
ATOM      1  N   UNL     1      -7.301   1.269  -6.365  1.00  0.00    -0.326 N 
ATOM      2  C   UNL     1      -6.820   3.569  -6.218  1.00  0.00     0.014 C 
ATOM      3  C   UNL     1      -6.613   2.232  -5.500  1.00  0.00     0.091 C 
ATOM      4  C   UNL     1      -8.206   3.413  -6.824  1.00  0.00     0.041 C 
ATOM      5  C   UNL     1      -8.096   1.986  -7.392  1.00  0.00     0.175 C 
ATOM      6  C   UNL     1      -5.118   2.044  -5.250  1.00  0.00     0.059 C 
ATOM      7  C   UNL     1      -6.541   4.733  -5.288  1.00  0.00     0.008 C 
ATOM      8  C   UNL     1      -4.355   3.366  -5.021  1.00  0.00     0.143 C 
ATOM      9  C   UNL     1      -5.268   4.472  -4.455  1.00  0.00     0.034 C 
ENDROOT
BRANCH   1  10
ATOM     10  C   UNL     1      -7.466  -0.098  -6.216  1.00  0.00     0.246 C 
ATOM     11  O   UNL     1      -7.298  -0.606  -5.102  1.00  0.00    -0.272 OA
BRANCH  10  12
ATOM     12  C   UNL     1      -7.900  -0.956  -7.439  1.00  0.00     0.174 C 
BRANCH  12  13
ATOM     13  N   UNL     1      -9.046  -1.791  -7.081  1.00  0.00    -0.342 N 
ATOM     14  C   UNL     1     -10.365  -1.417  -7.204  1.00  0.00     0.249 C 
ATOM     15  O   UNL     1     -10.729  -0.340  -7.659  1.00  0.00    -0.272 OA
ATOM     16  H   UNL     1      -8.900  -2.644  -6.548  1.00  0.00     0.164 HD
BRANCH  14  17
ATOM     17  C   UNL     1     -11.342  -2.512  -6.726  1.00  0.00     0.207 C 
BRANCH  17  18
ATOM     18  C   UNL     1     -10.823  -3.900  -7.115  1.00  0.00     0.077 C 
BRANCH  18  19
ATOM     19  C   UNL     1     -10.705  -4.813  -5.915  1.00  0.00    -0.043 A 
ATOM     20  C   UNL     1     -10.504  -5.119  -3.517  1.00  0.00     0.083 A 
ATOM     21  C   UNL     1     -10.662  -4.277  -4.619  1.00  0.00     0.028 A 
ATOM     22  C   UNL     1     -10.387  -6.497  -3.703  1.00  0.00     0.134 A 
ATOM     23  C   UNL     1     -10.429  -7.041  -4.981  1.00  0.00     0.048 A 
ATOM     24  C   UNL     1     -10.585  -6.201  -6.086  1.00  0.00     0.008 A 
ATOM     25  Cl  UNL     1     -10.452  -4.442  -1.932  1.00  0.00    -0.080 Cl
BRANCH  22  26
ATOM     26  O   UNL     1     -10.220  -7.361  -2.655  1.00  0.00    -0.506 OA
ATOM     27  H   UNL     1     -10.084  -8.246  -3.040  1.00  0.00     0.293 HD
ENDBRANCH  22  26
ENDBRANCH  18  19
ENDBRANCH  17  18
BRANCH  17  28
ATOM     28  O   UNL     1     -12.651  -2.319  -7.285  1.00  0.00    -0.383 OA
ATOM     29  H   UNL     1     -12.509  -2.061  -8.225  1.00  0.00     0.211 HD
ENDBRANCH  17  28
ENDBRANCH  14  17
ENDBRANCH  12  13
BRANCH  12  30
ATOM     30  C   UNL     1      -6.730  -1.781  -8.038  1.00  0.00     0.018 C 
ATOM     31  C   UNL     1      -6.684  -1.634  -9.567  1.00  0.00     0.010 C 
BRANCH  30  32
ATOM     32  C   UNL     1      -6.763  -3.279  -7.649  1.00  0.00     0.002 C 
ATOM     33  C   UNL     1      -6.279  -4.243  -8.725  1.00  0.00     0.004 C 
ENDBRANCH  30  32
ENDBRANCH  12  30
ENDBRANCH  10  12
ENDBRANCH   1  10
BRANCH   5  34
ATOM     34  C   UNL     1      -7.369   1.969  -8.762  1.00  0.00     0.242 C 
ATOM     35  O   UNL     1      -7.973   2.073  -9.829  1.00  0.00    -0.273 OA
ATOM     36  N   UNL     1      -6.007   1.776  -8.700  1.00  0.00    -0.354 N 
ATOM     37  H   UNL     1      -5.580   1.576  -7.794  1.00  0.00     0.163 HD
BRANCH  36  38
ATOM     38  C   UNL     1      -5.148   1.947  -9.853  1.00  0.00     0.116 C 
BRANCH  38  39
ATOM     39  C   UNL     1      -3.734   2.300  -9.399  1.00  0.00     0.023 C 
BRANCH  39  40
ATOM     40  C   UNL     1      -2.946   1.077  -8.940  1.00  0.00     0.026 C 
BRANCH  40  41
ATOM     41  C   UNL     1      -1.544   1.076  -9.549  1.00  0.00     0.146 C 
BRANCH  41  42
ATOM     42  N   UNL     1      -0.548   1.192  -8.491  1.00  0.00    -0.254 NA
ATOM     43  C   UNL     1       0.191   2.235  -8.430  1.00  0.00     0.185 C 
ATOM     44  N   UNL     1       0.219   3.324  -9.219  1.00  0.00    -0.370 N 
ATOM     45  N   UNL     1       1.106   2.320  -7.450  1.00  0.00    -0.370 N 
ATOM     46  H   UNL     1       1.008   3.948  -9.204  1.00  0.00     0.159 HD
ATOM     47  H   UNL     1      -0.417   3.430 -10.003  1.00  0.00     0.159 HD
ATOM     48  H   UNL     1       1.146   1.543  -6.804  1.00  0.00     0.159 HD
ATOM     49  H   UNL     1       1.549   3.184  -7.193  1.00  0.00     0.159 HD
ENDBRANCH  41  42
ENDBRANCH  40  41
ENDBRANCH  39  40
ENDBRANCH  38  39
ENDBRANCH  36  38
ENDBRANCH   5  34
BRANCH   8  50
ATOM     50  O   UNL     1      -3.793   3.827  -6.250  1.00  0.00    -0.245 OA
BRANCH  50  51
ATOM     51  S   UNL     1      -2.213   4.206  -6.319  1.00  0.00     0.397 S 
ATOM     52  O   UNL     1      -1.939   4.744  -7.633  1.00  0.00    -0.169 OA
ATOM     53  O   UNL     1      -1.429   3.122  -5.764  1.00  0.00    -0.169 OA
BRANCH  51  54
ATOM     54  O   UNL     1      -2.122   5.453  -5.307  1.00  0.00    -0.264 OA
ATOM     55  H   UNL     1      -1.421   5.256  -4.654  1.00  0.00     0.236 HD
ENDBRANCH  51  54
ENDBRANCH  50  51
ENDBRANCH   8  50
TORSDOF 19
ENDMDL
MODEL 27
REMARK VINA RESULT:    -6.450      5.075      8.073
REMARK INTER + INTRA:         -16.656
REMARK INTER:                 -13.773
REMARK INTRA:                  -2.883
REMARK UNBOUND:                -3.609
REMARK SMILES CC[C@@H](C)[C@@H](NC(=O)[C@@H](O)Cc1ccc(O)c(Cl)c1)C(=O)N1[C@H](C(=O)NCCCCN=C(N)N)C[C@H]2CC[C@H](OS(=O)(=O)O)C[C@@H]21
REMARK SMILES IDX 22 1 36 2 46 3 35 4 23 5 45 6 37 7 39 8 38 9 20 10 21 11
REMARK SMILES IDX 5 12 6 13 7 14 8 15 9 17 11 18 12 19 17 20 19 21 15 22 14 23
REMARK SMILES IDX 13 24 18 25 16 26 10 28 3 30 4 31 2 32 1 33 24 34 25 35
REMARK SMILES IDX 26 36 27 38 28 39 29 40 30 41 31 42 32 43 33 44 34 45 40 50
REMARK SMILES IDX 41 51 42 52 43 53 44 54
REMARK H PARENT 6 16 16 27 10 29 26 37 33 46 33 47 34 48 34 49 44 55
ROOT
ATOM      1  N   UNL     1      -9.228  -1.135  -6.231  1.00  0.00    -0.326 N 
ATOM      2  C   UNL     1     -10.562  -2.887  -7.061  1.00  0.00     0.014 C 
ATOM      3  C   UNL     1      -9.247  -2.597  -6.334  1.00  0.00     0.091 C 
ATOM      4  C   UNL     1     -10.687  -1.707  -8.012  1.00  0.00     0.041 C 
ATOM      5  C   UNL     1     -10.309  -0.553  -7.064  1.00  0.00     0.175 C 
ATOM      6  C   UNL     1      -9.217  -3.413  -5.043  1.00  0.00     0.059 C 
ATOM      7  C   UNL     1     -10.573  -4.297  -7.621  1.00  0.00     0.008 C 
ATOM      8  C   UNL     1      -9.962  -4.762  -5.145  1.00  0.00     0.143 C 
ATOM      9  C   UNL     1     -10.002  -5.295  -6.591  1.00  0.00     0.034 C 
ENDROOT
BRANCH   1  10
ATOM     10  C   UNL     1      -8.272  -0.295  -5.685  1.00  0.00     0.246 C 
ATOM     11  O   UNL     1      -7.684  -0.644  -4.656  1.00  0.00    -0.272 OA
BRANCH  10  12
ATOM     12  C   UNL     1      -7.929   1.044  -6.399  1.00  0.00     0.174 C 
BRANCH  12  13
ATOM     13  N   UNL     1      -6.488   1.129  -6.636  1.00  0.00    -0.342 N 
ATOM     14  C   UNL     1      -5.811   0.460  -7.631  1.00  0.00     0.249 C 
ATOM     15  O   UNL     1      -6.352  -0.266  -8.455  1.00  0.00    -0.272 OA
ATOM     16  H   UNL     1      -5.888   1.566  -5.941  1.00  0.00     0.164 HD
BRANCH  14  17
ATOM     17  C   UNL     1      -4.293   0.742  -7.611  1.00  0.00     0.207 C 
BRANCH  17  18
ATOM     18  C   UNL     1      -4.002   2.146  -8.150  1.00  0.00     0.077 C 
BRANCH  18  19
ATOM     19  C   UNL     1      -3.292   3.004  -7.127  1.00  0.00    -0.043 A 
ATOM     20  C   UNL     1      -1.356   3.448  -5.734  1.00  0.00     0.083 A 
ATOM     21  C   UNL     1      -1.989   2.683  -6.714  1.00  0.00     0.028 A 
ATOM     22  C   UNL     1      -2.018   4.534  -5.161  1.00  0.00     0.134 A 
ATOM     23  C   UNL     1      -3.307   4.864  -5.560  1.00  0.00     0.048 A 
ATOM     24  C   UNL     1      -3.945   4.099  -6.540  1.00  0.00     0.008 A 
ATOM     25  Cl  UNL     1       0.244   3.037  -5.240  1.00  0.00    -0.080 Cl
BRANCH  22  26
ATOM     26  O   UNL     1      -1.441   5.307  -4.189  1.00  0.00    -0.506 OA
ATOM     27  H   UNL     1      -1.261   4.718  -3.433  1.00  0.00     0.293 HD
ENDBRANCH  22  26
ENDBRANCH  18  19
ENDBRANCH  17  18
BRANCH  17  28
ATOM     28  O   UNL     1      -3.577  -0.227  -8.393  1.00  0.00    -0.383 OA
ATOM     29  H   UNL     1      -3.616   0.091  -9.323  1.00  0.00     0.211 HD
ENDBRANCH  17  28
ENDBRANCH  14  17
ENDBRANCH  12  13
BRANCH  12  30
ATOM     30  C   UNL     1      -8.478   2.284  -5.643  1.00  0.00     0.018 C 
ATOM     31  C   UNL     1      -9.460   3.071  -6.526  1.00  0.00     0.010 C 
BRANCH  30  32
ATOM     32  C   UNL     1      -7.372   3.226  -5.107  1.00  0.00     0.002 C 
ATOM     33  C   UNL     1      -7.466   4.673  -5.574  1.00  0.00     0.004 C 
ENDBRANCH  30  32
ENDBRANCH  12  30
ENDBRANCH  10  12
ENDBRANCH   1  10
BRANCH   5  34
ATOM     34  C   UNL     1     -11.510  -0.120  -6.182  1.00  0.00     0.242 C 
ATOM     35  O   UNL     1     -12.620   0.123  -6.656  1.00  0.00    -0.273 OA
ATOM     36  N   UNL     1     -11.231   0.025  -4.842  1.00  0.00    -0.354 N 
ATOM     37  H   UNL     1     -10.264  -0.074  -4.528  1.00  0.00     0.163 HD
BRANCH  36  38
ATOM     38  C   UNL     1     -12.270   0.211  -3.851  1.00  0.00     0.116 C 
BRANCH  38  39
ATOM     39  C   UNL     1     -12.226  -0.927  -2.834  1.00  0.00     0.023 C 
BRANCH  39  40
ATOM     40  C   UNL     1     -12.321  -0.428  -1.396  1.00  0.00     0.026 C 
BRANCH  40  41
ATOM     41  C   UNL     1     -11.145  -0.942  -0.565  1.00  0.00     0.146 C 
BRANCH  41  42
ATOM     42  N   UNL     1      -9.892  -0.472  -1.142  1.00  0.00    -0.254 NA
ATOM     43  C   UNL     1      -9.267   0.500  -0.592  1.00  0.00     0.185 C 
ATOM     44  N   UNL     1      -9.577   1.220   0.502  1.00  0.00    -0.370 N 
ATOM     45  N   UNL     1      -8.116   0.921  -1.142  1.00  0.00    -0.370 N 
ATOM     46  H   UNL     1      -9.131   2.103   0.678  1.00  0.00     0.159 HD
ATOM     47  H   UNL     1     -10.410   1.026   1.049  1.00  0.00     0.159 HD
ATOM     48  H   UNL     1      -7.806   0.425  -1.966  1.00  0.00     0.159 HD
ATOM     49  H   UNL     1      -7.459   1.501  -0.651  1.00  0.00     0.159 HD
ENDBRANCH  41  42
ENDBRANCH  40  41
ENDBRANCH  39  40
ENDBRANCH  38  39
ENDBRANCH  36  38
ENDBRANCH   5  34
BRANCH   8  50
ATOM     50  O   UNL     1     -11.303  -4.618  -4.677  1.00  0.00    -0.245 OA
BRANCH  50  51
ATOM     51  S   UNL     1     -11.966  -5.791  -3.765  1.00  0.00     0.397 S 
ATOM     52  O   UNL     1     -12.919  -5.174  -2.870  1.00  0.00    -0.169 OA
ATOM     53  O   UNL     1     -10.927  -6.674  -3.278  1.00  0.00    -0.169 OA
BRANCH  51  54
ATOM     54  O   UNL     1     -12.840  -6.601  -4.844  1.00  0.00    -0.264 OA
ATOM     55  H   UNL     1     -12.242  -7.223  -5.306  1.00  0.00     0.236 HD
ENDBRANCH  51  54
ENDBRANCH  50  51
ENDBRANCH   8  50
TORSDOF 19
ENDMDL
MODEL 28
REMARK VINA RESULT:    -6.438      5.685      9.471
REMARK INTER + INTRA:         -16.634
REMARK INTER:                 -12.999
REMARK INTRA:                  -3.635
REMARK UNBOUND:                -3.609
REMARK SMILES CC[C@@H](C)[C@@H](NC(=O)[C@@H](O)Cc1ccc(O)c(Cl)c1)C(=O)N1[C@H](C(=O)NCCCCN=C(N)N)C[C@H]2CC[C@H](OS(=O)(=O)O)C[C@@H]21
REMARK SMILES IDX 22 1 36 2 46 3 35 4 23 5 45 6 37 7 39 8 38 9 20 10 21 11
REMARK SMILES IDX 5 12 6 13 7 14 8 15 9 17 11 18 12 19 17 20 19 21 15 22 14 23
REMARK SMILES IDX 13 24 18 25 16 26 10 28 3 30 4 31 2 32 1 33 24 34 25 35
REMARK SMILES IDX 26 36 27 38 28 39 29 40 30 41 31 42 32 43 33 44 34 45 40 50
REMARK SMILES IDX 41 51 42 52 43 53 44 54
REMARK H PARENT 6 16 16 27 10 29 26 37 33 46 33 47 34 48 34 49 44 55
ROOT
ATOM      1  N   UNL     1      -9.102  -2.714  -6.237  1.00  0.00    -0.326 N 
ATOM      2  C   UNL     1     -10.737  -4.407  -6.277  1.00  0.00     0.014 C 
ATOM      3  C   UNL     1      -9.275  -4.133  -5.913  1.00  0.00     0.091 C 
ATOM      4  C   UNL     1     -10.956  -3.510  -7.485  1.00  0.00     0.041 C 
ATOM      5  C   UNL     1     -10.280  -2.218  -6.990  1.00  0.00     0.175 C 
ATOM      6  C   UNL     1      -9.044  -4.581  -4.471  1.00  0.00     0.059 C 
ATOM      7  C   UNL     1     -10.995  -5.896  -6.400  1.00  0.00     0.008 C 
ATOM      8  C   UNL     1      -9.912  -5.785  -4.048  1.00  0.00     0.143 C 
ATOM      9  C   UNL     1     -10.310  -6.664  -5.251  1.00  0.00     0.034 C 
ENDROOT
BRANCH   1  10
ATOM     10  C   UNL     1      -7.979  -1.911  -6.134  1.00  0.00     0.246 C 
ATOM     11  O   UNL     1      -7.658  -1.465  -5.027  1.00  0.00    -0.272 OA
BRANCH  10  12
ATOM     12  C   UNL     1      -7.124  -1.623  -7.402  1.00  0.00     0.174 C 
BRANCH  12  13
ATOM     13  N   UNL     1      -7.160  -0.194  -7.714  1.00  0.00    -0.342 N 
ATOM     14  C   UNL     1      -6.157   0.703  -7.427  1.00  0.00     0.249 C 
ATOM     15  O   UNL     1      -5.097   0.395  -6.896  1.00  0.00    -0.272 OA
ATOM     16  H   UNL     1      -8.034   0.234  -8.011  1.00  0.00     0.164 HD
BRANCH  14  17
ATOM     17  C   UNL     1      -6.501   2.142  -7.866  1.00  0.00     0.207 C 
BRANCH  17  18
ATOM     18  C   UNL     1      -5.628   3.154  -7.118  1.00  0.00     0.077 C 
BRANCH  18  19
ATOM     19  C   UNL     1      -6.296   3.648  -5.854  1.00  0.00    -0.043 A 
ATOM     20  C   UNL     1      -7.636   5.303  -4.693  1.00  0.00     0.083 A 
ATOM     21  C   UNL     1      -7.062   4.824  -5.871  1.00  0.00     0.028 A 
ATOM     22  C   UNL     1      -7.448   4.614  -3.494  1.00  0.00     0.134 A 
ATOM     23  C   UNL     1      -6.692   3.448  -3.463  1.00  0.00     0.048 A 
ATOM     24  C   UNL     1      -6.115   2.967  -4.641  1.00  0.00     0.008 A 
ATOM     25  Cl  UNL     1      -8.574   6.749  -4.733  1.00  0.00    -0.080 Cl
BRANCH  22  26
ATOM     26  O   UNL     1      -7.983   5.050  -2.312  1.00  0.00    -0.506 OA
ATOM     27  H   UNL     1      -7.290   5.574  -1.868  1.00  0.00     0.293 HD
ENDBRANCH  22  26
ENDBRANCH  18  19
ENDBRANCH  17  18
BRANCH  17  28
ATOM     28  O   UNL     1      -7.886   2.439  -7.626  1.00  0.00    -0.383 OA
ATOM     29  H   UNL     1      -8.134   3.130  -8.281  1.00  0.00     0.211 HD
ENDBRANCH  17  28
ENDBRANCH  14  17
ENDBRANCH  12  13
BRANCH  12  30
ATOM     30  C   UNL     1      -7.530  -2.505  -8.613  1.00  0.00     0.018 C 
ATOM     31  C   UNL     1      -6.571  -3.695  -8.769  1.00  0.00     0.010 C 
BRANCH  30  32
ATOM     32  C   UNL     1      -7.629  -1.723  -9.945  1.00  0.00     0.002 C 
ATOM     33  C   UNL     1      -9.042  -1.357 -10.382  1.00  0.00     0.004 C 
ENDBRANCH  30  32
ENDBRANCH  12  30
ENDBRANCH  10  12
ENDBRANCH   1  10
BRANCH   5  34
ATOM     34  C   UNL     1     -11.220  -1.398  -6.066  1.00  0.00     0.242 C 
ATOM     35  O   UNL     1     -10.837  -0.915  -5.001  1.00  0.00    -0.273 OA
ATOM     36  N   UNL     1     -12.524  -1.299  -6.497  1.00  0.00    -0.354 N 
ATOM     37  H   UNL     1     -12.809  -1.822  -7.326  1.00  0.00     0.163 HD
BRANCH  36  38
ATOM     38  C   UNL     1     -13.476  -0.400  -5.878  1.00  0.00     0.116 C 
BRANCH  38  39
ATOM     39  C   UNL     1     -14.316  -1.161  -4.854  1.00  0.00     0.023 C 
BRANCH  39  40
ATOM     40  C   UNL     1     -14.641  -0.319  -3.625  1.00  0.00     0.026 C 
BRANCH  40  41
ATOM     41  C   UNL     1     -13.366   0.037  -2.860  1.00  0.00     0.146 C 
BRANCH  41  42
ATOM     42  N   UNL     1     -13.300  -0.737  -1.627  1.00  0.00    -0.254 NA
ATOM     43  C   UNL     1     -12.584  -1.797  -1.582  1.00  0.00     0.185 C 
ATOM     44  N   UNL     1     -11.824  -2.369  -2.534  1.00  0.00    -0.370 N 
ATOM     45  N   UNL     1     -12.540  -2.498  -0.437  1.00  0.00    -0.370 N 
ATOM     46  H   UNL     1     -11.515  -3.321  -2.439  1.00  0.00     0.159 HD
ATOM     47  H   UNL     1     -11.733  -1.961  -3.459  1.00  0.00     0.159 HD
ATOM     48  H   UNL     1     -13.078  -2.130   0.335  1.00  0.00     0.159 HD
ATOM     49  H   UNL     1     -11.834  -3.187  -0.248  1.00  0.00     0.159 HD
ENDBRANCH  41  42
ENDBRANCH  40  41
ENDBRANCH  39  40
ENDBRANCH  38  39
ENDBRANCH  36  38
ENDBRANCH   5  34
BRANCH   8  50
ATOM     50  O   UNL     1     -11.104  -5.330  -3.406  1.00  0.00    -0.245 OA
BRANCH  50  51
ATOM     51  S   UNL     1     -11.281  -5.534  -1.802  1.00  0.00     0.397 S 
ATOM     52  O   UNL     1     -12.689  -5.434  -1.492  1.00  0.00    -0.169 OA
ATOM     53  O   UNL     1     -10.290  -4.745  -1.099  1.00  0.00    -0.169 OA
BRANCH  51  54
ATOM     54  O   UNL     1     -10.900  -7.086  -1.618  1.00  0.00    -0.264 OA
ATOM     55  H   UNL     1      -9.941  -7.180  -1.790  1.00  0.00     0.236 HD
ENDBRANCH  51  54
ENDBRANCH  50  51
ENDBRANCH   8  50
TORSDOF 19
ENDMDL
MODEL 29
REMARK VINA RESULT:    -6.431      4.793      9.785
REMARK INTER + INTRA:         -16.619
REMARK INTER:                 -11.520
REMARK INTRA:                  -5.099
REMARK UNBOUND:                -3.609
REMARK SMILES CC[C@@H](C)[C@@H](NC(=O)[C@@H](O)Cc1ccc(O)c(Cl)c1)C(=O)N1[C@H](C(=O)NCCCCN=C(N)N)C[C@H]2CC[C@H](OS(=O)(=O)O)C[C@@H]21
REMARK SMILES IDX 22 1 36 2 46 3 35 4 23 5 45 6 37 7 39 8 38 9 20 10 21 11
REMARK SMILES IDX 5 12 6 13 7 14 8 15 9 17 11 18 12 19 17 20 19 21 15 22 14 23
REMARK SMILES IDX 13 24 18 25 16 26 10 28 3 30 4 31 2 32 1 33 24 34 25 35
REMARK SMILES IDX 26 36 27 38 28 39 29 40 30 41 31 42 32 43 33 44 34 45 40 50
REMARK SMILES IDX 41 51 42 52 43 53 44 54
REMARK H PARENT 6 16 16 27 10 29 26 37 33 46 33 47 34 48 34 49 44 55
ROOT
ATOM      1  N   UNL     1      -7.689   0.828  -7.885  1.00  0.00    -0.326 N 
ATOM      2  C   UNL     1      -9.686   0.552  -6.670  1.00  0.00     0.014 C 
ATOM      3  C   UNL     1      -8.231   0.082  -6.746  1.00  0.00     0.091 C 
ATOM      4  C   UNL     1     -10.047   0.762  -8.132  1.00  0.00     0.041 C 
ATOM      5  C   UNL     1      -8.788   1.501  -8.621  1.00  0.00     0.175 C 
ATOM      6  C   UNL     1      -7.586   0.283  -5.375  1.00  0.00     0.059 C 
ATOM      7  C   UNL     1     -10.518  -0.394  -5.826  1.00  0.00     0.008 C 
ATOM      8  C   UNL     1      -8.569   0.122  -4.196  1.00  0.00     0.143 C 
ATOM      9  C   UNL     1      -9.752  -0.802  -4.550  1.00  0.00     0.034 C 
ENDROOT
BRANCH   1  10
ATOM     10  C   UNL     1      -6.422   0.800  -8.442  1.00  0.00     0.246 C 
ATOM     11  O   UNL     1      -5.572   1.603  -8.044  1.00  0.00    -0.272 OA
BRANCH  10  12
ATOM     12  C   UNL     1      -6.083  -0.266  -9.524  1.00  0.00     0.174 C 
BRANCH  12  13
ATOM     13  N   UNL     1      -6.285  -1.609  -8.982  1.00  0.00    -0.342 N 
ATOM     14  C   UNL     1      -6.959  -2.626  -9.620  1.00  0.00     0.249 C 
ATOM     15  O   UNL     1      -7.446  -2.524 -10.739  1.00  0.00    -0.272 OA
ATOM     16  H   UNL     1      -6.076  -1.794  -8.004  1.00  0.00     0.164 HD
BRANCH  14  17
ATOM     17  C   UNL     1      -7.019  -3.920  -8.780  1.00  0.00     0.207 C 
BRANCH  17  18
ATOM     18  C   UNL     1      -7.041  -3.588  -7.285  1.00  0.00     0.077 C 
BRANCH  18  19
ATOM     19  C   UNL     1      -8.407  -3.819  -6.678  1.00  0.00    -0.043 A 
ATOM     20  C   UNL     1      -9.787  -4.489  -4.800  1.00  0.00     0.083 A 
ATOM     21  C   UNL     1      -8.528  -4.229  -5.342  1.00  0.00     0.028 A 
ATOM     22  C   UNL     1     -10.930  -4.343  -5.587  1.00  0.00     0.134 A 
ATOM     23  C   UNL     1     -10.824  -3.936  -6.912  1.00  0.00     0.048 A 
ATOM     24  C   UNL     1      -9.565  -3.677  -7.458  1.00  0.00     0.008 A 
ATOM     25  Cl  UNL     1      -9.915  -4.994  -3.155  1.00  0.00    -0.080 Cl
BRANCH  22  26
ATOM     26  O   UNL     1     -12.185  -4.596  -5.102  1.00  0.00    -0.506 OA
ATOM     27  H   UNL     1     -12.074  -5.179  -4.328  1.00  0.00     0.293 HD
ENDBRANCH  22  26
ENDBRANCH  18  19
ENDBRANCH  17  18
BRANCH  17  28
ATOM     28  O   UNL     1      -5.897  -4.772  -9.063  1.00  0.00    -0.383 OA
ATOM     29  H   UNL     1      -5.949  -5.513  -8.418  1.00  0.00     0.211 HD
ENDBRANCH  17  28
ENDBRANCH  14  17
ENDBRANCH  12  13
BRANCH  12  30
ATOM     30  C   UNL     1      -4.665  -0.079 -10.128  1.00  0.00     0.018 C 
ATOM     31  C   UNL     1      -4.691  -0.268 -11.653  1.00  0.00     0.010 C 
BRANCH  30  32
ATOM     32  C   UNL     1      -3.594  -1.001  -9.496  1.00  0.00     0.002 C 
ATOM     33  C   UNL     1      -2.279  -0.320  -9.136  1.00  0.00     0.004 C 
ENDBRANCH  30  32
ENDBRANCH  12  30
ENDBRANCH  10  12
ENDBRANCH   1  10
BRANCH   5  34
ATOM     34  C   UNL     1      -8.839   3.012  -8.271  1.00  0.00     0.242 C 
ATOM     35  O   UNL     1      -9.754   3.744  -8.650  1.00  0.00    -0.273 OA
ATOM     36  N   UNL     1      -7.763   3.484  -7.554  1.00  0.00    -0.354 N 
ATOM     37  H   UNL     1      -6.979   2.856  -7.373  1.00  0.00     0.163 HD
BRANCH  36  38
ATOM     38  C   UNL     1      -7.749   4.806  -6.962  1.00  0.00     0.116 C 
BRANCH  38  39
ATOM     39  C   UNL     1      -6.537   4.949  -6.043  1.00  0.00     0.023 C 
BRANCH  39  40
ATOM     40  C   UNL     1      -6.918   5.426  -4.646  1.00  0.00     0.026 C 
BRANCH  40  41
ATOM     41  C   UNL     1      -5.824   5.078  -3.637  1.00  0.00     0.146 C 
BRANCH  41  42
ATOM     42  N   UNL     1      -6.254   3.955  -2.814  1.00  0.00    -0.254 NA
ATOM     43  C   UNL     1      -5.768   2.790  -3.029  1.00  0.00     0.185 C 
ATOM     44  N   UNL     1      -4.868   2.383  -3.943  1.00  0.00    -0.370 N 
ATOM     45  N   UNL     1      -6.180   1.767  -2.262  1.00  0.00    -0.370 N 
ATOM     46  H   UNL     1      -4.762   1.407  -4.159  1.00  0.00     0.159 HD
ATOM     47  H   UNL     1      -4.442   3.032  -4.597  1.00  0.00     0.159 HD
ATOM     48  H   UNL     1      -6.854   1.990  -1.542  1.00  0.00     0.159 HD
ATOM     49  H   UNL     1      -5.685   0.895  -2.208  1.00  0.00     0.159 HD
ENDBRANCH  41  42
ENDBRANCH  40  41
ENDBRANCH  39  40
ENDBRANCH  38  39
ENDBRANCH  36  38
ENDBRANCH   5  34
BRANCH   8  50
ATOM     50  O   UNL     1      -9.088   1.396  -3.813  1.00  0.00    -0.245 OA
BRANCH  50  51
ATOM     51  S   UNL     1      -9.656   1.611  -2.305  1.00  0.00     0.397 S 
ATOM     52  O   UNL     1      -8.957   0.698  -1.430  1.00  0.00    -0.169 OA
ATOM     53  O   UNL     1     -11.103   1.677  -2.335  1.00  0.00    -0.169 OA
BRANCH  51  54
ATOM     54  O   UNL     1      -9.101   3.076  -1.943  1.00  0.00    -0.264 OA
ATOM     55  H   UNL     1      -8.841   3.072  -0.999  1.00  0.00     0.236 HD
ENDBRANCH  51  54
ENDBRANCH  50  51
ENDBRANCH   8  50
TORSDOF 19
ENDMDL
MODEL 30
REMARK VINA RESULT:    -6.397      4.499      7.604
REMARK INTER + INTRA:         -16.550
REMARK INTER:                 -13.509
REMARK INTRA:                  -3.040
REMARK UNBOUND:                -3.609
REMARK SMILES CC[C@@H](C)[C@@H](NC(=O)[C@@H](O)Cc1ccc(O)c(Cl)c1)C(=O)N1[C@H](C(=O)NCCCCN=C(N)N)C[C@H]2CC[C@H](OS(=O)(=O)O)C[C@@H]21
REMARK SMILES IDX 22 1 36 2 46 3 35 4 23 5 45 6 37 7 39 8 38 9 20 10 21 11
REMARK SMILES IDX 5 12 6 13 7 14 8 15 9 17 11 18 12 19 17 20 19 21 15 22 14 23
REMARK SMILES IDX 13 24 18 25 16 26 10 28 3 30 4 31 2 32 1 33 24 34 25 35
REMARK SMILES IDX 26 36 27 38 28 39 29 40 30 41 31 42 32 43 33 44 34 45 40 50
REMARK SMILES IDX 41 51 42 52 43 53 44 54
REMARK H PARENT 6 16 16 27 10 29 26 37 33 46 33 47 34 48 34 49 44 55
ROOT
ATOM      1  N   UNL     1      -7.530   1.952  -4.830  1.00  0.00    -0.326 N 
ATOM      2  C   UNL     1      -6.577   3.716  -3.595  1.00  0.00     0.014 C 
ATOM      3  C   UNL     1      -7.004   3.309  -5.008  1.00  0.00     0.091 C 
ATOM      4  C   UNL     1      -6.086   2.404  -3.002  1.00  0.00     0.041 C 
ATOM      5  C   UNL     1      -7.207   1.457  -3.468  1.00  0.00     0.175 C 
ATOM      6  C   UNL     1      -7.941   4.382  -5.558  1.00  0.00     0.059 C 
ATOM      7  C   UNL     1      -5.644   4.910  -3.633  1.00  0.00     0.008 C 
ATOM      8  C   UNL     1      -7.631   5.803  -5.037  1.00  0.00     0.143 C 
ATOM      9  C   UNL     1      -6.150   5.964  -4.640  1.00  0.00     0.034 C 
ENDROOT
BRANCH   1  10
ATOM     10  C   UNL     1      -8.044   1.069  -5.764  1.00  0.00     0.246 C 
ATOM     11  O   UNL     1      -9.195   1.238  -6.181  1.00  0.00    -0.272 OA
BRANCH  10  12
ATOM     12  C   UNL     1      -7.151  -0.087  -6.300  1.00  0.00     0.174 C 
BRANCH  12  13
ATOM     13  N   UNL     1      -6.252   0.417  -7.337  1.00  0.00    -0.342 N 
ATOM     14  C   UNL     1      -4.979   0.893  -7.117  1.00  0.00     0.249 C 
ATOM     15  O   UNL     1      -4.442   0.921  -6.016  1.00  0.00    -0.272 OA
ATOM     16  H   UNL     1      -6.612   0.601  -8.270  1.00  0.00     0.164 HD
BRANCH  14  17
ATOM     17  C   UNL     1      -4.288   1.370  -8.412  1.00  0.00     0.207 C 
BRANCH  17  18
ATOM     18  C   UNL     1      -4.019   2.877  -8.352  1.00  0.00     0.077 C 
BRANCH  18  19
ATOM     19  C   UNL     1      -2.776   3.194  -7.551  1.00  0.00    -0.043 A 
ATOM     20  C   UNL     1      -0.416   2.852  -7.108  1.00  0.00     0.083 A 
ATOM     21  C   UNL     1      -1.550   2.595  -7.880  1.00  0.00     0.028 A 
ATOM     22  C   UNL     1      -0.499   3.704  -6.007  1.00  0.00     0.134 A 
ATOM     23  C   UNL     1      -1.706   4.304  -5.670  1.00  0.00     0.048 A 
ATOM     24  C   UNL     1      -2.844   4.048  -6.439  1.00  0.00     0.008 A 
ATOM     25  Cl  UNL     1       1.082   2.106  -7.528  1.00  0.00    -0.080 Cl
BRANCH  22  26
ATOM     26  O   UNL     1       0.584   3.977  -5.215  1.00  0.00    -0.506 OA
ATOM     27  H   UNL     1       0.980   3.119  -4.976  1.00  0.00     0.293 HD
ENDBRANCH  22  26
ENDBRANCH  18  19
ENDBRANCH  17  18
BRANCH  17  28
ATOM     28  O   UNL     1      -5.093   1.075  -9.566  1.00  0.00    -0.383 OA
ATOM     29  H   UNL     1      -4.484   0.672 -10.226  1.00  0.00     0.211 HD
ENDBRANCH  17  28
ENDBRANCH  14  17
ENDBRANCH  12  13
BRANCH  12  30
ATOM     30  C   UNL     1      -7.977  -1.312  -6.776  1.00  0.00     0.018 C 
ATOM     31  C   UNL     1      -8.325  -2.229  -5.593  1.00  0.00     0.010 C 
BRANCH  30  32
ATOM     32  C   UNL     1      -7.289  -2.128  -7.898  1.00  0.00     0.002 C 
ATOM     33  C   UNL     1      -7.063  -3.601  -7.586  1.00  0.00     0.004 C 
ENDBRANCH  30  32
ENDBRANCH  12  30
ENDBRANCH  10  12
ENDBRANCH   1  10
BRANCH   5  34
ATOM     34  C   UNL     1      -8.450   1.544  -2.543  1.00  0.00     0.242 C 
ATOM     35  O   UNL     1      -9.465   2.163  -2.861  1.00  0.00    -0.273 OA
ATOM     36  N   UNL     1      -8.315   0.925  -1.320  1.00  0.00    -0.354 N 
ATOM     37  H   UNL     1      -7.407   0.532  -1.066  1.00  0.00     0.163 HD
BRANCH  36  38
ATOM     38  C   UNL     1      -9.437   0.723  -0.427  1.00  0.00     0.116 C 
BRANCH  38  39
ATOM     39  C   UNL     1     -10.100  -0.620  -0.724  1.00  0.00     0.023 C 
BRANCH  39  40
ATOM     40  C   UNL     1     -11.341  -0.477  -1.599  1.00  0.00     0.026 C 
BRANCH  40  41
ATOM     41  C   UNL     1     -11.318  -1.491  -2.742  1.00  0.00     0.146 C 
BRANCH  41  42
ATOM     42  N   UNL     1     -12.020  -2.702  -2.340  1.00  0.00    -0.254 NA
ATOM     43  C   UNL     1     -11.400  -3.822  -2.337  1.00  0.00     0.185 C 
ATOM     44  N   UNL     1     -10.125  -4.106  -2.659  1.00  0.00    -0.370 N 
ATOM     45  N   UNL     1     -12.066  -4.928  -1.967  1.00  0.00    -0.370 N 
ATOM     46  H   UNL     1      -9.842  -5.053  -2.846  1.00  0.00     0.159 HD
ATOM     47  H   UNL     1      -9.475  -3.382  -2.949  1.00  0.00     0.159 HD
ATOM     48  H   UNL     1     -13.033  -4.801  -1.699  1.00  0.00     0.159 HD
ATOM     49  H   UNL     1     -11.604  -5.782  -1.713  1.00  0.00     0.159 HD
ENDBRANCH  41  42
ENDBRANCH  40  41
ENDBRANCH  39  40
ENDBRANCH  38  39
ENDBRANCH  36  38
ENDBRANCH   5  34
BRANCH   8  50
ATOM     50  O   UNL     1      -8.441   6.095  -3.898  1.00  0.00    -0.245 OA
BRANCH  50  51
ATOM     51  S   UNL     1     -10.017   6.442  -4.101  1.00  0.00     0.397 S 
ATOM     52  O   UNL     1     -10.770   5.221  -3.924  1.00  0.00    -0.169 OA
ATOM     53  O   UNL     1     -10.184   7.275  -5.274  1.00  0.00    -0.169 OA
BRANCH  51  54
ATOM     54  O   UNL     1     -10.332   7.342  -2.806  1.00  0.00    -0.264 OA
ATOM     55  H   UNL     1     -10.374   8.276  -3.095  1.00  0.00     0.236 HD
ENDBRANCH  51  54
ENDBRANCH  50  51
ENDBRANCH   8  50
TORSDOF 19
ENDMDL
MODEL 31
REMARK VINA RESULT:    -6.393      6.153      8.844
REMARK INTER + INTRA:         -16.542
REMARK INTER:                 -13.067
REMARK INTRA:                  -3.475
REMARK UNBOUND:                -3.609
REMARK SMILES CC[C@@H](C)[C@@H](NC(=O)[C@@H](O)Cc1ccc(O)c(Cl)c1)C(=O)N1[C@H](C(=O)NCCCCN=C(N)N)C[C@H]2CC[C@H](OS(=O)(=O)O)C[C@@H]21
REMARK SMILES IDX 22 1 36 2 46 3 35 4 23 5 45 6 37 7 39 8 38 9 20 10 21 11
REMARK SMILES IDX 5 12 6 13 7 14 8 15 9 17 11 18 12 19 17 20 19 21 15 22 14 23
REMARK SMILES IDX 13 24 18 25 16 26 10 28 3 30 4 31 2 32 1 33 24 34 25 35
REMARK SMILES IDX 26 36 27 38 28 39 29 40 30 41 31 42 32 43 33 44 34 45 40 50
REMARK SMILES IDX 41 51 42 52 43 53 44 54
REMARK H PARENT 6 16 16 27 10 29 26 37 33 46 33 47 34 48 34 49 44 55
ROOT
ATOM      1  N   UNL     1      -9.027   5.800  -5.285  1.00  0.00    -0.326 N 
ATOM      2  C   UNL     1     -10.906   7.095  -4.708  1.00  0.00     0.014 C 
ATOM      3  C   UNL     1      -9.448   7.199  -5.164  1.00  0.00     0.091 C 
ATOM      4  C   UNL     1     -10.893   5.859  -3.821  1.00  0.00     0.041 C 
ATOM      5  C   UNL     1     -10.054   4.907  -4.693  1.00  0.00     0.175 C 
ATOM      6  C   UNL     1      -9.393   8.082  -6.409  1.00  0.00     0.059 C 
ATOM      7  C   UNL     1     -11.391   8.414  -4.138  1.00  0.00     0.008 C 
ATOM      8  C   UNL     1     -10.471   9.187  -6.435  1.00  0.00     0.143 C 
ATOM      9  C   UNL     1     -10.920   9.592  -5.017  1.00  0.00     0.034 C 
ENDROOT
BRANCH   1  10
ATOM     10  C   UNL     1      -7.799   5.270  -5.644  1.00  0.00     0.246 C 
ATOM     11  O   UNL     1      -7.413   5.386  -6.812  1.00  0.00    -0.272 OA
BRANCH  10  12
ATOM     12  C   UNL     1      -6.915   4.581  -4.565  1.00  0.00     0.174 C 
BRANCH  12  13
ATOM     13  N   UNL     1      -5.510   4.624  -4.969  1.00  0.00    -0.342 N 
ATOM     14  C   UNL     1      -4.492   5.179  -4.228  1.00  0.00     0.249 C 
ATOM     15  O   UNL     1      -4.648   5.681  -3.121  1.00  0.00    -0.272 OA
ATOM     16  H   UNL     1      -5.253   4.389  -5.924  1.00  0.00     0.164 HD
BRANCH  14  17
ATOM     17  C   UNL     1      -3.122   5.084  -4.933  1.00  0.00     0.207 C 
BRANCH  17  18
ATOM     18  C   UNL     1      -2.994   3.752  -5.678  1.00  0.00     0.077 C 
BRANCH  18  19
ATOM     19  C   UNL     1      -1.735   3.693  -6.513  1.00  0.00    -0.043 A 
ATOM     20  C   UNL     1      -0.457   4.418  -8.443  1.00  0.00     0.083 A 
ATOM     21  C   UNL     1      -1.599   4.510  -7.646  1.00  0.00     0.028 A 
ATOM     22  C   UNL     1       0.552   3.512  -8.115  1.00  0.00     0.134 A 
ATOM     23  C   UNL     1       0.430   2.697  -6.996  1.00  0.00     0.048 A 
ATOM     24  C   UNL     1      -0.713   2.785  -6.198  1.00  0.00     0.008 A 
ATOM     25  Cl  UNL     1      -0.307   5.430  -9.831  1.00  0.00    -0.080 Cl
BRANCH  22  26
ATOM     26  O   UNL     1       1.685   3.378  -8.872  1.00  0.00    -0.506 OA
ATOM     27  H   UNL     1       2.440   3.419  -8.256  1.00  0.00     0.293 HD
ENDBRANCH  22  26
ENDBRANCH  18  19
ENDBRANCH  17  18
BRANCH  17  28
ATOM     28  O   UNL     1      -2.045   5.207  -3.990  1.00  0.00    -0.383 OA
ATOM     29  H   UNL     1      -1.862   6.171  -3.910  1.00  0.00     0.211 HD
ENDBRANCH  17  28
ENDBRANCH  14  17
ENDBRANCH  12  13
BRANCH  12  30
ATOM     30  C   UNL     1      -7.391   3.142  -4.229  1.00  0.00     0.018 C 
ATOM     31  C   UNL     1      -6.423   2.460  -3.250  1.00  0.00     0.010 C 
BRANCH  30  32
ATOM     32  C   UNL     1      -7.601   2.250  -5.477  1.00  0.00     0.002 C 
ATOM     33  C   UNL     1      -6.469   1.276  -5.779  1.00  0.00     0.004 C 
ENDBRANCH  30  32
ENDBRANCH  12  30
ENDBRANCH  10  12
ENDBRANCH   1  10
BRANCH   5  34
ATOM     34  C   UNL     1     -10.912   4.244  -5.804  1.00  0.00     0.242 C 
ATOM     35  O   UNL     1     -10.669   4.395  -7.001  1.00  0.00    -0.273 OA
ATOM     36  N   UNL     1     -11.993   3.520  -5.354  1.00  0.00    -0.354 N 
ATOM     37  H   UNL     1     -12.212   3.531  -4.357  1.00  0.00     0.163 HD
BRANCH  36  38
ATOM     38  C   UNL     1     -12.768   2.664  -6.229  1.00  0.00     0.116 C 
BRANCH  38  39
ATOM     39  C   UNL     1     -14.245   3.043  -6.149  1.00  0.00     0.023 C 
BRANCH  39  40
ATOM     40  C   UNL     1     -14.894   3.152  -7.525  1.00  0.00     0.026 C 
BRANCH  40  41
ATOM     41  C   UNL     1     -14.137   4.148  -8.404  1.00  0.00     0.146 C 
BRANCH  41  42
ATOM     42  N   UNL     1     -14.962   5.326  -8.637  1.00  0.00    -0.254 NA
ATOM     43  C   UNL     1     -14.725   6.404  -7.990  1.00  0.00     0.185 C 
ATOM     44  N   UNL     1     -13.783   6.669  -7.066  1.00  0.00    -0.370 N 
ATOM     45  N   UNL     1     -15.500   7.477  -8.216  1.00  0.00    -0.370 N 
ATOM     46  H   UNL     1     -13.865   7.472  -6.466  1.00  0.00     0.159 HD
ATOM     47  H   UNL     1     -13.102   5.971  -6.784  1.00  0.00     0.159 HD
ATOM     48  H   UNL     1     -16.231   7.365  -8.906  1.00  0.00     0.159 HD
ATOM     49  H   UNL     1     -15.239   8.406  -7.937  1.00  0.00     0.159 HD
ENDBRANCH  41  42
ENDBRANCH  40  41
ENDBRANCH  39  40
ENDBRANCH  38  39
ENDBRANCH  36  38
ENDBRANCH   5  34
BRANCH   8  50
ATOM     50  O   UNL     1     -11.615   8.739  -7.162  1.00  0.00    -0.245 OA
BRANCH  50  51
ATOM     51  S   UNL     1     -12.605   9.828  -7.853  1.00  0.00     0.397 S 
ATOM     52  O   UNL     1     -11.801  10.948  -8.289  1.00  0.00    -0.169 OA
ATOM     53  O   UNL     1     -13.779  10.013  -7.026  1.00  0.00    -0.169 OA
BRANCH  51  54
ATOM     54  O   UNL     1     -13.059   9.066  -9.195  1.00  0.00    -0.264 OA
ATOM     55  H   UNL     1     -12.776   9.611  -9.957  1.00  0.00     0.236 HD
ENDBRANCH  51  54
ENDBRANCH  50  51
ENDBRANCH   8  50
TORSDOF 19
ENDMDL
MODEL 32
REMARK VINA RESULT:    -6.385      1.800      2.682
REMARK INTER + INTRA:         -16.526
REMARK INTER:                 -13.005
REMARK INTRA:                  -3.521
REMARK UNBOUND:                -3.609
REMARK SMILES CC[C@@H](C)[C@@H](NC(=O)[C@@H](O)Cc1ccc(O)c(Cl)c1)C(=O)N1[C@H](C(=O)NCCCCN=C(N)N)C[C@H]2CC[C@H](OS(=O)(=O)O)C[C@@H]21
REMARK SMILES IDX 22 1 36 2 46 3 35 4 23 5 45 6 37 7 39 8 38 9 20 10 21 11
REMARK SMILES IDX 5 12 6 13 7 14 8 15 9 17 11 18 12 19 17 20 19 21 15 22 14 23
REMARK SMILES IDX 13 24 18 25 16 26 10 28 3 30 4 31 2 32 1 33 24 34 25 35
REMARK SMILES IDX 26 36 27 38 28 39 29 40 30 41 31 42 32 43 33 44 34 45 40 50
REMARK SMILES IDX 41 51 42 52 43 53 44 54
REMARK H PARENT 6 16 16 27 10 29 26 37 33 46 33 47 34 48 34 49 44 55
ROOT
ATOM      1  N   UNL     1      -6.703   1.570  -8.820  1.00  0.00    -0.326 N 
ATOM      2  C   UNL     1      -5.903   2.006 -10.991  1.00  0.00     0.014 C 
ATOM      3  C   UNL     1      -5.536   2.128  -9.509  1.00  0.00     0.091 C 
ATOM      4  C   UNL     1      -7.405   2.242 -10.984  1.00  0.00     0.041 C 
ATOM      5  C   UNL     1      -7.813   1.368  -9.784  1.00  0.00     0.175 C 
ATOM      6  C   UNL     1      -4.179   1.461  -9.291  1.00  0.00     0.059 C 
ATOM      7  C   UNL     1      -5.015   2.891 -11.844  1.00  0.00     0.008 C 
ATOM      8  C   UNL     1      -3.235   1.561 -10.509  1.00  0.00     0.143 C 
ATOM      9  C   UNL     1      -3.546   2.793 -11.384  1.00  0.00     0.034 C 
ENDROOT
BRANCH   1  10
ATOM     10  C   UNL     1      -6.952   1.433  -7.465  1.00  0.00     0.246 C 
ATOM     11  O   UNL     1      -6.986   0.301  -6.971  1.00  0.00    -0.272 OA
BRANCH  10  12
ATOM     12  C   UNL     1      -7.142   2.705  -6.588  1.00  0.00     0.174 C 
BRANCH  12  13
ATOM     13  N   UNL     1      -5.957   2.919  -5.758  1.00  0.00    -0.342 N 
ATOM     14  C   UNL     1      -5.362   4.140  -5.530  1.00  0.00     0.249 C 
ATOM     15  O   UNL     1      -5.782   5.198  -5.980  1.00  0.00    -0.272 OA
ATOM     16  H   UNL     1      -5.408   2.121  -5.448  1.00  0.00     0.164 HD
BRANCH  14  17
ATOM     17  C   UNL     1      -4.116   4.035  -4.624  1.00  0.00     0.207 C 
BRANCH  17  18
ATOM     18  C   UNL     1      -3.305   5.333  -4.677  1.00  0.00     0.077 C 
BRANCH  18  19
ATOM     19  C   UNL     1      -2.086   5.199  -5.563  1.00  0.00    -0.043 A 
ATOM     20  C   UNL     1      -1.107   4.780  -7.742  1.00  0.00     0.083 A 
ATOM     21  C   UNL     1      -2.233   4.953  -6.937  1.00  0.00     0.028 A 
ATOM     22  C   UNL     1       0.169   4.850  -7.182  1.00  0.00     0.134 A 
ATOM     23  C   UNL     1       0.329   5.094  -5.823  1.00  0.00     0.048 A 
ATOM     24  C   UNL     1      -0.796   5.265  -5.014  1.00  0.00     0.008 A 
ATOM     25  Cl  UNL     1      -1.308   4.478  -9.428  1.00  0.00    -0.080 Cl
BRANCH  22  26
ATOM     26  O   UNL     1       1.303   4.677  -7.930  1.00  0.00    -0.506 OA
ATOM     27  H   UNL     1       1.314   5.393  -8.592  1.00  0.00     0.293 HD
ENDBRANCH  22  26
ENDBRANCH  18  19
ENDBRANCH  17  18
BRANCH  17  28
ATOM     28  O   UNL     1      -3.281   2.935  -5.019  1.00  0.00    -0.383 OA
ATOM     29  H   UNL     1      -3.167   3.015  -5.993  1.00  0.00     0.211 HD
ENDBRANCH  17  28
ENDBRANCH  14  17
ENDBRANCH  12  13
BRANCH  12  30
ATOM     30  C   UNL     1      -8.450   2.669  -5.754  1.00  0.00     0.018 C 
ATOM     31  C   UNL     1      -9.118   4.053  -5.725  1.00  0.00     0.010 C 
BRANCH  30  32
ATOM     32  C   UNL     1      -8.254   2.144  -4.311  1.00  0.00     0.002 C 
ATOM     33  C   UNL     1      -9.535   1.802  -3.562  1.00  0.00     0.004 C 
ENDBRANCH  30  32
ENDBRANCH  12  30
ENDBRANCH  10  12
ENDBRANCH   1  10
BRANCH   5  34
ATOM     34  C   UNL     1      -7.932  -0.128 -10.180  1.00  0.00     0.242 C 
ATOM     35  O   UNL     1      -7.053  -0.713 -10.812  1.00  0.00    -0.273 OA
ATOM     36  N   UNL     1      -9.114  -0.737  -9.821  1.00  0.00    -0.354 N 
ATOM     37  H   UNL     1      -9.853  -0.168  -9.405  1.00  0.00     0.163 HD
BRANCH  36  38
ATOM     38  C   UNL     1      -9.307  -2.169  -9.917  1.00  0.00     0.116 C 
BRANCH  38  39
ATOM     39  C   UNL     1      -9.848  -2.709  -8.595  1.00  0.00     0.023 C 
BRANCH  39  40
ATOM     40  C   UNL     1      -8.910  -3.726  -7.953  1.00  0.00     0.026 C 
BRANCH  40  41
ATOM     41  C   UNL     1      -7.642  -3.044  -7.439  1.00  0.00     0.146 C 
BRANCH  41  42
ATOM     42  N   UNL     1      -6.469  -3.788  -7.880  1.00  0.00    -0.254 NA
ATOM     43  C   UNL     1      -5.466  -3.159  -8.367  1.00  0.00     0.185 C 
ATOM     44  N   UNL     1      -5.283  -1.840  -8.559  1.00  0.00    -0.370 N 
ATOM     45  N   UNL     1      -4.397  -3.864  -8.772  1.00  0.00    -0.370 N 
ATOM     46  H   UNL     1      -4.557  -1.507  -9.170  1.00  0.00     0.159 HD
ATOM     47  H   UNL     1      -5.989  -1.160  -8.296  1.00  0.00     0.159 HD
ATOM     48  H   UNL     1      -4.450  -4.866  -8.654  1.00  0.00     0.159 HD
ATOM     49  H   UNL     1      -3.500  -3.443  -8.937  1.00  0.00     0.159 HD
ENDBRANCH  41  42
ENDBRANCH  40  41
ENDBRANCH  39  40
ENDBRANCH  38  39
ENDBRANCH  36  38
ENDBRANCH   5  34
BRANCH   8  50
ATOM     50  O   UNL     1      -3.352   0.390 -11.317  1.00  0.00    -0.245 OA
BRANCH  50  51
ATOM     51  S   UNL     1      -2.130  -0.683 -11.358  1.00  0.00     0.397 S 
ATOM     52  O   UNL     1      -0.999  -0.098 -10.673  1.00  0.00    -0.169 OA
ATOM     53  O   UNL     1      -2.009  -1.231 -12.693  1.00  0.00    -0.169 OA
BRANCH  51  54
ATOM     54  O   UNL     1      -2.673  -1.847 -10.391  1.00  0.00    -0.264 OA
ATOM     55  H   UNL     1      -3.500  -1.528  -9.976  1.00  0.00     0.236 HD
ENDBRANCH  51  54
ENDBRANCH  50  51
ENDBRANCH   8  50
TORSDOF 19
ENDMDL
MODEL 33
REMARK VINA RESULT:    -6.385     12.025     15.039
REMARK INTER + INTRA:         -16.525
REMARK INTER:                 -12.866
REMARK INTRA:                  -3.659
REMARK UNBOUND:                -3.609
REMARK SMILES CC[C@@H](C)[C@@H](NC(=O)[C@@H](O)Cc1ccc(O)c(Cl)c1)C(=O)N1[C@H](C(=O)NCCCCN=C(N)N)C[C@H]2CC[C@H](OS(=O)(=O)O)C[C@@H]21
REMARK SMILES IDX 22 1 36 2 46 3 35 4 23 5 45 6 37 7 39 8 38 9 20 10 21 11
REMARK SMILES IDX 5 12 6 13 7 14 8 15 9 17 11 18 12 19 17 20 19 21 15 22 14 23
REMARK SMILES IDX 13 24 18 25 16 26 10 28 3 30 4 31 2 32 1 33 24 34 25 35
REMARK SMILES IDX 26 36 27 38 28 39 29 40 30 41 31 42 32 43 33 44 34 45 40 50
REMARK SMILES IDX 41 51 42 52 43 53 44 54
REMARK H PARENT 6 16 16 27 10 29 26 37 33 46 33 47 34 48 34 49 44 55
ROOT
ATOM      1  N   UNL     1     -10.963  -6.571   2.630  1.00  0.00    -0.326 N 
ATOM      2  C   UNL     1      -9.093  -6.163   1.260  1.00  0.00     0.014 C 
ATOM      3  C   UNL     1      -9.815  -7.265   2.040  1.00  0.00     0.091 C 
ATOM      4  C   UNL     1      -9.322  -4.934   2.127  1.00  0.00     0.041 C 
ATOM      5  C   UNL     1     -10.817  -5.106   2.453  1.00  0.00     0.175 C 
ATOM      6  C   UNL     1     -10.082  -8.432   1.092  1.00  0.00     0.059 C 
ATOM      7  C   UNL     1      -7.675  -6.579   0.920  1.00  0.00     0.008 C 
ATOM      8  C   UNL     1      -9.009  -8.600  -0.005  1.00  0.00     0.143 C 
ATOM      9  C   UNL     1      -7.639  -8.043   0.434  1.00  0.00     0.034 C 
ENDROOT
BRANCH   1  10
ATOM     10  C   UNL     1     -11.964  -7.055   3.456  1.00  0.00     0.246 C 
ATOM     11  O   UNL     1     -12.876  -7.728   2.965  1.00  0.00    -0.272 OA
BRANCH  10  12
ATOM     12  C   UNL     1     -11.896  -6.777   4.986  1.00  0.00     0.174 C 
BRANCH  12  13
ATOM     13  N   UNL     1     -10.584  -7.163   5.505  1.00  0.00    -0.342 N 
ATOM     14  C   UNL     1      -9.661  -6.294   6.044  1.00  0.00     0.249 C 
ATOM     15  O   UNL     1      -9.852  -5.091   6.174  1.00  0.00    -0.272 OA
ATOM     16  H   UNL     1     -10.224  -8.096   5.322  1.00  0.00     0.164 HD
BRANCH  14  17
ATOM     17  C   UNL     1      -8.364  -7.003   6.487  1.00  0.00     0.207 C 
BRANCH  17  18
ATOM     18  C   UNL     1      -7.998  -8.117   5.500  1.00  0.00     0.077 C 
BRANCH  18  19
ATOM     19  C   UNL     1      -6.556  -8.024   5.057  1.00  0.00    -0.043 A 
ATOM     20  C   UNL     1      -4.215  -7.662   5.579  1.00  0.00     0.083 A 
ATOM     21  C   UNL     1      -5.539  -7.796   5.997  1.00  0.00     0.028 A 
ATOM     22  C   UNL     1      -3.898  -7.752   4.223  1.00  0.00     0.134 A 
ATOM     23  C   UNL     1      -4.895  -7.977   3.281  1.00  0.00     0.048 A 
ATOM     24  C   UNL     1      -6.222  -8.111   3.696  1.00  0.00     0.008 A 
ATOM     25  Cl  UNL     1      -2.980  -7.382   6.749  1.00  0.00    -0.080 Cl
BRANCH  22  26
ATOM     26  O   UNL     1      -2.616  -7.616   3.764  1.00  0.00    -0.506 OA
ATOM     27  H   UNL     1      -2.068  -7.371   4.533  1.00  0.00     0.293 HD
ENDBRANCH  22  26
ENDBRANCH  18  19
ENDBRANCH  17  18
BRANCH  17  28
ATOM     28  O   UNL     1      -8.502  -7.560   7.804  1.00  0.00    -0.383 OA
ATOM     29  H   UNL     1      -9.417  -7.343   8.096  1.00  0.00     0.211 HD
ENDBRANCH  17  28
ENDBRANCH  14  17
ENDBRANCH  12  13
BRANCH  12  30
ATOM     30  C   UNL     1     -13.061  -7.442   5.768  1.00  0.00     0.018 C 
ATOM     31  C   UNL     1     -13.630  -6.479   6.823  1.00  0.00     0.010 C 
BRANCH  30  32
ATOM     32  C   UNL     1     -12.677  -8.788   6.429  1.00  0.00     0.002 C 
ATOM     33  C   UNL     1     -13.363 -10.018   5.849  1.00  0.00     0.004 C 
ENDBRANCH  30  32
ENDBRANCH  12  30
ENDBRANCH  10  12
ENDBRANCH   1  10
BRANCH   5  34
ATOM     34  C   UNL     1     -11.717  -4.599   1.294  1.00  0.00     0.242 C 
ATOM     35  O   UNL     1     -12.892  -4.946   1.173  1.00  0.00    -0.273 OA
ATOM     36  N   UNL     1     -11.091  -3.779   0.382  1.00  0.00    -0.354 N 
ATOM     37  H   UNL     1     -10.085  -3.625   0.469  1.00  0.00     0.163 HD
BRANCH  36  38
ATOM     38  C   UNL     1     -11.823  -3.048  -0.631  1.00  0.00     0.116 C 
BRANCH  38  39
ATOM     39  C   UNL     1     -11.402  -3.524  -2.020  1.00  0.00     0.023 C 
BRANCH  39  40
ATOM     40  C   UNL     1     -11.435  -5.042  -2.150  1.00  0.00     0.026 C 
BRANCH  40  41
ATOM     41  C   UNL     1     -12.407  -5.471  -3.250  1.00  0.00     0.146 C 
BRANCH  41  42
ATOM     42  N   UNL     1     -11.717  -6.318  -4.214  1.00  0.00    -0.254 NA
ATOM     43  C   UNL     1     -11.300  -5.816  -5.315  1.00  0.00     0.185 C 
ATOM     44  N   UNL     1     -11.387  -4.555  -5.779  1.00  0.00    -0.370 N 
ATOM     45  N   UNL     1     -10.671  -6.615  -6.192  1.00  0.00    -0.370 N 
ATOM     46  H   UNL     1     -11.238  -4.356  -6.753  1.00  0.00     0.159 HD
ATOM     47  H   UNL     1     -11.823  -3.816  -5.235  1.00  0.00     0.159 HD
ATOM     48  H   UNL     1     -10.555  -7.580  -5.916  1.00  0.00     0.159 HD
ATOM     49  H   UNL     1     -10.116  -6.260  -6.950  1.00  0.00     0.159 HD
ENDBRANCH  41  42
ENDBRANCH  40  41
ENDBRANCH  39  40
ENDBRANCH  38  39
ENDBRANCH  36  38
ENDBRANCH   5  34
BRANCH   8  50
ATOM     50  O   UNL     1      -9.413  -7.922  -1.195  1.00  0.00    -0.245 OA
BRANCH  50  51
ATOM     51  S   UNL     1      -8.586  -8.159  -2.575  1.00  0.00     0.397 S 
ATOM     52  O   UNL     1      -7.989  -9.475  -2.517  1.00  0.00    -0.169 OA
ATOM     53  O   UNL     1      -7.800  -6.981  -2.880  1.00  0.00    -0.169 OA
BRANCH  51  54
ATOM     54  O   UNL     1      -9.767  -8.262  -3.661  1.00  0.00    -0.264 OA
ATOM     55  H   UNL     1      -9.882  -9.207  -3.889  1.00  0.00     0.236 HD
ENDBRANCH  51  54
ENDBRANCH  50  51
ENDBRANCH   8  50
TORSDOF 19
ENDMDL
MODEL 34
REMARK VINA RESULT:    -6.355      3.835      6.330
REMARK INTER + INTRA:         -16.464
REMARK INTER:                 -13.097
REMARK INTRA:                  -3.367
REMARK UNBOUND:                -3.609
REMARK SMILES CC[C@@H](C)[C@@H](NC(=O)[C@@H](O)Cc1ccc(O)c(Cl)c1)C(=O)N1[C@H](C(=O)NCCCCN=C(N)N)C[C@H]2CC[C@H](OS(=O)(=O)O)C[C@@H]21
REMARK SMILES IDX 22 1 36 2 46 3 35 4 23 5 45 6 37 7 39 8 38 9 20 10 21 11
REMARK SMILES IDX 5 12 6 13 7 14 8 15 9 17 11 18 12 19 17 20 19 21 15 22 14 23
REMARK SMILES IDX 13 24 18 25 16 26 10 28 3 30 4 31 2 32 1 33 24 34 25 35
REMARK SMILES IDX 26 36 27 38 28 39 29 40 30 41 31 42 32 43 33 44 34 45 40 50
REMARK SMILES IDX 41 51 42 52 43 53 44 54
REMARK H PARENT 6 16 16 27 10 29 26 37 33 46 33 47 34 48 34 49 44 55
ROOT
ATOM      1  N   UNL     1      -5.973   1.979  -5.935  1.00  0.00    -0.326 N 
ATOM      2  C   UNL     1      -5.804   1.881  -8.281  1.00  0.00     0.014 C 
ATOM      3  C   UNL     1      -5.043   2.303  -7.021  1.00  0.00     0.091 C 
ATOM      4  C   UNL     1      -7.247   2.200  -7.924  1.00  0.00     0.041 C 
ATOM      5  C   UNL     1      -7.305   1.636  -6.493  1.00  0.00     0.175 C 
ATOM      6  C   UNL     1      -3.676   1.623  -7.031  1.00  0.00     0.059 C 
ATOM      7  C   UNL     1      -5.190   2.504  -9.519  1.00  0.00     0.008 C 
ATOM      8  C   UNL     1      -3.104   1.398  -8.448  1.00  0.00     0.143 C 
ATOM      9  C   UNL     1      -3.649   2.424  -9.462  1.00  0.00     0.034 C 
ENDROOT
BRANCH   1  10
ATOM     10  C   UNL     1      -5.839   2.158  -4.569  1.00  0.00     0.246 C 
ATOM     11  O   UNL     1      -5.600   1.178  -3.855  1.00  0.00    -0.272 OA
BRANCH  10  12
ATOM     12  C   UNL     1      -5.950   3.589  -3.968  1.00  0.00     0.174 C 
BRANCH  12  13
ATOM     13  N   UNL     1      -7.071   4.301  -4.580  1.00  0.00    -0.342 N 
ATOM     14  C   UNL     1      -8.044   4.987  -3.888  1.00  0.00     0.249 C 
ATOM     15  O   UNL     1      -8.063   5.099  -2.668  1.00  0.00    -0.272 OA
ATOM     16  H   UNL     1      -7.274   4.167  -5.567  1.00  0.00     0.164 HD
BRANCH  14  17
ATOM     17  C   UNL     1      -9.102   5.618  -4.817  1.00  0.00     0.207 C 
BRANCH  17  18
ATOM     18  C   UNL     1      -8.648   7.006  -5.280  1.00  0.00     0.077 C 
BRANCH  18  19
ATOM     19  C   UNL     1      -9.811   7.851  -5.750  1.00  0.00    -0.043 A 
ATOM     20  C   UNL     1     -11.403   8.465  -7.474  1.00  0.00     0.083 A 
ATOM     21  C   UNL     1     -10.362   7.651  -7.025  1.00  0.00     0.028 A 
ATOM     22  C   UNL     1     -11.898   9.481  -6.655  1.00  0.00     0.134 A 
ATOM     23  C   UNL     1     -11.361   9.689  -5.390  1.00  0.00     0.048 A 
ATOM     24  C   UNL     1     -10.318   8.878  -4.939  1.00  0.00     0.008 A 
ATOM     25  Cl  UNL     1     -12.067   8.205  -9.044  1.00  0.00    -0.080 Cl
BRANCH  22  26
ATOM     26  O   UNL     1     -12.910  10.311  -7.056  1.00  0.00    -0.506 OA
ATOM     27  H   UNL     1     -13.183  10.819  -6.270  1.00  0.00     0.293 HD
ENDBRANCH  22  26
ENDBRANCH  18  19
ENDBRANCH  17  18
BRANCH  17  28
ATOM     28  O   UNL     1     -10.372   5.729  -4.154  1.00  0.00    -0.383 OA
ATOM     29  H   UNL     1     -11.049   5.463  -4.817  1.00  0.00     0.211 HD
ENDBRANCH  17  28
ENDBRANCH  14  17
ENDBRANCH  12  13
BRANCH  12  30
ATOM     30  C   UNL     1      -4.620   4.384  -4.062  1.00  0.00     0.018 C 
ATOM     31  C   UNL     1      -4.457   5.323  -2.857  1.00  0.00     0.010 C 
BRANCH  30  32
ATOM     32  C   UNL     1      -4.464   5.180  -5.381  1.00  0.00     0.002 C 
ATOM     33  C   UNL     1      -3.064   5.177  -5.982  1.00  0.00     0.004 C 
ENDBRANCH  30  32
ENDBRANCH  12  30
ENDBRANCH  10  12
ENDBRANCH   1  10
BRANCH   5  34
ATOM     34  C   UNL     1      -7.522   0.099  -6.492  1.00  0.00     0.242 C 
ATOM     35  O   UNL     1      -6.586  -0.698  -6.553  1.00  0.00    -0.273 OA
ATOM     36  N   UNL     1      -8.838  -0.306  -6.473  1.00  0.00    -0.354 N 
ATOM     37  H   UNL     1      -9.571   0.400  -6.545  1.00  0.00     0.163 HD
BRANCH  36  38
ATOM     38  C   UNL     1      -9.219  -1.686  -6.254  1.00  0.00     0.116 C 
BRANCH  38  39
ATOM     39  C   UNL     1      -9.871  -2.251  -7.513  1.00  0.00     0.023 C 
BRANCH  39  40
ATOM     40  C   UNL     1      -9.156  -3.494  -8.033  1.00  0.00     0.026 C 
BRANCH  40  41
ATOM     41  C   UNL     1      -8.046  -3.111  -9.012  1.00  0.00     0.146 C 
BRANCH  41  42
ATOM     42  N   UNL     1      -6.930  -4.038  -8.879  1.00  0.00    -0.254 NA
ATOM     43  C   UNL     1      -5.750  -3.583  -8.677  1.00  0.00     0.185 C 
ATOM     44  N   UNL     1      -5.321  -2.313  -8.555  1.00  0.00    -0.370 N 
ATOM     45  N   UNL     1      -4.734  -4.453  -8.560  1.00  0.00    -0.370 N 
ATOM     46  H   UNL     1      -4.344  -2.091  -8.644  1.00  0.00     0.159 HD
ATOM     47  H   UNL     1      -5.962  -1.527  -8.605  1.00  0.00     0.159 HD
ATOM     48  H   UNL     1      -4.973  -5.433  -8.631  1.00  0.00     0.159 HD
ATOM     49  H   UNL     1      -3.843  -4.200  -8.172  1.00  0.00     0.159 HD
ENDBRANCH  41  42
ENDBRANCH  40  41
ENDBRANCH  39  40
ENDBRANCH  38  39
ENDBRANCH  36  38
ENDBRANCH   5  34
BRANCH   8  50
ATOM     50  O   UNL     1      -3.434   0.087  -8.907  1.00  0.00    -0.245 OA
BRANCH  50  51
ATOM     51  S   UNL     1      -2.291  -0.828  -9.615  1.00  0.00     0.397 S 
ATOM     52  O   UNL     1      -2.179  -0.413 -10.996  1.00  0.00    -0.169 OA
ATOM     53  O   UNL     1      -2.485  -2.216  -9.253  1.00  0.00    -0.169 OA
BRANCH  51  54
ATOM     54  O   UNL     1      -0.951  -0.309  -8.892  1.00  0.00    -0.264 OA
ATOM     55  H   UNL     1      -1.203   0.041  -8.014  1.00  0.00     0.236 HD
ENDBRANCH  51  54
ENDBRANCH  50  51
ENDBRANCH   8  50
TORSDOF 19
ENDMDL
MODEL 35
REMARK VINA RESULT:    -6.341      2.999      5.454
REMARK INTER + INTRA:         -16.437
REMARK INTER:                 -14.276
REMARK INTRA:                  -2.161
REMARK UNBOUND:                -3.609
REMARK SMILES CC[C@@H](C)[C@@H](NC(=O)[C@@H](O)Cc1ccc(O)c(Cl)c1)C(=O)N1[C@H](C(=O)NCCCCN=C(N)N)C[C@H]2CC[C@H](OS(=O)(=O)O)C[C@@H]21
REMARK SMILES IDX 22 1 36 2 46 3 35 4 23 5 45 6 37 7 39 8 38 9 20 10 21 11
REMARK SMILES IDX 5 12 6 13 7 14 8 15 9 17 11 18 12 19 17 20 19 21 15 22 14 23
REMARK SMILES IDX 13 24 18 25 16 26 10 28 3 30 4 31 2 32 1 33 24 34 25 35
REMARK SMILES IDX 26 36 27 38 28 39 29 40 30 41 31 42 32 43 33 44 34 45 40 50
REMARK SMILES IDX 41 51 42 52 43 53 44 54
REMARK H PARENT 6 16 16 27 10 29 26 37 33 46 33 47 34 48 34 49 44 55
ROOT
ATOM      1  N   UNL     1      -2.585   0.813 -11.348  1.00  0.00    -0.326 N 
ATOM      2  C   UNL     1      -2.274  -1.474 -11.812  1.00  0.00     0.014 C 
ATOM      3  C   UNL     1      -1.701  -0.305 -11.006  1.00  0.00     0.091 C 
ATOM      4  C   UNL     1      -2.766  -0.796 -13.082  1.00  0.00     0.041 C 
ATOM      5  C   UNL     1      -3.468   0.435 -12.479  1.00  0.00     0.175 C 
ATOM      6  C   UNL     1      -1.603  -0.730  -9.542  1.00  0.00     0.059 C 
ATOM      7  C   UNL     1      -1.271  -2.606 -11.915  1.00  0.00     0.008 C 
ATOM      8  C   UNL     1      -1.324  -2.236  -9.349  1.00  0.00     0.143 C 
ATOM      9  C   UNL     1      -0.582  -2.846 -10.555  1.00  0.00     0.034 C 
ENDROOT
BRANCH   1  10
ATOM     10  C   UNL     1      -2.547   2.134 -10.935  1.00  0.00     0.246 C 
ATOM     11  O   UNL     1      -3.444   2.561 -10.200  1.00  0.00    -0.272 OA
BRANCH  10  12
ATOM     12  C   UNL     1      -1.356   3.038 -11.367  1.00  0.00     0.174 C 
BRANCH  12  13
ATOM     13  N   UNL     1      -0.495   3.312 -10.217  1.00  0.00    -0.342 N 
ATOM     14  C   UNL     1       0.758   2.777 -10.023  1.00  0.00     0.249 C 
ATOM     15  O   UNL     1       1.309   2.024 -10.816  1.00  0.00    -0.272 OA
ATOM     16  H   UNL     1      -0.876   3.792  -9.405  1.00  0.00     0.164 HD
BRANCH  14  17
ATOM     17  C   UNL     1       1.408   3.245  -8.703  1.00  0.00     0.207 C 
BRANCH  17  18
ATOM     18  C   UNL     1       0.942   2.369  -7.536  1.00  0.00     0.077 C 
BRANCH  18  19
ATOM     19  C   UNL     1      -0.252   2.967  -6.827  1.00  0.00    -0.043 A 
ATOM     20  C   UNL     1      -1.176   4.514  -5.203  1.00  0.00     0.083 A 
ATOM     21  C   UNL     1      -0.077   3.999  -5.891  1.00  0.00     0.028 A 
ATOM     22  C   UNL     1      -2.452   4.003  -5.442  1.00  0.00     0.134 A 
ATOM     23  C   UNL     1      -2.640   2.981  -6.366  1.00  0.00     0.048 A 
ATOM     24  C   UNL     1      -1.542   2.462  -7.055  1.00  0.00     0.008 A 
ATOM     25  Cl  UNL     1      -0.941   5.781  -4.057  1.00  0.00    -0.080 Cl
BRANCH  22  26
ATOM     26  O   UNL     1      -3.558   4.468  -4.783  1.00  0.00    -0.506 OA
ATOM     27  H   UNL     1      -3.514   5.442  -4.815  1.00  0.00     0.293 HD
ENDBRANCH  22  26
ENDBRANCH  18  19
ENDBRANCH  17  18
BRANCH  17  28
ATOM     28  O   UNL     1       1.086   4.618  -8.427  1.00  0.00    -0.383 OA
ATOM     29  H   UNL     1       1.947   5.094  -8.374  1.00  0.00     0.211 HD
ENDBRANCH  17  28
ENDBRANCH  14  17
ENDBRANCH  12  13
BRANCH  12  30
ATOM     30  C   UNL     1      -1.817   4.335 -12.084  1.00  0.00     0.018 C 
ATOM     31  C   UNL     1      -2.791   4.011 -13.228  1.00  0.00     0.010 C 
BRANCH  30  32
ATOM     32  C   UNL     1      -0.649   5.203 -12.611  1.00  0.00     0.002 C 
ATOM     33  C   UNL     1      -0.213   6.337 -11.692  1.00  0.00     0.004 C 
ENDBRANCH  30  32
ENDBRANCH  12  30
ENDBRANCH  10  12
ENDBRANCH   1  10
BRANCH   5  34
ATOM     34  C   UNL     1      -4.894   0.089 -11.972  1.00  0.00     0.242 C 
ATOM     35  O   UNL     1      -5.847  -0.054 -12.738  1.00  0.00    -0.273 OA
ATOM     36  N   UNL     1      -5.026   0.009 -10.604  1.00  0.00    -0.354 N 
ATOM     37  H   UNL     1      -4.227   0.256 -10.018  1.00  0.00     0.163 HD
BRANCH  36  38
ATOM     38  C   UNL     1      -6.220  -0.511  -9.972  1.00  0.00     0.116 C 
BRANCH  38  39
ATOM     39  C   UNL     1      -6.002  -1.968  -9.570  1.00  0.00     0.023 C 
BRANCH  39  40
ATOM     40  C   UNL     1      -7.290  -2.784  -9.617  1.00  0.00     0.026 C 
BRANCH  40  41
ATOM     41  C   UNL     1      -8.185  -2.454  -8.423  1.00  0.00     0.146 C 
BRANCH  41  42
ATOM     42  N   UNL     1      -7.827  -3.298  -7.291  1.00  0.00    -0.254 NA
ATOM     43  C   UNL     1      -8.030  -2.878  -6.099  1.00  0.00     0.185 C 
ATOM     44  N   UNL     1      -8.551  -1.714  -5.668  1.00  0.00    -0.370 N 
ATOM     45  N   UNL     1      -7.689  -3.670  -5.069  1.00  0.00    -0.370 N 
ATOM     46  H   UNL     1      -8.425  -1.418  -4.715  1.00  0.00     0.159 HD
ATOM     47  H   UNL     1      -8.875  -1.003  -6.316  1.00  0.00     0.159 HD
ATOM     48  H   UNL     1      -7.296  -4.570  -5.306  1.00  0.00     0.159 HD
ATOM     49  H   UNL     1      -8.025  -3.521  -4.134  1.00  0.00     0.159 HD
ENDBRANCH  41  42
ENDBRANCH  40  41
ENDBRANCH  39  40
ENDBRANCH  38  39
ENDBRANCH  36  38
ENDBRANCH   5  34
BRANCH   8  50
ATOM     50  O   UNL     1      -2.552  -2.943  -9.168  1.00  0.00    -0.245 OA
BRANCH  50  51
ATOM     51  S   UNL     1      -2.525  -4.465  -8.597  1.00  0.00     0.397 S 
ATOM     52  O   UNL     1      -1.852  -5.296  -9.570  1.00  0.00    -0.169 OA
ATOM     53  O   UNL     1      -3.830  -4.812  -8.075  1.00  0.00    -0.169 OA
BRANCH  51  54
ATOM     54  O   UNL     1      -1.512  -4.340  -7.354  1.00  0.00    -0.264 OA
ATOM     55  H   UNL     1      -1.197  -5.240  -7.133  1.00  0.00     0.236 HD
ENDBRANCH  51  54
ENDBRANCH  50  51
ENDBRANCH   8  50
TORSDOF 19
ENDMDL
MODEL 36
REMARK VINA RESULT:    -6.314      8.994     12.472
REMARK INTER + INTRA:         -16.382
REMARK INTER:                 -12.952
REMARK INTRA:                  -3.430
REMARK UNBOUND:                -3.609
REMARK SMILES CC[C@@H](C)[C@@H](NC(=O)[C@@H](O)Cc1ccc(O)c(Cl)c1)C(=O)N1[C@H](C(=O)NCCCCN=C(N)N)C[C@H]2CC[C@H](OS(=O)(=O)O)C[C@@H]21
REMARK SMILES IDX 22 1 36 2 46 3 35 4 23 5 45 6 37 7 39 8 38 9 20 10 21 11
REMARK SMILES IDX 5 12 6 13 7 14 8 15 9 17 11 18 12 19 17 20 19 21 15 22 14 23
REMARK SMILES IDX 13 24 18 25 16 26 10 28 3 30 4 31 2 32 1 33 24 34 25 35
REMARK SMILES IDX 26 36 27 38 28 39 29 40 30 41 31 42 32 43 33 44 34 45 40 50
REMARK SMILES IDX 41 51 42 52 43 53 44 54
REMARK H PARENT 6 16 16 27 10 29 26 37 33 46 33 47 34 48 34 49 44 55
ROOT
ATOM      1  N   UNL     1     -11.440  -1.976  -4.412  1.00  0.00    -0.326 N 
ATOM      2  C   UNL     1     -10.418   0.140  -4.553  1.00  0.00     0.014 C 
ATOM      3  C   UNL     1     -10.948  -1.017  -5.405  1.00  0.00     0.091 C 
ATOM      4  C   UNL     1      -9.864  -0.572  -3.329  1.00  0.00     0.041 C 
ATOM      5  C   UNL     1     -11.006  -1.568  -3.053  1.00  0.00     0.175 C 
ATOM      6  C   UNL     1     -11.940  -0.453  -6.422  1.00  0.00     0.059 C 
ATOM      7  C   UNL     1      -9.507   1.039  -5.366  1.00  0.00     0.008 C 
ATOM      8  C   UNL     1     -11.610   0.984  -6.881  1.00  0.00     0.143 C 
ATOM      9  C   UNL     1     -10.105   1.298  -6.765  1.00  0.00     0.034 C 
ENDROOT
BRANCH   1  10
ATOM     10  C   UNL     1     -12.013  -3.224  -4.592  1.00  0.00     0.246 C 
ATOM     11  O   UNL     1     -13.243  -3.331  -4.552  1.00  0.00    -0.272 OA
BRANCH  10  12
ATOM     12  C   UNL     1     -11.102  -4.452  -4.881  1.00  0.00     0.174 C 
BRANCH  12  13
ATOM     13  N   UNL     1     -10.613  -5.017  -3.623  1.00  0.00    -0.342 N 
ATOM     14  C   UNL     1     -10.465  -6.362  -3.366  1.00  0.00     0.249 C 
ATOM     15  O   UNL     1     -10.704  -7.243  -4.183  1.00  0.00    -0.272 OA
ATOM     16  H   UNL     1     -10.525  -4.421  -2.804  1.00  0.00     0.164 HD
BRANCH  14  17
ATOM     17  C   UNL     1      -9.945  -6.641  -1.940  1.00  0.00     0.207 C 
BRANCH  17  18
ATOM     18  C   UNL     1      -8.711  -7.548  -1.989  1.00  0.00     0.077 C 
BRANCH  18  19
ATOM     19  C   UNL     1      -8.109  -7.752  -0.617  1.00  0.00    -0.043 A 
ATOM     20  C   UNL     1      -7.517  -9.218   1.223  1.00  0.00     0.083 A 
ATOM     21  C   UNL     1      -8.027  -9.039  -0.064  1.00  0.00     0.028 A 
ATOM     22  C   UNL     1      -7.087  -8.116   1.963  1.00  0.00     0.134 A 
ATOM     23  C   UNL     1      -7.162  -6.836   1.427  1.00  0.00     0.048 A 
ATOM     24  C   UNL     1      -7.674  -6.653   0.141  1.00  0.00     0.008 A 
ATOM     25  Cl  UNL     1      -7.425 -10.808   1.885  1.00  0.00    -0.080 Cl
BRANCH  22  26
ATOM     26  O   UNL     1      -6.589  -8.241   3.232  1.00  0.00    -0.506 OA
ATOM     27  H   UNL     1      -6.277  -7.356   3.498  1.00  0.00     0.293 HD
ENDBRANCH  22  26
ENDBRANCH  18  19
ENDBRANCH  17  18
BRANCH  17  28
ATOM     28  O   UNL     1     -10.958  -7.259  -1.131  1.00  0.00    -0.383 OA
ATOM     29  H   UNL     1     -10.581  -8.117  -0.831  1.00  0.00     0.211 HD
ENDBRANCH  17  28
ENDBRANCH  14  17
ENDBRANCH  12  13
BRANCH  12  30
ATOM     30  C   UNL     1      -9.952  -4.126  -5.871  1.00  0.00     0.018 C 
ATOM     31  C   UNL     1      -9.856  -5.197  -6.969  1.00  0.00     0.010 C 
BRANCH  30  32
ATOM     32  C   UNL     1      -8.576  -3.942  -5.185  1.00  0.00     0.002 C 
ATOM     33  C   UNL     1      -7.786  -2.717  -5.628  1.00  0.00     0.004 C 
ENDBRANCH  30  32
ENDBRANCH  12  30
ENDBRANCH  10  12
ENDBRANCH   1  10
BRANCH   5  34
ATOM     34  C   UNL     1     -12.174  -0.900  -2.280  1.00  0.00     0.242 C 
ATOM     35  O   UNL     1     -13.352  -1.057  -2.603  1.00  0.00    -0.273 OA
ATOM     36  N   UNL     1     -11.795  -0.077  -1.243  1.00  0.00    -0.354 N 
ATOM     37  H   UNL     1     -10.802   0.108  -1.100  1.00  0.00     0.163 HD
BRANCH  36  38
ATOM     38  C   UNL     1     -12.747   0.451  -0.288  1.00  0.00     0.116 C 
BRANCH  38  39
ATOM     39  C   UNL     1     -12.430  -0.080   1.108  1.00  0.00     0.023 C 
BRANCH  39  40
ATOM     40  C   UNL     1     -13.479  -1.068   1.607  1.00  0.00     0.026 C 
BRANCH  40  41
ATOM     41  C   UNL     1     -12.866  -2.455   1.804  1.00  0.00     0.146 C 
BRANCH  41  42
ATOM     42  N   UNL     1     -13.241  -3.321   0.694  1.00  0.00    -0.254 NA
ATOM     43  C   UNL     1     -12.329  -3.861  -0.024  1.00  0.00     0.185 C 
ATOM     44  N   UNL     1     -10.990  -3.771   0.066  1.00  0.00    -0.370 N 
ATOM     45  N   UNL     1     -12.696  -4.653  -1.045  1.00  0.00    -0.370 N 
ATOM     46  H   UNL     1     -10.404  -4.046  -0.704  1.00  0.00     0.159 HD
ATOM     47  H   UNL     1     -10.541  -3.222   0.793  1.00  0.00     0.159 HD
ATOM     48  H   UNL     1     -13.690  -4.782  -1.178  1.00  0.00     0.159 HD
ATOM     49  H   UNL     1     -12.062  -5.289  -1.495  1.00  0.00     0.159 HD
ENDBRANCH  41  42
ENDBRANCH  40  41
ENDBRANCH  39  40
ENDBRANCH  38  39
ENDBRANCH  36  38
ENDBRANCH   5  34
BRANCH   8  50
ATOM     50  O   UNL     1     -12.333   1.928  -6.091  1.00  0.00    -0.245 OA
BRANCH  50  51
ATOM     51  S   UNL     1     -13.599   2.717  -6.740  1.00  0.00     0.397 S 
ATOM     52  O   UNL     1     -13.295   2.982  -8.128  1.00  0.00    -0.169 OA
ATOM     53  O   UNL     1     -14.029   3.768  -5.842  1.00  0.00    -0.169 OA
BRANCH  51  54
ATOM     54  O   UNL     1     -14.734   1.577  -6.751  1.00  0.00    -0.264 OA
ATOM     55  H   UNL     1     -15.541   1.957  -6.347  1.00  0.00     0.236 HD
ENDBRANCH  51  54
ENDBRANCH  50  51
ENDBRANCH   8  50
TORSDOF 19
ENDMDL
MODEL 37
REMARK VINA RESULT:    -6.306      4.412      6.952
REMARK INTER + INTRA:         -16.366
REMARK INTER:                 -13.869
REMARK INTRA:                  -2.497
REMARK UNBOUND:                -3.609
REMARK SMILES CC[C@@H](C)[C@@H](NC(=O)[C@@H](O)Cc1ccc(O)c(Cl)c1)C(=O)N1[C@H](C(=O)NCCCCN=C(N)N)C[C@H]2CC[C@H](OS(=O)(=O)O)C[C@@H]21
REMARK SMILES IDX 22 1 36 2 46 3 35 4 23 5 45 6 37 7 39 8 38 9 20 10 21 11
REMARK SMILES IDX 5 12 6 13 7 14 8 15 9 17 11 18 12 19 17 20 19 21 15 22 14 23
REMARK SMILES IDX 13 24 18 25 16 26 10 28 3 30 4 31 2 32 1 33 24 34 25 35
REMARK SMILES IDX 26 36 27 38 28 39 29 40 30 41 31 42 32 43 33 44 34 45 40 50
REMARK SMILES IDX 41 51 42 52 43 53 44 54
REMARK H PARENT 6 16 16 27 10 29 26 37 33 46 33 47 34 48 34 49 44 55
ROOT
ATOM      1  N   UNL     1      -7.588   0.110  -6.570  1.00  0.00    -0.326 N 
ATOM      2  C   UNL     1      -8.958  -1.197  -5.171  1.00  0.00     0.014 C 
ATOM      3  C   UNL     1      -8.469   0.235  -5.406  1.00  0.00     0.091 C 
ATOM      4  C   UNL     1      -7.748  -2.032  -5.562  1.00  0.00     0.041 C 
ATOM      5  C   UNL     1      -7.338  -1.323  -6.866  1.00  0.00     0.175 C 
ATOM      6  C   UNL     1      -9.688   1.150  -5.515  1.00  0.00     0.059 C 
ATOM      7  C   UNL     1      -9.548  -1.347  -3.782  1.00  0.00     0.008 C 
ATOM      8  C   UNL     1     -10.889   0.690  -4.659  1.00  0.00     0.143 C 
ATOM      9  C   UNL     1     -10.445  -0.140  -3.438  1.00  0.00     0.034 C 
ENDROOT
BRANCH   1  10
ATOM     10  C   UNL     1      -6.845   1.074  -7.229  1.00  0.00     0.246 C 
ATOM     11  O   UNL     1      -7.421   1.870  -7.977  1.00  0.00    -0.272 OA
BRANCH  10  12
ATOM     12  C   UNL     1      -5.311   1.163  -6.980  1.00  0.00     0.174 C 
BRANCH  12  13
ATOM     13  N   UNL     1      -4.897   2.564  -6.911  1.00  0.00    -0.342 N 
ATOM     14  C   UNL     1      -4.619   3.249  -5.749  1.00  0.00     0.249 C 
ATOM     15  O   UNL     1      -4.661   2.745  -4.634  1.00  0.00    -0.272 OA
ATOM     16  H   UNL     1      -4.969   3.152  -7.737  1.00  0.00     0.164 HD
BRANCH  14  17
ATOM     17  C   UNL     1      -4.225   4.719  -6.005  1.00  0.00     0.207 C 
BRANCH  17  18
ATOM     18  C   UNL     1      -2.832   5.007  -5.436  1.00  0.00     0.077 C 
BRANCH  18  19
ATOM     19  C   UNL     1      -1.746   4.331  -6.242  1.00  0.00    -0.043 A 
ATOM     20  C   UNL     1      -0.665   3.903  -8.371  1.00  0.00     0.083 A 
ATOM     21  C   UNL     1      -1.637   4.566  -7.622  1.00  0.00     0.028 A 
ATOM     22  C   UNL     1       0.201   3.002  -7.751  1.00  0.00     0.134 A 
ATOM     23  C   UNL     1       0.105   2.760  -6.385  1.00  0.00     0.048 A 
ATOM     24  C   UNL     1      -0.868   3.421  -5.633  1.00  0.00     0.008 A 
ATOM     25  Cl  UNL     1      -0.547   4.204 -10.065  1.00  0.00    -0.080 Cl
BRANCH  22  26
ATOM     26  O   UNL     1       1.163   2.320  -8.446  1.00  0.00    -0.506 OA
ATOM     27  H   UNL     1       0.709   1.864  -9.178  1.00  0.00     0.293 HD
ENDBRANCH  22  26
ENDBRANCH  18  19
ENDBRANCH  17  18
BRANCH  17  28
ATOM     28  O   UNL     1      -5.176   5.619  -5.414  1.00  0.00    -0.383 OA
ATOM     29  H   UNL     1      -5.356   5.271  -4.511  1.00  0.00     0.211 HD
ENDBRANCH  17  28
ENDBRANCH  14  17
ENDBRANCH  12  13
BRANCH  12  30
ATOM     30  C   UNL     1      -4.487   0.353  -8.017  1.00  0.00     0.018 C 
ATOM     31  C   UNL     1      -3.020   0.810  -8.028  1.00  0.00     0.010 C 
BRANCH  30  32
ATOM     32  C   UNL     1      -5.071   0.404  -9.451  1.00  0.00     0.002 C 
ATOM     33  C   UNL     1      -4.557  -0.670 -10.401  1.00  0.00     0.004 C 
ENDBRANCH  30  32
ENDBRANCH  12  30
ENDBRANCH  10  12
ENDBRANCH   1  10
BRANCH   5  34
ATOM     34  C   UNL     1      -8.199  -1.794  -8.068  1.00  0.00     0.242 C 
ATOM     35  O   UNL     1      -7.735  -1.914  -9.202  1.00  0.00    -0.273 OA
ATOM     36  N   UNL     1      -9.528  -2.017  -7.786  1.00  0.00    -0.354 N 
ATOM     37  H   UNL     1      -9.878  -1.786  -6.855  1.00  0.00     0.163 HD
BRANCH  36  38
ATOM     38  C   UNL     1     -10.421  -2.661  -8.727  1.00  0.00     0.116 C 
BRANCH  38  39
ATOM     39  C   UNL     1     -11.586  -3.304  -7.978  1.00  0.00     0.023 C 
BRANCH  39  40
ATOM     40  C   UNL     1     -11.398  -3.268  -6.465  1.00  0.00     0.026 C 
BRANCH  40  41
ATOM     41  C   UNL     1     -10.897  -4.618  -5.950  1.00  0.00     0.146 C 
BRANCH  41  42
ATOM     42  N   UNL     1     -11.997  -5.349  -5.335  1.00  0.00    -0.254 NA
ATOM     43  C   UNL     1     -12.442  -4.981  -4.193  1.00  0.00     0.185 C 
ATOM     44  N   UNL     1     -12.053  -3.968  -3.398  1.00  0.00    -0.370 N 
ATOM     45  N   UNL     1     -13.454  -5.671  -3.641  1.00  0.00    -0.370 N 
ATOM     46  H   UNL     1     -12.321  -3.944  -2.429  1.00  0.00     0.159 HD
ATOM     47  H   UNL     1     -11.306  -3.335  -3.668  1.00  0.00     0.159 HD
ATOM     48  H   UNL     1     -13.814  -6.447  -4.181  1.00  0.00     0.159 HD
ATOM     49  H   UNL     1     -14.006  -5.314  -2.882  1.00  0.00     0.159 HD
ENDBRANCH  41  42
ENDBRANCH  40  41
ENDBRANCH  39  40
ENDBRANCH  38  39
ENDBRANCH  36  38
ENDBRANCH   5  34
BRANCH   8  50
ATOM     50  O   UNL     1     -11.778  -0.102  -5.447  1.00  0.00    -0.245 OA
BRANCH  50  51
ATOM     51  S   UNL     1     -13.371  -0.088  -5.118  1.00  0.00     0.397 S 
ATOM     52  O   UNL     1     -14.078  -0.465  -6.321  1.00  0.00    -0.169 OA
ATOM     53  O   UNL     1     -13.705   1.115  -4.385  1.00  0.00    -0.169 OA
BRANCH  51  54
ATOM     54  O   UNL     1     -13.517  -1.337  -4.115  1.00  0.00    -0.264 OA
ATOM     55  H   UNL     1     -13.433  -0.996  -3.201  1.00  0.00     0.236 HD
ENDBRANCH  51  54
ENDBRANCH  50  51
ENDBRANCH   8  50
TORSDOF 19
ENDMDL
MODEL 38
REMARK VINA RESULT:    -6.293      4.537      9.694
REMARK INTER + INTRA:         -16.340
REMARK INTER:                 -12.090
REMARK INTRA:                  -4.250
REMARK UNBOUND:                -3.609
REMARK SMILES CC[C@@H](C)[C@@H](NC(=O)[C@@H](O)Cc1ccc(O)c(Cl)c1)C(=O)N1[C@H](C(=O)NCCCCN=C(N)N)C[C@H]2CC[C@H](OS(=O)(=O)O)C[C@@H]21
REMARK SMILES IDX 22 1 36 2 46 3 35 4 23 5 45 6 37 7 39 8 38 9 20 10 21 11
REMARK SMILES IDX 5 12 6 13 7 14 8 15 9 17 11 18 12 19 17 20 19 21 15 22 14 23
REMARK SMILES IDX 13 24 18 25 16 26 10 28 3 30 4 31 2 32 1 33 24 34 25 35
REMARK SMILES IDX 26 36 27 38 28 39 29 40 30 41 31 42 32 43 33 44 34 45 40 50
REMARK SMILES IDX 41 51 42 52 43 53 44 54
REMARK H PARENT 6 16 16 27 10 29 26 37 33 46 33 47 34 48 34 49 44 55
ROOT
ATOM      1  N   UNL     1      -8.110  -0.010  -6.414  1.00  0.00    -0.326 N 
ATOM      2  C   UNL     1      -8.154   2.341  -6.540  1.00  0.00     0.014 C 
ATOM      3  C   UNL     1      -8.526   1.162  -5.637  1.00  0.00     0.091 C 
ATOM      4  C   UNL     1      -8.406   1.787  -7.934  1.00  0.00     0.041 C 
ATOM      5  C   UNL     1      -7.758   0.397  -7.796  1.00  0.00     0.175 C 
ATOM      6  C   UNL     1      -7.890   1.384  -4.266  1.00  0.00     0.059 C 
ATOM      7  C   UNL     1      -8.867   3.605  -6.103  1.00  0.00     0.008 C 
ATOM      8  C   UNL     1      -7.766   2.872  -3.873  1.00  0.00     0.143 C 
ATOM      9  C   UNL     1      -8.831   3.745  -4.566  1.00  0.00     0.034 C 
ENDROOT
BRANCH   1  10
ATOM     10  C   UNL     1      -8.214  -1.357  -6.112  1.00  0.00     0.246 C 
ATOM     11  O   UNL     1      -7.340  -1.886  -5.417  1.00  0.00    -0.272 OA
BRANCH  10  12
ATOM     12  C   UNL     1      -9.445  -2.164  -6.617  1.00  0.00     0.174 C 
BRANCH  12  13
ATOM     13  N   UNL     1     -10.551  -2.031  -5.669  1.00  0.00    -0.342 N 
ATOM     14  C   UNL     1     -11.773  -1.465  -5.954  1.00  0.00     0.249 C 
ATOM     15  O   UNL     1     -12.081  -1.028  -7.056  1.00  0.00    -0.272 OA
ATOM     16  H   UNL     1     -10.390  -2.204  -4.680  1.00  0.00     0.164 HD
BRANCH  14  17
ATOM     17  C   UNL     1     -12.724  -1.456  -4.739  1.00  0.00     0.207 C 
BRANCH  17  18
ATOM     18  C   UNL     1     -11.952  -1.768  -3.453  1.00  0.00     0.077 C 
BRANCH  18  19
ATOM     19  C   UNL     1     -11.451  -0.511  -2.778  1.00  0.00    -0.043 A 
ATOM     20  C   UNL     1     -11.470   1.904  -2.553  1.00  0.00     0.083 A 
ATOM     21  C   UNL     1     -11.970   0.742  -3.142  1.00  0.00     0.028 A 
ATOM     22  C   UNL     1     -10.452   1.824  -1.602  1.00  0.00     0.134 A 
ATOM     23  C   UNL     1      -9.930   0.590  -1.233  1.00  0.00     0.048 A 
ATOM     24  C   UNL     1     -10.427  -0.576  -1.822  1.00  0.00     0.008 A 
ATOM     25  Cl  UNL     1     -12.120   3.434  -3.013  1.00  0.00    -0.080 Cl
BRANCH  22  26
ATOM     26  O   UNL     1      -9.924   2.936  -1.006  1.00  0.00    -0.506 OA
ATOM     27  H   UNL     1      -9.707   2.686  -0.088  1.00  0.00     0.293 HD
ENDBRANCH  22  26
ENDBRANCH  18  19
ENDBRANCH  17  18
BRANCH  17  28
ATOM     28  O   UNL     1     -13.782  -2.414  -4.904  1.00  0.00    -0.383 OA
ATOM     29  H   UNL     1     -13.627  -2.843  -5.775  1.00  0.00     0.211 HD
ENDBRANCH  17  28
ENDBRANCH  14  17
ENDBRANCH  12  13
BRANCH  12  30
ATOM     30  C   UNL     1      -9.105  -3.647  -6.926  1.00  0.00     0.018 C 
ATOM     31  C   UNL     1      -8.222  -3.755  -8.180  1.00  0.00     0.010 C 
BRANCH  30  32
ATOM     32  C   UNL     1     -10.351  -4.553  -7.073  1.00  0.00     0.002 C 
ATOM     33  C   UNL     1     -10.427  -5.720  -6.098  1.00  0.00     0.004 C 
ENDBRANCH  30  32
ENDBRANCH  12  30
ENDBRANCH  10  12
ENDBRANCH   1  10
BRANCH   5  34
ATOM     34  C   UNL     1      -6.218   0.463  -7.975  1.00  0.00     0.242 C 
ATOM     35  O   UNL     1      -5.437   0.128  -7.084  1.00  0.00    -0.273 OA
ATOM     36  N   UNL     1      -5.790   0.975  -9.179  1.00  0.00    -0.354 N 
ATOM     37  H   UNL     1      -6.483   1.347  -9.830  1.00  0.00     0.163 HD
BRANCH  36  38
ATOM     38  C   UNL     1      -4.405   0.910  -9.599  1.00  0.00     0.116 C 
BRANCH  38  39
ATOM     39  C   UNL     1      -3.734   2.264  -9.384  1.00  0.00     0.023 C 
BRANCH  39  40
ATOM     40  C   UNL     1      -2.722   2.240  -8.244  1.00  0.00     0.026 C 
BRANCH  40  41
ATOM     41  C   UNL     1      -2.002   3.583  -8.129  1.00  0.00     0.146 C 
BRANCH  41  42
ATOM     42  N   UNL     1      -1.470   3.743  -6.782  1.00  0.00    -0.254 NA
ATOM     43  C   UNL     1      -2.121   4.430  -5.921  1.00  0.00     0.185 C 
ATOM     44  N   UNL     1      -3.294   5.079  -6.040  1.00  0.00    -0.370 N 
ATOM     45  N   UNL     1      -1.611   4.569  -4.686  1.00  0.00    -0.370 N 
ATOM     46  H   UNL     1      -3.566   5.775  -5.367  1.00  0.00     0.159 HD
ATOM     47  H   UNL     1      -3.825   5.067  -6.906  1.00  0.00     0.159 HD
ATOM     48  H   UNL     1      -0.731   4.104  -4.510  1.00  0.00     0.159 HD
ATOM     49  H   UNL     1      -2.158   4.881  -3.904  1.00  0.00     0.159 HD
ENDBRANCH  41  42
ENDBRANCH  40  41
ENDBRANCH  39  40
ENDBRANCH  38  39
ENDBRANCH  36  38
ENDBRANCH   5  34
BRANCH   8  50
ATOM     50  O   UNL     1      -6.474   3.367  -4.227  1.00  0.00    -0.245 OA
BRANCH  50  51
ATOM     51  S   UNL     1      -5.997   4.825  -3.688  1.00  0.00     0.397 S 
ATOM     52  O   UNL     1      -6.707   5.102  -2.459  1.00  0.00    -0.169 OA
ATOM     53  O   UNL     1      -5.985   5.769  -4.787  1.00  0.00    -0.169 OA
BRANCH  51  54
ATOM     54  O   UNL     1      -4.473   4.543  -3.260  1.00  0.00    -0.264 OA
ATOM     55  H   UNL     1      -4.464   4.344  -2.302  1.00  0.00     0.236 HD
ENDBRANCH  51  54
ENDBRANCH  50  51
ENDBRANCH   8  50
TORSDOF 19
ENDMDL
MODEL 39
REMARK VINA RESULT:    -6.290      7.317     10.399
REMARK INTER + INTRA:         -16.334
REMARK INTER:                 -13.324
REMARK INTRA:                  -3.010
REMARK UNBOUND:                -3.609
REMARK SMILES CC[C@@H](C)[C@@H](NC(=O)[C@@H](O)Cc1ccc(O)c(Cl)c1)C(=O)N1[C@H](C(=O)NCCCCN=C(N)N)C[C@H]2CC[C@H](OS(=O)(=O)O)C[C@@H]21
REMARK SMILES IDX 22 1 36 2 46 3 35 4 23 5 45 6 37 7 39 8 38 9 20 10 21 11
REMARK SMILES IDX 5 12 6 13 7 14 8 15 9 17 11 18 12 19 17 20 19 21 15 22 14 23
REMARK SMILES IDX 13 24 18 25 16 26 10 28 3 30 4 31 2 32 1 33 24 34 25 35
REMARK SMILES IDX 26 36 27 38 28 39 29 40 30 41 31 42 32 43 33 44 34 45 40 50
REMARK SMILES IDX 41 51 42 52 43 53 44 54
REMARK H PARENT 6 16 16 27 10 29 26 37 33 46 33 47 34 48 34 49 44 55
ROOT
ATOM      1  N   UNL     1     -10.892  -0.679  -4.682  1.00  0.00    -0.326 N 
ATOM      2  C   UNL     1     -12.068  -1.971  -6.260  1.00  0.00     0.014 C 
ATOM      3  C   UNL     1     -10.689  -1.785  -5.622  1.00  0.00     0.091 C 
ATOM      4  C   UNL     1     -12.604  -0.548  -6.319  1.00  0.00     0.041 C 
ATOM      5  C   UNL     1     -12.217  -0.053  -4.914  1.00  0.00     0.175 C 
ATOM      6  C   UNL     1     -10.228  -3.131  -5.067  1.00  0.00     0.059 C 
ATOM      7  C   UNL     1     -11.970  -2.782  -7.537  1.00  0.00     0.008 C 
ATOM      8  C   UNL     1     -10.739  -4.344  -5.874  1.00  0.00     0.143 C 
ATOM      9  C   UNL     1     -11.020  -3.983  -7.347  1.00  0.00     0.034 C 
ENDROOT
BRANCH   1  10
ATOM     10  C   UNL     1      -9.991  -0.057  -3.835  1.00  0.00     0.246 C 
ATOM     11  O   UNL     1      -9.684  -0.609  -2.773  1.00  0.00    -0.272 OA
BRANCH  10  12
ATOM     12  C   UNL     1      -9.353   1.299  -4.256  1.00  0.00     0.174 C 
BRANCH  12  13
ATOM     13  N   UNL     1      -8.802   1.193  -5.606  1.00  0.00    -0.342 N 
ATOM     14  C   UNL     1      -9.324   1.806  -6.723  1.00  0.00     0.249 C 
ATOM     15  O   UNL     1     -10.304   2.540  -6.703  1.00  0.00    -0.272 OA
ATOM     16  H   UNL     1      -8.087   0.498  -5.805  1.00  0.00     0.164 HD
BRANCH  14  17
ATOM     17  C   UNL     1      -8.526   1.486  -8.006  1.00  0.00     0.207 C 
BRANCH  17  18
ATOM     18  C   UNL     1      -7.036   1.335  -7.686  1.00  0.00     0.077 C 
BRANCH  18  19
ATOM     19  C   UNL     1      -6.518  -0.037  -8.058  1.00  0.00    -0.043 A 
ATOM     20  C   UNL     1      -6.629  -2.452  -7.859  1.00  0.00     0.083 A 
ATOM     21  C   UNL     1      -7.139  -1.190  -7.554  1.00  0.00     0.028 A 
ATOM     22  C   UNL     1      -5.497  -2.570  -8.667  1.00  0.00     0.134 A 
ATOM     23  C   UNL     1      -4.872  -1.437  -9.174  1.00  0.00     0.048 A 
ATOM     24  C   UNL     1      -5.380  -0.172  -8.868  1.00  0.00     0.008 A 
ATOM     25  Cl  UNL     1      -7.406  -3.856  -7.230  1.00  0.00    -0.080 Cl
BRANCH  22  26
ATOM     26  O   UNL     1      -4.954  -3.786  -8.985  1.00  0.00    -0.506 OA
ATOM     27  H   UNL     1      -4.527  -4.122  -8.176  1.00  0.00     0.293 HD
ENDBRANCH  22  26
ENDBRANCH  18  19
ENDBRANCH  17  18
BRANCH  17  28
ATOM     28  O   UNL     1      -8.700   2.516  -8.993  1.00  0.00    -0.383 OA
ATOM     29  H   UNL     1      -9.393   2.187  -9.609  1.00  0.00     0.211 HD
ENDBRANCH  17  28
ENDBRANCH  14  17
ENDBRANCH  12  13
BRANCH  12  30
ATOM     30  C   UNL     1      -8.309   1.815  -3.229  1.00  0.00     0.018 C 
ATOM     31  C   UNL     1      -8.570   3.288  -2.877  1.00  0.00     0.010 C 
BRANCH  30  32
ATOM     32  C   UNL     1      -6.842   1.630  -3.688  1.00  0.00     0.002 C 
ATOM     33  C   UNL     1      -5.787   2.163  -2.727  1.00  0.00     0.004 C 
ENDBRANCH  30  32
ENDBRANCH  12  30
ENDBRANCH  10  12
ENDBRANCH   1  10
BRANCH   5  34
ATOM     34  C   UNL     1     -13.240  -0.517  -3.842  1.00  0.00     0.242 C 
ATOM     35  O   UNL     1     -12.961  -1.358  -2.988  1.00  0.00    -0.273 OA
ATOM     36  N   UNL     1     -14.495   0.039  -3.950  1.00  0.00    -0.354 N 
ATOM     37  H   UNL     1     -14.700   0.638  -4.751  1.00  0.00     0.163 HD
BRANCH  36  38
ATOM     38  C   UNL     1     -15.499  -0.113  -2.918  1.00  0.00     0.116 C 
BRANCH  38  39
ATOM     39  C   UNL     1     -16.859   0.338  -3.448  1.00  0.00     0.023 C 
BRANCH  39  40
ATOM     40  C   UNL     1     -17.248   1.725  -2.946  1.00  0.00     0.026 C 
BRANCH  40  41
ATOM     41  C   UNL     1     -18.765   1.907  -2.977  1.00  0.00     0.146 C 
BRANCH  41  42
ATOM     42  N   UNL     1     -19.407   0.635  -3.283  1.00  0.00    -0.254 NA
ATOM     43  C   UNL     1     -20.649   0.611  -3.592  1.00  0.00     0.185 C 
ATOM     44  N   UNL     1     -21.535   1.619  -3.695  1.00  0.00    -0.370 N 
ATOM     45  N   UNL     1     -21.223  -0.572  -3.867  1.00  0.00    -0.370 N 
ATOM     46  H   UNL     1     -22.524   1.433  -3.705  1.00  0.00     0.159 HD
ATOM     47  H   UNL     1     -21.265   2.584  -3.533  1.00  0.00     0.159 HD
ATOM     48  H   UNL     1     -20.622  -1.383  -3.821  1.00  0.00     0.159 HD
ATOM     49  H   UNL     1     -22.107  -0.651  -4.338  1.00  0.00     0.159 HD
ENDBRANCH  41  42
ENDBRANCH  40  41
ENDBRANCH  39  40
ENDBRANCH  38  39
ENDBRANCH  36  38
ENDBRANCH   5  34
BRANCH   8  50
ATOM     50  O   UNL     1     -11.943  -4.848  -5.294  1.00  0.00    -0.245 OA
BRANCH  50  51
ATOM     51  S   UNL     1     -11.937  -6.305  -4.572  1.00  0.00     0.397 S 
ATOM     52  O   UNL     1     -11.014  -6.250  -3.461  1.00  0.00    -0.169 OA
ATOM     53  O   UNL     1     -11.856  -7.345  -5.577  1.00  0.00    -0.169 OA
BRANCH  51  54
ATOM     54  O   UNL     1     -13.405  -6.362  -3.919  1.00  0.00    -0.264 OA
ATOM     55  H   UNL     1     -13.672  -5.444  -3.705  1.00  0.00     0.236 HD
ENDBRANCH  51  54
ENDBRANCH  50  51
ENDBRANCH   8  50
TORSDOF 19
ENDMDL
MODEL 40
REMARK VINA RESULT:    -6.282     10.917     14.510
REMARK INTER + INTRA:         -16.317
REMARK INTER:                 -11.991
REMARK INTRA:                  -4.326
REMARK UNBOUND:                -3.609
REMARK SMILES CC[C@@H](C)[C@@H](NC(=O)[C@@H](O)Cc1ccc(O)c(Cl)c1)C(=O)N1[C@H](C(=O)NCCCCN=C(N)N)C[C@H]2CC[C@H](OS(=O)(=O)O)C[C@@H]21
REMARK SMILES IDX 22 1 36 2 46 3 35 4 23 5 45 6 37 7 39 8 38 9 20 10 21 11
REMARK SMILES IDX 5 12 6 13 7 14 8 15 9 17 11 18 12 19 17 20 19 21 15 22 14 23
REMARK SMILES IDX 13 24 18 25 16 26 10 28 3 30 4 31 2 32 1 33 24 34 25 35
REMARK SMILES IDX 26 36 27 38 28 39 29 40 30 41 31 42 32 43 33 44 34 45 40 50
REMARK SMILES IDX 41 51 42 52 43 53 44 54
REMARK H PARENT 6 16 16 27 10 29 26 37 33 46 33 47 34 48 34 49 44 55
ROOT
ATOM      1  N   UNL     1     -13.121  -0.735   1.365  1.00  0.00    -0.326 N 
ATOM      2  C   UNL     1     -11.259  -2.058   0.798  1.00  0.00     0.014 C 
ATOM      3  C   UNL     1     -12.444  -1.973   1.763  1.00  0.00     0.091 C 
ATOM      4  C   UNL     1     -10.878  -0.599   0.605  1.00  0.00     0.041 C 
ATOM      5  C   UNL     1     -12.273   0.024   0.412  1.00  0.00     0.175 C 
ATOM      6  C   UNL     1     -13.227  -3.283   1.685  1.00  0.00     0.059 C 
ATOM      7  C   UNL     1     -10.218  -3.038   1.303  1.00  0.00     0.008 C 
ATOM      8  C   UNL     1     -12.347  -4.514   1.376  1.00  0.00     0.143 C 
ATOM      9  C   UNL     1     -10.891  -4.317   1.843  1.00  0.00     0.034 C 
ENDROOT
BRANCH   1  10
ATOM     10  C   UNL     1     -14.248  -0.130   1.895  1.00  0.00     0.246 C 
ATOM     11  O   UNL     1     -14.624  -0.446   3.029  1.00  0.00    -0.272 OA
BRANCH  10  12
ATOM     12  C   UNL     1     -14.990   0.963   1.071  1.00  0.00     0.174 C 
BRANCH  12  13
ATOM     13  N   UNL     1     -14.629   2.291   1.564  1.00  0.00    -0.342 N 
ATOM     14  C   UNL     1     -14.024   3.275   0.815  1.00  0.00     0.249 C 
ATOM     15  O   UNL     1     -13.745   3.153  -0.372  1.00  0.00    -0.272 OA
ATOM     16  H   UNL     1     -14.656   2.482   2.563  1.00  0.00     0.164 HD
BRANCH  14  17
ATOM     17  C   UNL     1     -13.755   4.560   1.625  1.00  0.00     0.207 C 
BRANCH  17  18
ATOM     18  C   UNL     1     -15.018   4.997   2.373  1.00  0.00     0.077 C 
BRANCH  18  19
ATOM     19  C   UNL     1     -14.715   5.414   3.795  1.00  0.00    -0.043 A 
ATOM     20  C   UNL     1     -14.422   4.847   6.135  1.00  0.00     0.083 A 
ATOM     21  C   UNL     1     -14.654   4.453   4.816  1.00  0.00     0.028 A 
ATOM     22  C   UNL     1     -14.252   6.197   6.441  1.00  0.00     0.134 A 
ATOM     23  C   UNL     1     -14.309   7.159   5.439  1.00  0.00     0.048 A 
ATOM     24  C   UNL     1     -14.543   6.768   4.118  1.00  0.00     0.008 A 
ATOM     25  Cl  UNL     1     -14.351   3.652   7.377  1.00  0.00    -0.080 Cl
BRANCH  22  26
ATOM     26  O   UNL     1     -14.033   6.632   7.720  1.00  0.00    -0.506 OA
ATOM     27  H   UNL     1     -14.893   6.938   8.063  1.00  0.00     0.293 HD
ENDBRANCH  22  26
ENDBRANCH  18  19
ENDBRANCH  17  18
BRANCH  17  28
ATOM     28  O   UNL     1     -13.314   5.628   0.770  1.00  0.00    -0.383 OA
ATOM     29  H   UNL     1     -13.327   5.266  -0.145  1.00  0.00     0.211 HD
ENDBRANCH  17  28
ENDBRANCH  14  17
ENDBRANCH  12  13
BRANCH  12  30
ATOM     30  C   UNL     1     -16.527   0.743   1.032  1.00  0.00     0.018 C 
ATOM     31  C   UNL     1     -17.036   0.705  -0.417  1.00  0.00     0.010 C 
BRANCH  30  32
ATOM     32  C   UNL     1     -17.325   1.788   1.849  1.00  0.00     0.002 C 
ATOM     33  C   UNL     1     -17.731   1.348   3.249  1.00  0.00     0.004 C 
ENDBRANCH  30  32
ENDBRANCH  12  30
ENDBRANCH  10  12
ENDBRANCH   1  10
BRANCH   5  34
ATOM     34  C   UNL     1     -12.784  -0.156  -1.042  1.00  0.00     0.242 C 
ATOM     35  O   UNL     1     -13.500  -1.100  -1.376  1.00  0.00    -0.273 OA
ATOM     36  N   UNL     1     -12.335   0.785  -1.941  1.00  0.00    -0.354 N 
ATOM     37  H   UNL     1     -11.648   1.473  -1.631  1.00  0.00     0.163 HD
BRANCH  36  38
ATOM     38  C   UNL     1     -12.877   0.896  -3.279  1.00  0.00     0.116 C 
BRANCH  38  39
ATOM     39  C   UNL     1     -11.780   0.629  -4.307  1.00  0.00     0.023 C 
BRANCH  39  40
ATOM     40  C   UNL     1     -10.656  -0.236  -3.748  1.00  0.00     0.026 C 
BRANCH  40  41
ATOM     41  C   UNL     1     -10.575  -1.568  -4.494  1.00  0.00     0.146 C 
BRANCH  41  42
ATOM     42  N   UNL     1      -9.979  -2.579  -3.631  1.00  0.00    -0.254 NA
ATOM     43  C   UNL     1     -10.732  -3.304  -2.891  1.00  0.00     0.185 C 
ATOM     44  N   UNL     1     -12.071  -3.303  -2.755  1.00  0.00    -0.370 N 
ATOM     45  N   UNL     1     -10.163  -4.227  -2.099  1.00  0.00    -0.370 N 
ATOM     46  H   UNL     1     -12.506  -3.750  -1.966  1.00  0.00     0.159 HD
ATOM     47  H   UNL     1     -12.660  -2.674  -3.291  1.00  0.00     0.159 HD
ATOM     48  H   UNL     1      -9.156  -4.300  -2.147  1.00  0.00     0.159 HD
ATOM     49  H   UNL     1     -10.682  -4.979  -1.680  1.00  0.00     0.159 HD
ENDBRANCH  41  42
ENDBRANCH  40  41
ENDBRANCH  39  40
ENDBRANCH  38  39
ENDBRANCH  36  38
ENDBRANCH   5  34
BRANCH   8  50
ATOM     50  O   UNL     1     -12.342  -4.774  -0.028  1.00  0.00    -0.245 OA
BRANCH  50  51
ATOM     51  S   UNL     1     -12.698  -6.265  -0.570  1.00  0.00     0.397 S 
ATOM     52  O   UNL     1     -13.733  -6.813   0.279  1.00  0.00    -0.169 OA
ATOM     53  O   UNL     1     -11.474  -6.990  -0.839  1.00  0.00    -0.169 OA
BRANCH  51  54
ATOM     54  O   UNL     1     -13.408  -5.950  -1.978  1.00  0.00    -0.264 OA
ATOM     55  H   UNL     1     -14.371  -6.083  -1.863  1.00  0.00     0.236 HD
ENDBRANCH  51  54
ENDBRANCH  50  51
ENDBRANCH   8  50
TORSDOF 19
ENDMDL
MODEL 41
REMARK VINA RESULT:    -6.263      7.629     10.872
REMARK INTER + INTRA:         -16.279
REMARK INTER:                 -11.140
REMARK INTRA:                  -5.139
REMARK UNBOUND:                -3.609
REMARK SMILES CC[C@@H](C)[C@@H](NC(=O)[C@@H](O)Cc1ccc(O)c(Cl)c1)C(=O)N1[C@H](C(=O)NCCCCN=C(N)N)C[C@H]2CC[C@H](OS(=O)(=O)O)C[C@@H]21
REMARK SMILES IDX 22 1 36 2 46 3 35 4 23 5 45 6 37 7 39 8 38 9 20 10 21 11
REMARK SMILES IDX 5 12 6 13 7 14 8 15 9 17 11 18 12 19 17 20 19 21 15 22 14 23
REMARK SMILES IDX 13 24 18 25 16 26 10 28 3 30 4 31 2 32 1 33 24 34 25 35
REMARK SMILES IDX 26 36 27 38 28 39 29 40 30 41 31 42 32 43 33 44 34 45 40 50
REMARK SMILES IDX 41 51 42 52 43 53 44 54
REMARK H PARENT 6 16 16 27 10 29 26 37 33 46 33 47 34 48 34 49 44 55
ROOT
ATOM      1  N   UNL     1     -12.963  -0.730  -3.868  1.00  0.00    -0.326 N 
ATOM      2  C   UNL     1     -11.050  -1.036  -2.531  1.00  0.00     0.014 C 
ATOM      3  C   UNL     1     -12.428  -0.370  -2.552  1.00  0.00     0.091 C 
ATOM      4  C   UNL     1     -10.601  -0.922  -3.980  1.00  0.00     0.041 C 
ATOM      5  C   UNL     1     -11.897  -1.341  -4.700  1.00  0.00     0.175 C 
ATOM      6  C   UNL     1     -13.199  -0.816  -1.310  1.00  0.00     0.059 C 
ATOM      7  C   UNL     1     -10.181  -0.450  -1.436  1.00  0.00     0.008 C 
ATOM      8  C   UNL     1     -12.300  -1.087  -0.085  1.00  0.00     0.143 C 
ATOM      9  C   UNL     1     -10.992  -0.272  -0.135  1.00  0.00     0.034 C 
ENDROOT
BRANCH   1  10
ATOM     10  C   UNL     1     -14.170  -0.394  -4.458  1.00  0.00     0.246 C 
ATOM     11  O   UNL     1     -15.037  -1.264  -4.589  1.00  0.00    -0.272 OA
BRANCH  10  12
ATOM     12  C   UNL     1     -14.424   1.075  -4.903  1.00  0.00     0.174 C 
BRANCH  12  13
ATOM     13  N   UNL     1     -13.149   1.756  -5.127  1.00  0.00    -0.342 N 
ATOM     14  C   UNL     1     -12.732   2.276  -6.332  1.00  0.00     0.249 C 
ATOM     15  O   UNL     1     -13.405   2.250  -7.355  1.00  0.00    -0.272 OA
ATOM     16  H   UNL     1     -12.424   1.715  -4.415  1.00  0.00     0.164 HD
BRANCH  14  17
ATOM     17  C   UNL     1     -11.330   2.917  -6.251  1.00  0.00     0.207 C 
BRANCH  17  18
ATOM     18  C   UNL     1     -10.920   3.126  -4.790  1.00  0.00     0.077 C 
BRANCH  18  19
ATOM     19  C   UNL     1      -9.546   2.564  -4.506  1.00  0.00    -0.043 A 
ATOM     20  C   UNL     1      -7.556   1.396  -5.255  1.00  0.00     0.083 A 
ATOM     21  C   UNL     1      -8.803   1.957  -5.531  1.00  0.00     0.028 A 
ATOM     22  C   UNL     1      -7.045   1.434  -3.957  1.00  0.00     0.134 A 
ATOM     23  C   UNL     1      -7.770   2.031  -2.933  1.00  0.00     0.048 A 
ATOM     24  C   UNL     1      -9.019   2.593  -3.206  1.00  0.00     0.008 A 
ATOM     25  Cl  UNL     1      -6.658   0.655  -6.528  1.00  0.00    -0.080 Cl
BRANCH  22  26
ATOM     26  O   UNL     1      -5.832   0.887  -3.636  1.00  0.00    -0.506 OA
ATOM     27  H   UNL     1      -5.255   1.011  -4.413  1.00  0.00     0.293 HD
ENDBRANCH  22  26
ENDBRANCH  18  19
ENDBRANCH  17  18
BRANCH  17  28
ATOM     28  O   UNL     1     -11.297   4.177  -6.940  1.00  0.00    -0.383 OA
ATOM     29  H   UNL     1     -12.047   4.159  -7.577  1.00  0.00     0.211 HD
ENDBRANCH  17  28
ENDBRANCH  14  17
ENDBRANCH  12  13
BRANCH  12  30
ATOM     30  C   UNL     1     -15.343   1.849  -3.920  1.00  0.00     0.018 C 
ATOM     31  C   UNL     1     -16.377   2.689  -4.686  1.00  0.00     0.010 C 
BRANCH  30  32
ATOM     32  C   UNL     1     -14.571   2.741  -2.918  1.00  0.00     0.002 C 
ATOM     33  C   UNL     1     -14.860   2.470  -1.447  1.00  0.00     0.004 C 
ENDBRANCH  30  32
ENDBRANCH  12  30
ENDBRANCH  10  12
ENDBRANCH   1  10
BRANCH   5  34
ATOM     34  C   UNL     1     -12.052  -2.884  -4.747  1.00  0.00     0.242 C 
ATOM     35  O   UNL     1     -12.951  -3.474  -4.147  1.00  0.00    -0.273 OA
ATOM     36  N   UNL     1     -11.081  -3.549  -5.462  1.00  0.00    -0.354 N 
ATOM     37  H   UNL     1     -10.295  -3.016  -5.836  1.00  0.00     0.163 HD
BRANCH  36  38
ATOM     38  C   UNL     1     -11.189  -4.955  -5.790  1.00  0.00     0.116 C 
BRANCH  38  39
ATOM     39  C   UNL     1      -9.995  -5.714  -5.216  1.00  0.00     0.023 C 
BRANCH  39  40
ATOM     40  C   UNL     1     -10.401  -6.703  -4.128  1.00  0.00     0.026 C 
BRANCH  40  41
ATOM     41  C   UNL     1      -9.816  -6.292  -2.776  1.00  0.00     0.146 C 
BRANCH  41  42
ATOM     42  N   UNL     1     -10.657  -6.801  -1.701  1.00  0.00    -0.254 NA
ATOM     43  C   UNL     1     -11.703  -6.151  -1.353  1.00  0.00     0.185 C 
ATOM     44  N   UNL     1     -12.207  -5.000  -1.835  1.00  0.00    -0.370 N 
ATOM     45  N   UNL     1     -12.462  -6.635  -0.356  1.00  0.00    -0.370 N 
ATOM     46  H   UNL     1     -12.890  -4.480  -1.311  1.00  0.00     0.159 HD
ATOM     47  H   UNL     1     -11.764  -4.505  -2.603  1.00  0.00     0.159 HD
ATOM     48  H   UNL     1     -12.158  -7.506   0.057  1.00  0.00     0.159 HD
ATOM     49  H   UNL     1     -13.403  -6.324  -0.188  1.00  0.00     0.159 HD
ENDBRANCH  41  42
ENDBRANCH  40  41
ENDBRANCH  39  40
ENDBRANCH  38  39
ENDBRANCH  36  38
ENDBRANCH   5  34
BRANCH   8  50
ATOM     50  O   UNL     1     -11.967  -2.474  -0.017  1.00  0.00    -0.245 OA
BRANCH  50  51
ATOM     51  S   UNL     1     -12.453  -3.355   1.261  1.00  0.00     0.397 S 
ATOM     52  O   UNL     1     -12.972  -2.446   2.258  1.00  0.00    -0.169 OA
ATOM     53  O   UNL     1     -11.442  -4.340   1.584  1.00  0.00    -0.169 OA
BRANCH  51  54
ATOM     54  O   UNL     1     -13.730  -4.131   0.668  1.00  0.00    -0.264 OA
ATOM     55  H   UNL     1     -14.173  -4.588   1.412  1.00  0.00     0.236 HD
ENDBRANCH  51  54
ENDBRANCH  50  51
ENDBRANCH   8  50
TORSDOF 19
ENDMDL
MODEL 42
REMARK VINA RESULT:    -6.243      8.565     12.675
REMARK INTER + INTRA:         -16.238
REMARK INTER:                 -13.671
REMARK INTRA:                  -2.567
REMARK UNBOUND:                -3.609
REMARK SMILES CC[C@@H](C)[C@@H](NC(=O)[C@@H](O)Cc1ccc(O)c(Cl)c1)C(=O)N1[C@H](C(=O)NCCCCN=C(N)N)C[C@H]2CC[C@H](OS(=O)(=O)O)C[C@@H]21
REMARK SMILES IDX 22 1 36 2 46 3 35 4 23 5 45 6 37 7 39 8 38 9 20 10 21 11
REMARK SMILES IDX 5 12 6 13 7 14 8 15 9 17 11 18 12 19 17 20 19 21 15 22 14 23
REMARK SMILES IDX 13 24 18 25 16 26 10 28 3 30 4 31 2 32 1 33 24 34 25 35
REMARK SMILES IDX 26 36 27 38 28 39 29 40 30 41 31 42 32 43 33 44 34 45 40 50
REMARK SMILES IDX 41 51 42 52 43 53 44 54
REMARK H PARENT 6 16 16 27 10 29 26 37 33 46 33 47 34 48 34 49 44 55
ROOT
ATOM      1  N   UNL     1     -11.631  -1.381  -4.193  1.00  0.00    -0.326 N 
ATOM      2  C   UNL     1     -10.265   0.222  -3.140  1.00  0.00     0.014 C 
ATOM      3  C   UNL     1     -10.410  -0.604  -4.422  1.00  0.00     0.091 C 
ATOM      4  C   UNL     1     -10.797  -0.722  -2.072  1.00  0.00     0.041 C 
ATOM      5  C   UNL     1     -12.059  -1.249  -2.778  1.00  0.00     0.175 C 
ATOM      6  C   UNL     1     -10.370   0.348  -5.616  1.00  0.00     0.059 C 
ATOM      7  C   UNL     1      -8.861   0.778  -3.009  1.00  0.00     0.008 C 
ATOM      8  C   UNL     1      -9.485   1.592  -5.390  1.00  0.00     0.143 C 
ATOM      9  C   UNL     1      -8.365   1.328  -4.362  1.00  0.00     0.034 C 
ENDROOT
BRANCH   1  10
ATOM     10  C   UNL     1     -12.251  -2.319  -5.001  1.00  0.00     0.246 C 
ATOM     11  O   UNL     1     -13.299  -2.015  -5.579  1.00  0.00    -0.272 OA
BRANCH  10  12
ATOM     12  C   UNL     1     -11.594  -3.716  -5.197  1.00  0.00     0.174 C 
BRANCH  12  13
ATOM     13  N   UNL     1     -11.426  -4.374  -3.901  1.00  0.00    -0.342 N 
ATOM     14  C   UNL     1     -12.353  -5.203  -3.310  1.00  0.00     0.249 C 
ATOM     15  O   UNL     1     -13.423  -5.505  -3.823  1.00  0.00    -0.272 OA
ATOM     16  H   UNL     1     -10.662  -4.097  -3.291  1.00  0.00     0.164 HD
BRANCH  14  17
ATOM     17  C   UNL     1     -11.890  -5.729  -1.934  1.00  0.00     0.207 C 
BRANCH  17  18
ATOM     18  C   UNL     1     -10.557  -6.472  -2.067  1.00  0.00     0.077 C 
BRANCH  18  19
ATOM     19  C   UNL     1      -9.658  -6.230  -0.875  1.00  0.00    -0.043 A 
ATOM     20  C   UNL     1      -9.143  -5.009   1.157  1.00  0.00     0.083 A 
ATOM     21  C   UNL     1      -9.999  -5.264   0.085  1.00  0.00     0.028 A 
ATOM     22  C   UNL     1      -7.944  -5.713   1.276  1.00  0.00     0.134 A 
ATOM     23  C   UNL     1      -7.595  -6.672   0.333  1.00  0.00     0.048 A 
ATOM     24  C   UNL     1      -8.449  -6.929  -0.742  1.00  0.00     0.008 A 
ATOM     25  Cl  UNL     1      -9.579  -3.818   2.325  1.00  0.00    -0.080 Cl
BRANCH  22  26
ATOM     26  O   UNL     1      -7.068  -5.489   2.304  1.00  0.00    -0.506 OA
ATOM     27  H   UNL     1      -6.591  -4.666   2.091  1.00  0.00     0.293 HD
ENDBRANCH  22  26
ENDBRANCH  18  19
ENDBRANCH  17  18
BRANCH  17  28
ATOM     28  O   UNL     1     -12.871  -6.607  -1.360  1.00  0.00    -0.383 OA
ATOM     29  H   UNL     1     -13.701  -6.458  -1.867  1.00  0.00     0.211 HD
ENDBRANCH  17  28
ENDBRANCH  14  17
ENDBRANCH  12  13
BRANCH  12  30
ATOM     30  C   UNL     1     -10.269  -3.648  -6.003  1.00  0.00     0.018 C 
ATOM     31  C   UNL     1     -10.305  -4.618  -7.195  1.00  0.00     0.010 C 
BRANCH  30  32
ATOM     32  C   UNL     1      -9.006  -3.906  -5.145  1.00  0.00     0.002 C 
ATOM     33  C   UNL     1      -7.788  -3.068  -5.512  1.00  0.00     0.004 C 
ENDBRANCH  30  32
ENDBRANCH  12  30
ENDBRANCH  10  12
ENDBRANCH   1  10
BRANCH   5  34
ATOM     34  C   UNL     1     -13.243  -0.254  -2.652  1.00  0.00     0.242 C 
ATOM     35  O   UNL     1     -13.114   0.862  -2.148  1.00  0.00    -0.273 OA
ATOM     36  N   UNL     1     -14.457  -0.728  -3.094  1.00  0.00    -0.354 N 
ATOM     37  H   UNL     1     -14.526  -1.703  -3.391  1.00  0.00     0.163 HD
BRANCH  36  38
ATOM     38  C   UNL     1     -15.613   0.131  -3.251  1.00  0.00     0.116 C 
BRANCH  38  39
ATOM     39  C   UNL     1     -16.547  -0.034  -2.054  1.00  0.00     0.023 C 
BRANCH  39  40
ATOM     40  C   UNL     1     -17.648   1.021  -2.025  1.00  0.00     0.026 C 
BRANCH  40  41
ATOM     41  C   UNL     1     -18.401   1.055  -3.354  1.00  0.00     0.146 C 
BRANCH  41  42
ATOM     42  N   UNL     1     -19.390  -0.014  -3.387  1.00  0.00    -0.254 NA
ATOM     43  C   UNL     1     -20.586   0.241  -3.768  1.00  0.00     0.185 C 
ATOM     44  N   UNL     1     -21.136   1.399  -4.175  1.00  0.00    -0.370 N 
ATOM     45  N   UNL     1     -21.484  -0.758  -3.787  1.00  0.00    -0.370 N 
ATOM     46  H   UNL     1     -22.135   1.508  -4.209  1.00  0.00     0.159 HD
ATOM     47  H   UNL     1     -20.593   2.255  -4.234  1.00  0.00     0.159 HD
ATOM     48  H   UNL     1     -21.148  -1.669  -3.504  1.00  0.00     0.159 HD
ATOM     49  H   UNL     1     -22.353  -0.699  -4.287  1.00  0.00     0.159 HD
ENDBRANCH  41  42
ENDBRANCH  40  41
ENDBRANCH  39  40
ENDBRANCH  38  39
ENDBRANCH  36  38
ENDBRANCH   5  34
BRANCH   8  50
ATOM     50  O   UNL     1     -10.281   2.682  -4.922  1.00  0.00    -0.245 OA
BRANCH  50  51
ATOM     51  S   UNL     1     -10.073   4.162  -5.564  1.00  0.00     0.397 S 
ATOM     52  O   UNL     1      -8.890   4.743  -4.970  1.00  0.00    -0.169 OA
ATOM     53  O   UNL     1     -11.338   4.866  -5.582  1.00  0.00    -0.169 OA
BRANCH  51  54
ATOM     54  O   UNL     1      -9.676   3.816  -7.083  1.00  0.00    -0.264 OA
ATOM     55  H   UNL     1     -10.420   4.093  -7.656  1.00  0.00     0.236 HD
ENDBRANCH  51  54
ENDBRANCH  50  51
ENDBRANCH   8  50
TORSDOF 19
ENDMDL
MODEL 43
REMARK VINA RESULT:    -6.241      9.250     13.498
REMARK INTER + INTRA:         -16.234
REMARK INTER:                 -13.546
REMARK INTRA:                  -2.687
REMARK UNBOUND:                -3.609
REMARK SMILES CC[C@@H](C)[C@@H](NC(=O)[C@@H](O)Cc1ccc(O)c(Cl)c1)C(=O)N1[C@H](C(=O)NCCCCN=C(N)N)C[C@H]2CC[C@H](OS(=O)(=O)O)C[C@@H]21
REMARK SMILES IDX 22 1 36 2 46 3 35 4 23 5 45 6 37 7 39 8 38 9 20 10 21 11
REMARK SMILES IDX 5 12 6 13 7 14 8 15 9 17 11 18 12 19 17 20 19 21 15 22 14 23
REMARK SMILES IDX 13 24 18 25 16 26 10 28 3 30 4 31 2 32 1 33 24 34 25 35
REMARK SMILES IDX 26 36 27 38 28 39 29 40 30 41 31 42 32 43 33 44 34 45 40 50
REMARK SMILES IDX 41 51 42 52 43 53 44 54
REMARK H PARENT 6 16 16 27 10 29 26 37 33 46 33 47 34 48 34 49 44 55
ROOT
ATOM      1  N   UNL     1     -11.233  -2.824  -3.568  1.00  0.00    -0.326 N 
ATOM      2  C   UNL     1     -11.150  -0.512  -4.002  1.00  0.00     0.014 C 
ATOM      3  C   UNL     1     -11.550  -1.854  -4.621  1.00  0.00     0.091 C 
ATOM      4  C   UNL     1      -9.938  -0.879  -3.160  1.00  0.00     0.041 C 
ATOM      5  C   UNL     1     -10.451  -2.168  -2.491  1.00  0.00     0.175 C 
ATOM      6  C   UNL     1     -12.997  -1.753  -5.101  1.00  0.00     0.059 C 
ATOM      7  C   UNL     1     -11.018   0.558  -5.068  1.00  0.00     0.008 C 
ATOM      8  C   UNL     1     -13.397  -0.339  -5.574  1.00  0.00     0.143 C 
ATOM      9  C   UNL     1     -12.183   0.469  -6.076  1.00  0.00     0.034 C 
ENDROOT
BRANCH   1  10
ATOM     10  C   UNL     1     -11.365  -4.202  -3.562  1.00  0.00     0.246 C 
ATOM     11  O   UNL     1     -12.309  -4.713  -2.950  1.00  0.00    -0.272 OA
BRANCH  10  12
ATOM     12  C   UNL     1     -10.350  -5.073  -4.359  1.00  0.00     0.174 C 
BRANCH  12  13
ATOM     13  N   UNL     1      -9.271  -5.514  -3.476  1.00  0.00    -0.342 N 
ATOM     14  C   UNL     1      -9.133  -6.787  -2.971  1.00  0.00     0.249 C 
ATOM     15  O   UNL     1      -9.895  -7.710  -3.231  1.00  0.00    -0.272 OA
ATOM     16  H   UNL     1      -8.656  -4.825  -3.050  1.00  0.00     0.164 HD
BRANCH  14  17
ATOM     17  C   UNL     1      -7.900  -6.934  -2.054  1.00  0.00     0.207 C 
BRANCH  17  18
ATOM     18  C   UNL     1      -8.161  -6.278  -0.695  1.00  0.00     0.077 C 
BRANCH  18  19
ATOM     19  C   UNL     1      -9.532  -6.624  -0.159  1.00  0.00    -0.043 A 
ATOM     20  C   UNL     1     -11.783  -5.953   0.448  1.00  0.00     0.083 A 
ATOM     21  C   UNL     1     -10.535  -5.643  -0.093  1.00  0.00     0.028 A 
ATOM     22  C   UNL     1     -12.037  -7.238   0.927  1.00  0.00     0.134 A 
ATOM     23  C   UNL     1     -11.054  -8.219   0.868  1.00  0.00     0.048 A 
ATOM     24  C   UNL     1      -9.802  -7.912   0.329  1.00  0.00     0.008 A 
ATOM     25  Cl  UNL     1     -13.002  -4.735   0.521  1.00  0.00    -0.080 Cl
BRANCH  22  26
ATOM     26  O   UNL     1     -13.242  -7.586   1.476  1.00  0.00    -0.506 OA
ATOM     27  H   UNL     1     -13.047  -8.031   2.322  1.00  0.00     0.293 HD
ENDBRANCH  22  26
ENDBRANCH  18  19
ENDBRANCH  17  18
BRANCH  17  28
ATOM     28  O   UNL     1      -6.737  -6.342  -2.654  1.00  0.00    -0.383 OA
ATOM     29  H   UNL     1      -7.011  -5.444  -2.950  1.00  0.00     0.211 HD
ENDBRANCH  17  28
ENDBRANCH  14  17
ENDBRANCH  12  13
BRANCH  12  30
ATOM     30  C   UNL     1      -9.821  -4.362  -5.633  1.00  0.00     0.018 C 
ATOM     31  C   UNL     1     -10.010  -5.250  -6.873  1.00  0.00     0.010 C 
BRANCH  30  32
ATOM     32  C   UNL     1      -8.344  -3.909  -5.524  1.00  0.00     0.002 C 
ATOM     33  C   UNL     1      -8.084  -2.449  -5.870  1.00  0.00     0.004 C 
ENDBRANCH  30  32
ENDBRANCH  12  30
ENDBRANCH  10  12
ENDBRANCH   1  10
BRANCH   5  34
ATOM     34  C   UNL     1     -11.354  -1.857  -1.267  1.00  0.00     0.242 C 
ATOM     35  O   UNL     1     -12.560  -2.102  -1.260  1.00  0.00    -0.273 OA
ATOM     36  N   UNL     1     -10.718  -1.239  -0.214  1.00  0.00    -0.354 N 
ATOM     37  H   UNL     1      -9.745  -0.953  -0.326  1.00  0.00     0.163 HD
BRANCH  36  38
ATOM     38  C   UNL     1     -11.349  -1.073   1.080  1.00  0.00     0.116 C 
BRANCH  38  39
ATOM     39  C   UNL     1     -12.004   0.304   1.164  1.00  0.00     0.023 C 
BRANCH  39  40
ATOM     40  C   UNL     1     -13.505   0.221   1.419  1.00  0.00     0.026 C 
BRANCH  40  41
ATOM     41  C   UNL     1     -13.994   1.448   2.188  1.00  0.00     0.146 C 
BRANCH  41  42
ATOM     42  N   UNL     1     -13.566   2.661   1.503  1.00  0.00    -0.254 NA
ATOM     43  C   UNL     1     -13.782   3.802   2.042  1.00  0.00     0.185 C 
ATOM     44  N   UNL     1     -14.375   4.109   3.210  1.00  0.00    -0.370 N 
ATOM     45  N   UNL     1     -13.384   4.908   1.392  1.00  0.00    -0.370 N 
ATOM     46  H   UNL     1     -14.695   5.045   3.392  1.00  0.00     0.159 HD
ATOM     47  H   UNL     1     -14.724   3.390   3.835  1.00  0.00     0.159 HD
ATOM     48  H   UNL     1     -12.920   4.765   0.505  1.00  0.00     0.159 HD
ATOM     49  H   UNL     1     -13.301   5.803   1.841  1.00  0.00     0.159 HD
ENDBRANCH  41  42
ENDBRANCH  40  41
ENDBRANCH  39  40
ENDBRANCH  38  39
ENDBRANCH  36  38
ENDBRANCH   5  34
BRANCH   8  50
ATOM     50  O   UNL     1     -14.009   0.382  -4.505  1.00  0.00    -0.245 OA
BRANCH  50  51
ATOM     51  S   UNL     1     -15.327  -0.232  -3.775  1.00  0.00     0.397 S 
ATOM     52  O   UNL     1     -15.045  -0.339  -2.361  1.00  0.00    -0.169 OA
ATOM     53  O   UNL     1     -15.826  -1.357  -4.537  1.00  0.00    -0.169 OA
BRANCH  51  54
ATOM     54  O   UNL     1     -16.383   0.973  -3.921  1.00  0.00    -0.264 OA
ATOM     55  H   UNL     1     -17.281   0.583  -3.926  1.00  0.00     0.236 HD
ENDBRANCH  51  54
ENDBRANCH  50  51
ENDBRANCH   8  50
TORSDOF 19
ENDMDL
MODEL 44
REMARK VINA RESULT:    -6.215      3.070      5.498
REMARK INTER + INTRA:         -16.181
REMARK INTER:                 -12.982
REMARK INTRA:                  -3.199
REMARK UNBOUND:                -3.609
REMARK SMILES CC[C@@H](C)[C@@H](NC(=O)[C@@H](O)Cc1ccc(O)c(Cl)c1)C(=O)N1[C@H](C(=O)NCCCCN=C(N)N)C[C@H]2CC[C@H](OS(=O)(=O)O)C[C@@H]21
REMARK SMILES IDX 22 1 36 2 46 3 35 4 23 5 45 6 37 7 39 8 38 9 20 10 21 11
REMARK SMILES IDX 5 12 6 13 7 14 8 15 9 17 11 18 12 19 17 20 19 21 15 22 14 23
REMARK SMILES IDX 13 24 18 25 16 26 10 28 3 30 4 31 2 32 1 33 24 34 25 35
REMARK SMILES IDX 26 36 27 38 28 39 29 40 30 41 31 42 32 43 33 44 34 45 40 50
REMARK SMILES IDX 41 51 42 52 43 53 44 54
REMARK H PARENT 6 16 16 27 10 29 26 37 33 46 33 47 34 48 34 49 44 55
ROOT
ATOM      1  N   UNL     1      -2.660   0.795 -10.955  1.00  0.00    -0.326 N 
ATOM      2  C   UNL     1      -2.235  -1.403 -11.685  1.00  0.00     0.014 C 
ATOM      3  C   UNL     1      -1.728  -0.315 -10.734  1.00  0.00     0.091 C 
ATOM      4  C   UNL     1      -2.743  -0.600 -12.872  1.00  0.00     0.041 C 
ATOM      5  C   UNL     1      -3.510   0.515 -12.139  1.00  0.00     0.175 C 
ATOM      6  C   UNL     1      -1.627  -0.908  -9.330  1.00  0.00     0.059 C 
ATOM      7  C   UNL     1      -1.178  -2.467 -11.904  1.00  0.00     0.008 C 
ATOM      8  C   UNL     1      -1.279  -2.412  -9.315  1.00  0.00     0.143 C 
ATOM      9  C   UNL     1      -0.494  -2.838 -10.572  1.00  0.00     0.034 C 
ENDROOT
BRANCH   1  10
ATOM     10  C   UNL     1      -2.689   2.056 -10.386  1.00  0.00     0.246 C 
ATOM     11  O   UNL     1      -3.776   2.541 -10.054  1.00  0.00    -0.272 OA
BRANCH  10  12
ATOM     12  C   UNL     1      -1.354   2.817 -10.138  1.00  0.00     0.174 C 
BRANCH  12  13
ATOM     13  N   UNL     1      -1.164   3.037  -8.705  1.00  0.00    -0.342 N 
ATOM     14  C   UNL     1      -0.196   2.433  -7.934  1.00  0.00     0.249 C 
ATOM     15  O   UNL     1       0.642   1.657  -8.377  1.00  0.00    -0.272 OA
ATOM     16  H   UNL     1      -1.876   3.531  -8.172  1.00  0.00     0.164 HD
BRANCH  14  17
ATOM     17  C   UNL     1      -0.264   2.857  -6.452  1.00  0.00     0.207 C 
BRANCH  17  18
ATOM     18  C   UNL     1      -0.816   4.281  -6.327  1.00  0.00     0.077 C 
BRANCH  18  19
ATOM     19  C   UNL     1      -2.272   4.286  -5.919  1.00  0.00    -0.043 A 
ATOM     20  C   UNL     1      -4.305   3.083  -5.367  1.00  0.00     0.083 A 
ATOM     21  C   UNL     1      -2.948   3.077  -5.694  1.00  0.00     0.028 A 
ATOM     22  C   UNL     1      -4.992   4.293  -5.263  1.00  0.00     0.134 A 
ATOM     23  C   UNL     1      -4.335   5.497  -5.483  1.00  0.00     0.048 A 
ATOM     24  C   UNL     1      -2.978   5.494  -5.813  1.00  0.00     0.008 A 
ATOM     25  Cl  UNL     1      -5.119   1.587  -5.095  1.00  0.00    -0.080 Cl
BRANCH  22  26
ATOM     26  O   UNL     1      -6.325   4.349  -4.955  1.00  0.00    -0.506 OA
ATOM     27  H   UNL     1      -6.738   4.947  -5.605  1.00  0.00     0.293 HD
ENDBRANCH  22  26
ENDBRANCH  18  19
ENDBRANCH  17  18
BRANCH  17  28
ATOM     28  O   UNL     1       1.032   2.792  -5.835  1.00  0.00    -0.383 OA
ATOM     29  H   UNL     1       0.875   2.862  -4.866  1.00  0.00     0.211 HD
ENDBRANCH  17  28
ENDBRANCH  14  17
ENDBRANCH  12  13
BRANCH  12  30
ATOM     30  C   UNL     1      -1.251   4.131 -10.958  1.00  0.00     0.018 C 
ATOM     31  C   UNL     1      -1.099   3.830 -12.457  1.00  0.00     0.010 C 
BRANCH  30  32
ATOM     32  C   UNL     1      -0.115   5.071 -10.486  1.00  0.00     0.002 C 
ATOM     33  C   UNL     1      -0.019   6.399 -11.225  1.00  0.00     0.004 C 
ENDBRANCH  30  32
ENDBRANCH  12  30
ENDBRANCH  10  12
ENDBRANCH   1  10
BRANCH   5  34
ATOM     34  C   UNL     1      -4.924   0.046 -11.702  1.00  0.00     0.242 C 
ATOM     35  O   UNL     1      -5.847  -0.096 -12.504  1.00  0.00    -0.273 OA
ATOM     36  N   UNL     1      -5.085  -0.146 -10.348  1.00  0.00    -0.354 N 
ATOM     37  H   UNL     1      -4.319   0.104  -9.722  1.00  0.00     0.163 HD
BRANCH  36  38
ATOM     38  C   UNL     1      -6.260  -0.784  -9.792  1.00  0.00     0.116 C 
BRANCH  38  39
ATOM     39  C   UNL     1      -7.236   0.277  -9.287  1.00  0.00     0.023 C 
BRANCH  39  40
ATOM     40  C   UNL     1      -7.480   0.175  -7.786  1.00  0.00     0.026 C 
BRANCH  40  41
ATOM     41  C   UNL     1      -6.962  -1.156  -7.240  1.00  0.00     0.146 C 
BRANCH  41  42
ATOM     42  N   UNL     1      -8.062  -2.105  -7.130  1.00  0.00    -0.254 NA
ATOM     43  C   UNL     1      -7.888  -3.320  -7.491  1.00  0.00     0.185 C 
ATOM     44  N   UNL     1      -6.796  -3.927  -7.991  1.00  0.00    -0.370 N 
ATOM     45  N   UNL     1      -8.916  -4.178  -7.385  1.00  0.00    -0.370 N 
ATOM     46  H   UNL     1      -6.871  -4.815  -8.457  1.00  0.00     0.159 HD
ATOM     47  H   UNL     1      -5.923  -3.427  -8.125  1.00  0.00     0.159 HD
ATOM     48  H   UNL     1      -9.776  -3.803  -7.009  1.00  0.00     0.159 HD
ATOM     49  H   UNL     1      -8.798  -5.175  -7.420  1.00  0.00     0.159 HD
ENDBRANCH  41  42
ENDBRANCH  40  41
ENDBRANCH  39  40
ENDBRANCH  38  39
ENDBRANCH  36  38
ENDBRANCH   5  34
BRANCH   8  50
ATOM     50  O   UNL     1      -2.473  -3.191  -9.241  1.00  0.00    -0.245 OA
BRANCH  50  51
ATOM     51  S   UNL     1      -2.440  -4.645  -8.511  1.00  0.00     0.397 S 
ATOM     52  O   UNL     1      -1.610  -4.534  -7.333  1.00  0.00    -0.169 OA
ATOM     53  O   UNL     1      -2.221  -5.680  -9.500  1.00  0.00    -0.169 OA
BRANCH  51  54
ATOM     54  O   UNL     1      -3.949  -4.785  -7.973  1.00  0.00    -0.264 OA
ATOM     55  H   UNL     1      -4.069  -5.703  -7.657  1.00  0.00     0.236 HD
ENDBRANCH  51  54
ENDBRANCH  50  51
ENDBRANCH   8  50
TORSDOF 19
ENDMDL
MODEL 45
REMARK VINA RESULT:    -6.181      7.070      9.600
REMARK INTER + INTRA:         -16.113
REMARK INTER:                 -12.708
REMARK INTRA:                  -3.405
REMARK UNBOUND:                -3.609
REMARK SMILES CC[C@@H](C)[C@@H](NC(=O)[C@@H](O)Cc1ccc(O)c(Cl)c1)C(=O)N1[C@H](C(=O)NCCCCN=C(N)N)C[C@H]2CC[C@H](OS(=O)(=O)O)C[C@@H]21
REMARK SMILES IDX 22 1 36 2 46 3 35 4 23 5 45 6 37 7 39 8 38 9 20 10 21 11
REMARK SMILES IDX 5 12 6 13 7 14 8 15 9 17 11 18 12 19 17 20 19 21 15 22 14 23
REMARK SMILES IDX 13 24 18 25 16 26 10 28 3 30 4 31 2 32 1 33 24 34 25 35
REMARK SMILES IDX 26 36 27 38 28 39 29 40 30 41 31 42 32 43 33 44 34 45 40 50
REMARK SMILES IDX 41 51 42 52 43 53 44 54
REMARK H PARENT 6 16 16 27 10 29 26 37 33 46 33 47 34 48 34 49 44 55
ROOT
ATOM      1  N   UNL     1      -9.957   3.508  -2.739  1.00  0.00    -0.326 N 
ATOM      2  C   UNL     1     -10.549   1.242  -2.501  1.00  0.00     0.014 C 
ATOM      3  C   UNL     1     -11.050   2.666  -2.245  1.00  0.00     0.091 C 
ATOM      4  C   UNL     1      -9.052   1.366  -2.267  1.00  0.00     0.041 C 
ATOM      5  C   UNL     1      -8.765   2.673  -3.029  1.00  0.00     0.175 C 
ATOM      6  C   UNL     1     -12.428   2.817  -2.888  1.00  0.00     0.059 C 
ATOM      7  C   UNL     1     -11.346   0.234  -1.696  1.00  0.00     0.008 C 
ATOM      8  C   UNL     1     -13.255   1.513  -2.898  1.00  0.00     0.143 C 
ATOM      9  C   UNL     1     -12.853   0.563  -1.751  1.00  0.00     0.034 C 
ENDROOT
BRANCH   1  10
ATOM     10  C   UNL     1      -9.834   4.887  -2.753  1.00  0.00     0.246 C 
ATOM     11  O   UNL     1      -9.004   5.424  -2.012  1.00  0.00    -0.272 OA
BRANCH  10  12
ATOM     12  C   UNL     1     -10.711   5.725  -3.728  1.00  0.00     0.174 C 
BRANCH  12  13
ATOM     13  N   UNL     1      -9.900   6.192  -4.852  1.00  0.00    -0.342 N 
ATOM     14  C   UNL     1     -10.242   6.066  -6.179  1.00  0.00     0.249 C 
ATOM     15  O   UNL     1     -11.291   5.567  -6.569  1.00  0.00    -0.272 OA
ATOM     16  H   UNL     1      -8.938   6.483  -4.692  1.00  0.00     0.164 HD
BRANCH  14  17
ATOM     17  C   UNL     1      -9.169   6.642  -7.128  1.00  0.00     0.207 C 
BRANCH  17  18
ATOM     18  C   UNL     1      -9.761   6.886  -8.520  1.00  0.00     0.077 C 
BRANCH  18  19
ATOM     19  C   UNL     1      -9.439   8.272  -9.032  1.00  0.00    -0.043 A 
ATOM     20  C   UNL     1      -8.348   9.717 -10.647  1.00  0.00     0.083 A 
ATOM     21  C   UNL     1      -8.686   8.437 -10.205  1.00  0.00     0.028 A 
ATOM     22  C   UNL     1      -8.758  10.836  -9.922  1.00  0.00     0.134 A 
ATOM     23  C   UNL     1      -9.505  10.688  -8.759  1.00  0.00     0.048 A 
ATOM     24  C   UNL     1      -9.842   9.408  -8.313  1.00  0.00     0.008 A 
ATOM     25  Cl  UNL     1      -7.422   9.899 -12.090  1.00  0.00    -0.080 Cl
BRANCH  22  26
ATOM     26  O   UNL     1      -8.443  12.110 -10.311  1.00  0.00    -0.506 OA
ATOM     27  H   UNL     1      -9.274  12.529 -10.602  1.00  0.00     0.293 HD
ENDBRANCH  22  26
ENDBRANCH  18  19
ENDBRANCH  17  18
BRANCH  17  28
ATOM     28  O   UNL     1      -8.045   5.754  -7.237  1.00  0.00    -0.383 OA
ATOM     29  H   UNL     1      -8.246   5.151  -7.989  1.00  0.00     0.211 HD
ENDBRANCH  17  28
ENDBRANCH  14  17
ENDBRANCH  12  13
BRANCH  12  30
ATOM     30  C   UNL     1     -11.459   6.884  -3.016  1.00  0.00     0.018 C 
ATOM     31  C   UNL     1     -12.711   6.363  -2.293  1.00  0.00     0.010 C 
BRANCH  30  32
ATOM     32  C   UNL     1     -11.837   8.052  -3.959  1.00  0.00     0.002 C 
ATOM     33  C   UNL     1     -13.184   7.915  -4.657  1.00  0.00     0.004 C 
ENDBRANCH  30  32
ENDBRANCH  12  30
ENDBRANCH  10  12
ENDBRANCH   1  10
BRANCH   5  34
ATOM     34  C   UNL     1      -8.623   2.426  -4.555  1.00  0.00     0.242 C 
ATOM     35  O   UNL     1      -8.581   3.348  -5.369  1.00  0.00    -0.273 OA
ATOM     36  N   UNL     1      -8.604   1.103  -4.935  1.00  0.00    -0.354 N 
ATOM     37  H   UNL     1      -8.764   0.386  -4.226  1.00  0.00     0.163 HD
BRANCH  36  38
ATOM     38  C   UNL     1      -8.265   0.689  -6.281  1.00  0.00     0.116 C 
BRANCH  38  39
ATOM     39  C   UNL     1      -8.328  -0.832  -6.387  1.00  0.00     0.023 C 
BRANCH  39  40
ATOM     40  C   UNL     1      -8.340  -1.512  -5.022  1.00  0.00     0.026 C 
BRANCH  40  41
ATOM     41  C   UNL     1      -9.483  -2.523  -4.930  1.00  0.00     0.146 C 
BRANCH  41  42
ATOM     42  N   UNL     1     -10.620  -2.054  -5.711  1.00  0.00    -0.254 NA
ATOM     43  C   UNL     1     -11.445  -2.901  -6.200  1.00  0.00     0.185 C 
ATOM     44  N   UNL     1     -11.456  -4.245  -6.118  1.00  0.00    -0.370 N 
ATOM     45  N   UNL     1     -12.484  -2.449  -6.921  1.00  0.00    -0.370 N 
ATOM     46  H   UNL     1     -12.017  -4.792  -6.748  1.00  0.00     0.159 HD
ATOM     47  H   UNL     1     -10.748  -4.753  -5.597  1.00  0.00     0.159 HD
ATOM     48  H   UNL     1     -12.555  -1.446  -7.024  1.00  0.00     0.159 HD
ATOM     49  H   UNL     1     -13.287  -3.014  -7.131  1.00  0.00     0.159 HD
ENDBRANCH  41  42
ENDBRANCH  40  41
ENDBRANCH  39  40
ENDBRANCH  38  39
ENDBRANCH  36  38
ENDBRANCH   5  34
BRANCH   8  50
ATOM     50  O   UNL     1     -13.075   0.828  -4.137  1.00  0.00    -0.245 OA
BRANCH  50  51
ATOM     51  S   UNL     1     -14.285  -0.080  -4.736  1.00  0.00     0.397 S 
ATOM     52  O   UNL     1     -15.533   0.583  -4.432  1.00  0.00    -0.169 OA
ATOM     53  O   UNL     1     -14.061  -1.470  -4.401  1.00  0.00    -0.169 OA
BRANCH  51  54
ATOM     54  O   UNL     1     -14.076   0.087  -6.322  1.00  0.00    -0.264 OA
ATOM     55  H   UNL     1     -14.792  -0.407  -6.771  1.00  0.00     0.236 HD
ENDBRANCH  51  54
ENDBRANCH  50  51
ENDBRANCH   8  50
TORSDOF 19
ENDMDL
MODEL 46
REMARK VINA RESULT:    -6.129     13.801     17.193
REMARK INTER + INTRA:         -16.009
REMARK INTER:                 -13.771
REMARK INTRA:                  -2.237
REMARK UNBOUND:                -3.609
REMARK SMILES CC[C@@H](C)[C@@H](NC(=O)[C@@H](O)Cc1ccc(O)c(Cl)c1)C(=O)N1[C@H](C(=O)NCCCCN=C(N)N)C[C@H]2CC[C@H](OS(=O)(=O)O)C[C@@H]21
REMARK SMILES IDX 22 1 36 2 46 3 35 4 23 5 45 6 37 7 39 8 38 9 20 10 21 11
REMARK SMILES IDX 5 12 6 13 7 14 8 15 9 17 11 18 12 19 17 20 19 21 15 22 14 23
REMARK SMILES IDX 13 24 18 25 16 26 10 28 3 30 4 31 2 32 1 33 24 34 25 35
REMARK SMILES IDX 26 36 27 38 28 39 29 40 30 41 31 42 32 43 33 44 34 45 40 50
REMARK SMILES IDX 41 51 42 52 43 53 44 54
REMARK H PARENT 6 16 16 27 10 29 26 37 33 46 33 47 34 48 34 49 44 55
ROOT
ATOM      1  N   UNL     1     -11.156  -6.510   3.127  1.00  0.00    -0.326 N 
ATOM      2  C   UNL     1      -9.283  -5.851   1.862  1.00  0.00     0.014 C 
ATOM      3  C   UNL     1      -9.947  -7.067   2.513  1.00  0.00     0.091 C 
ATOM      4  C   UNL     1      -9.620  -4.727   2.831  1.00  0.00     0.041 C 
ATOM      5  C   UNL     1     -11.107  -5.028   3.090  1.00  0.00     0.175 C 
ATOM      6  C   UNL     1     -10.108  -8.155   1.453  1.00  0.00     0.059 C 
ATOM      7  C   UNL     1      -7.831  -6.137   1.532  1.00  0.00     0.008 C 
ATOM      8  C   UNL     1      -8.996  -8.147   0.381  1.00  0.00     0.143 C 
ATOM      9  C   UNL     1      -7.681  -7.544   0.915  1.00  0.00     0.034 C 
ENDROOT
BRANCH   1  10
ATOM     10  C   UNL     1     -12.142  -7.135   3.871  1.00  0.00     0.246 C 
ATOM     11  O   UNL     1     -12.927  -7.904   3.306  1.00  0.00    -0.272 OA
BRANCH  10  12
ATOM     12  C   UNL     1     -12.215  -6.890   5.407  1.00  0.00     0.174 C 
BRANCH  12  13
ATOM     13  N   UNL     1     -13.141  -5.795   5.694  1.00  0.00    -0.342 N 
ATOM     14  C   UNL     1     -14.480  -5.946   5.976  1.00  0.00     0.249 C 
ATOM     15  O   UNL     1     -15.044  -7.031   6.045  1.00  0.00    -0.272 OA
ATOM     16  H   UNL     1     -12.855  -4.835   5.520  1.00  0.00     0.164 HD
BRANCH  14  17
ATOM     17  C   UNL     1     -15.194  -4.599   6.217  1.00  0.00     0.207 C 
BRANCH  17  18
ATOM     18  C   UNL     1     -14.703  -3.959   7.519  1.00  0.00     0.077 C 
BRANCH  18  19
ATOM     19  C   UNL     1     -14.734  -4.936   8.673  1.00  0.00    -0.043 A 
ATOM     20  C   UNL     1     -15.969  -6.125  10.389  1.00  0.00     0.083 A 
ATOM     21  C   UNL     1     -15.950  -5.261   9.293  1.00  0.00     0.028 A 
ATOM     22  C   UNL     1     -14.777  -6.667  10.871  1.00  0.00     0.134 A 
ATOM     23  C   UNL     1     -13.565  -6.353  10.266  1.00  0.00     0.048 A 
ATOM     24  C   UNL     1     -13.543  -5.488   9.171  1.00  0.00     0.008 A 
ATOM     25  Cl  UNL     1     -17.473  -6.512  11.138  1.00  0.00    -0.080 Cl
BRANCH  22  26
ATOM     26  O   UNL     1     -14.744  -7.510  11.949  1.00  0.00    -0.506 OA
ATOM     27  H   UNL     1     -15.267  -8.296  11.706  1.00  0.00     0.293 HD
ENDBRANCH  22  26
ENDBRANCH  18  19
ENDBRANCH  17  18
BRANCH  17  28
ATOM     28  O   UNL     1     -16.618  -4.772   6.279  1.00  0.00    -0.383 OA
ATOM     29  H   UNL     1     -16.951  -4.616   5.366  1.00  0.00     0.211 HD
ENDBRANCH  17  28
ENDBRANCH  14  17
ENDBRANCH  12  13
BRANCH  12  30
ATOM     30  C   UNL     1     -10.817  -6.666   6.045  1.00  0.00     0.018 C 
ATOM     31  C   UNL     1     -10.474  -7.804   7.020  1.00  0.00     0.010 C 
BRANCH  30  32
ATOM     32  C   UNL     1     -10.668  -5.297   6.751  1.00  0.00     0.002 C 
ATOM     33  C   UNL     1      -9.235  -4.832   6.976  1.00  0.00     0.004 C 
ENDBRANCH  30  32
ENDBRANCH  12  30
ENDBRANCH  10  12
ENDBRANCH   1  10
BRANCH   5  34
ATOM     34  C   UNL     1     -12.009  -4.476   1.954  1.00  0.00     0.242 C 
ATOM     35  O   UNL     1     -13.054  -3.866   2.181  1.00  0.00    -0.273 OA
ATOM     36  N   UNL     1     -11.584  -4.764   0.676  1.00  0.00    -0.354 N 
ATOM     37  H   UNL     1     -10.775  -5.375   0.554  1.00  0.00     0.163 HD
BRANCH  36  38
ATOM     38  C   UNL     1     -12.178  -4.150  -0.493  1.00  0.00     0.116 C 
BRANCH  38  39
ATOM     39  C   UNL     1     -11.735  -4.895  -1.751  1.00  0.00     0.023 C 
BRANCH  39  40
ATOM     40  C   UNL     1     -10.689  -4.122  -2.547  1.00  0.00     0.026 C 
BRANCH  40  41
ATOM     41  C   UNL     1     -11.266  -3.648  -3.881  1.00  0.00     0.146 C 
BRANCH  41  42
ATOM     42  N   UNL     1     -10.610  -4.347  -4.978  1.00  0.00    -0.254 NA
ATOM     43  C   UNL     1     -11.103  -5.446  -5.413  1.00  0.00     0.185 C 
ATOM     44  N   UNL     1     -12.195  -6.122  -5.014  1.00  0.00    -0.370 N 
ATOM     45  N   UNL     1     -10.480  -6.078  -6.422  1.00  0.00    -0.370 N 
ATOM     46  H   UNL     1     -12.326  -7.085  -5.274  1.00  0.00     0.159 HD
ATOM     47  H   UNL     1     -12.792  -5.778  -4.268  1.00  0.00     0.159 HD
ATOM     48  H   UNL     1      -9.651  -5.630  -6.788  1.00  0.00     0.159 HD
ATOM     49  H   UNL     1     -10.921  -6.798  -6.966  1.00  0.00     0.159 HD
ENDBRANCH  41  42
ENDBRANCH  40  41
ENDBRANCH  39  40
ENDBRANCH  38  39
ENDBRANCH  36  38
ENDBRANCH   5  34
BRANCH   8  50
ATOM     50  O   UNL     1      -9.415  -7.388  -0.754  1.00  0.00    -0.245 OA
BRANCH  50  51
ATOM     51  S   UNL     1      -8.874  -7.792  -2.234  1.00  0.00     0.397 S 
ATOM     52  O   UNL     1      -9.972  -7.656  -3.163  1.00  0.00    -0.169 OA
ATOM     53  O   UNL     1      -8.095  -9.010  -2.151  1.00  0.00    -0.169 OA
BRANCH  51  54
ATOM     54  O   UNL     1      -7.867  -6.582  -2.564  1.00  0.00    -0.264 OA
ATOM     55  H   UNL     1      -8.255  -6.063  -3.298  1.00  0.00     0.236 HD
ENDBRANCH  51  54
ENDBRANCH  50  51
ENDBRANCH   8  50
TORSDOF 19
ENDMDL
MODEL 47
REMARK VINA RESULT:    -6.119      7.057     10.314
REMARK INTER + INTRA:         -15.988
REMARK INTER:                 -12.194
REMARK INTRA:                  -3.794
REMARK UNBOUND:                -3.609
REMARK SMILES CC[C@@H](C)[C@@H](NC(=O)[C@@H](O)Cc1ccc(O)c(Cl)c1)C(=O)N1[C@H](C(=O)NCCCCN=C(N)N)C[C@H]2CC[C@H](OS(=O)(=O)O)C[C@@H]21
REMARK SMILES IDX 22 1 36 2 46 3 35 4 23 5 45 6 37 7 39 8 38 9 20 10 21 11
REMARK SMILES IDX 5 12 6 13 7 14 8 15 9 17 11 18 12 19 17 20 19 21 15 22 14 23
REMARK SMILES IDX 13 24 18 25 16 26 10 28 3 30 4 31 2 32 1 33 24 34 25 35
REMARK SMILES IDX 26 36 27 38 28 39 29 40 30 41 31 42 32 43 33 44 34 45 40 50
REMARK SMILES IDX 41 51 42 52 43 53 44 54
REMARK H PARENT 6 16 16 27 10 29 26 37 33 46 33 47 34 48 34 49 44 55
ROOT
ATOM      1  N   UNL     1     -10.927   3.060  -4.482  1.00  0.00    -0.326 N 
ATOM      2  C   UNL     1      -8.851   3.709  -5.382  1.00  0.00     0.014 C 
ATOM      3  C   UNL     1      -9.979   4.177  -4.458  1.00  0.00     0.091 C 
ATOM      4  C   UNL     1      -9.595   2.906  -6.438  1.00  0.00     0.041 C 
ATOM      5  C   UNL     1     -10.548   2.094  -5.542  1.00  0.00     0.175 C 
ATOM      6  C   UNL     1      -9.368   4.582  -3.118  1.00  0.00     0.059 C 
ATOM      7  C   UNL     1      -7.981   4.874  -5.810  1.00  0.00     0.008 C 
ATOM      8  C   UNL     1      -7.941   5.160  -3.234  1.00  0.00     0.143 C 
ATOM      9  C   UNL     1      -7.687   5.802  -4.612  1.00  0.00     0.034 C 
ENDROOT
BRANCH   1  10
ATOM     10  C   UNL     1     -12.150   2.920  -3.847  1.00  0.00     0.246 C 
ATOM     11  O   UNL     1     -13.184   2.947  -4.523  1.00  0.00    -0.272 OA
BRANCH  10  12
ATOM     12  C   UNL     1     -12.194   2.690  -2.309  1.00  0.00     0.174 C 
BRANCH  12  13
ATOM     13  N   UNL     1     -11.212   1.675  -1.928  1.00  0.00    -0.342 N 
ATOM     14  C   UNL     1     -10.388   1.746  -0.827  1.00  0.00     0.249 C 
ATOM     15  O   UNL     1     -10.407   2.666  -0.019  1.00  0.00    -0.272 OA
ATOM     16  H   UNL     1     -10.974   0.934  -2.583  1.00  0.00     0.164 HD
BRANCH  14  17
ATOM     17  C   UNL     1      -9.449   0.527  -0.707  1.00  0.00     0.207 C 
BRANCH  17  18
ATOM     18  C   UNL     1      -9.590  -0.124   0.673  1.00  0.00     0.077 C 
BRANCH  18  19
ATOM     19  C   UNL     1     -10.659  -1.193   0.684  1.00  0.00    -0.043 A 
ATOM     20  C   UNL     1     -11.484  -3.350  -0.058  1.00  0.00     0.083 A 
ATOM     21  C   UNL     1     -10.474  -2.387  -0.030  1.00  0.00     0.028 A 
ATOM     22  C   UNL     1     -12.681  -3.127   0.623  1.00  0.00     0.134 A 
ATOM     23  C   UNL     1     -12.877  -1.949   1.334  1.00  0.00     0.048 A 
ATOM     24  C   UNL     1     -11.870  -0.983   1.363  1.00  0.00     0.008 A 
ATOM     25  Cl  UNL     1     -11.238  -4.811  -0.942  1.00  0.00    -0.080 Cl
BRANCH  22  26
ATOM     26  O   UNL     1     -13.703  -4.038   0.615  1.00  0.00    -0.506 OA
ATOM     27  H   UNL     1     -13.670  -4.488  -0.249  1.00  0.00     0.293 HD
ENDBRANCH  22  26
ENDBRANCH  18  19
ENDBRANCH  17  18
BRANCH  17  28
ATOM     28  O   UNL     1      -8.080   0.906  -0.917  1.00  0.00    -0.383 OA
ATOM     29  H   UNL     1      -7.972   1.006  -1.890  1.00  0.00     0.211 HD
ENDBRANCH  17  28
ENDBRANCH  14  17
ENDBRANCH  12  13
BRANCH  12  30
ATOM     30  C   UNL     1     -13.620   2.358  -1.792  1.00  0.00     0.018 C 
ATOM     31  C   UNL     1     -14.163   3.499  -0.918  1.00  0.00     0.010 C 
BRANCH  30  32
ATOM     32  C   UNL     1     -13.707   1.014  -1.028  1.00  0.00     0.002 C 
ATOM     33  C   UNL     1     -14.235  -0.162  -1.839  1.00  0.00     0.004 C 
ENDBRANCH  30  32
ENDBRANCH  12  30
ENDBRANCH  10  12
ENDBRANCH   1  10
BRANCH   5  34
ATOM     34  C   UNL     1      -9.842   0.855  -4.931  1.00  0.00     0.242 C 
ATOM     35  O   UNL     1      -9.027   0.948  -4.014  1.00  0.00    -0.273 OA
ATOM     36  N   UNL     1     -10.153  -0.348  -5.525  1.00  0.00    -0.354 N 
ATOM     37  H   UNL     1     -10.742  -0.347  -6.359  1.00  0.00     0.163 HD
BRANCH  36  38
ATOM     38  C   UNL     1      -9.758  -1.618  -4.952  1.00  0.00     0.116 C 
BRANCH  38  39
ATOM     39  C   UNL     1      -9.381  -2.594  -6.064  1.00  0.00     0.023 C 
BRANCH  39  40
ATOM     40  C   UNL     1      -8.961  -3.957  -5.525  1.00  0.00     0.026 C 
BRANCH  40  41
ATOM     41  C   UNL     1      -9.712  -4.285  -4.235  1.00  0.00     0.146 C 
BRANCH  41  42
ATOM     42  N   UNL     1     -10.670  -5.355  -4.481  1.00  0.00    -0.254 NA
ATOM     43  C   UNL     1     -11.924  -5.097  -4.470  1.00  0.00     0.185 C 
ATOM     44  N   UNL     1     -12.566  -3.933  -4.259  1.00  0.00    -0.370 N 
ATOM     45  N   UNL     1     -12.791  -6.097  -4.695  1.00  0.00    -0.370 N 
ATOM     46  H   UNL     1     -13.547  -3.922  -4.037  1.00  0.00     0.159 HD
ATOM     47  H   UNL     1     -12.061  -3.069  -4.086  1.00  0.00     0.159 HD
ATOM     48  H   UNL     1     -12.389  -7.008  -4.872  1.00  0.00     0.159 HD
ATOM     49  H   UNL     1     -13.753  -5.940  -4.935  1.00  0.00     0.159 HD
ENDBRANCH  41  42
ENDBRANCH  40  41
ENDBRANCH  39  40
ENDBRANCH  38  39
ENDBRANCH  36  38
ENDBRANCH   5  34
BRANCH   8  50
ATOM     50  O   UNL     1      -6.976   4.127  -3.029  1.00  0.00    -0.245 OA
BRANCH  50  51
ATOM     51  S   UNL     1      -5.453   4.522  -2.616  1.00  0.00     0.397 S 
ATOM     52  O   UNL     1      -5.503   5.739  -1.837  1.00  0.00    -0.169 OA
ATOM     53  O   UNL     1      -4.588   4.395  -3.770  1.00  0.00    -0.169 OA
BRANCH  51  54
ATOM     54  O   UNL     1      -5.073   3.353  -1.580  1.00  0.00    -0.264 OA
ATOM     55  H   UNL     1      -4.929   3.766  -0.704  1.00  0.00     0.236 HD
ENDBRANCH  51  54
ENDBRANCH  50  51
ENDBRANCH   8  50
TORSDOF 19
ENDMDL
MODEL 48
REMARK VINA RESULT:    -6.098     10.301     13.115
REMARK INTER + INTRA:         -15.945
REMARK INTER:                 -11.850
REMARK INTRA:                  -4.095
REMARK UNBOUND:                -3.609
REMARK SMILES CC[C@@H](C)[C@@H](NC(=O)[C@@H](O)Cc1ccc(O)c(Cl)c1)C(=O)N1[C@H](C(=O)NCCCCN=C(N)N)C[C@H]2CC[C@H](OS(=O)(=O)O)C[C@@H]21
REMARK SMILES IDX 22 1 36 2 46 3 35 4 23 5 45 6 37 7 39 8 38 9 20 10 21 11
REMARK SMILES IDX 5 12 6 13 7 14 8 15 9 17 11 18 12 19 17 20 19 21 15 22 14 23
REMARK SMILES IDX 13 24 18 25 16 26 10 28 3 30 4 31 2 32 1 33 24 34 25 35
REMARK SMILES IDX 26 36 27 38 28 39 29 40 30 41 31 42 32 43 33 44 34 45 40 50
REMARK SMILES IDX 41 51 42 52 43 53 44 54
REMARK H PARENT 6 16 16 27 10 29 26 37 33 46 33 47 34 48 34 49 44 55
ROOT
ATOM      1  N   UNL     1     -12.930  -0.296  -2.429  1.00  0.00    -0.326 N 
ATOM      2  C   UNL     1     -10.893  -1.062  -1.531  1.00  0.00     0.014 C 
ATOM      3  C   UNL     1     -12.275  -0.531  -1.139  1.00  0.00     0.091 C 
ATOM      4  C   UNL     1     -10.587  -0.292  -2.806  1.00  0.00     0.041 C 
ATOM      5  C   UNL     1     -11.941  -0.414  -3.530  1.00  0.00     0.175 C 
ATOM      6  C   UNL     1     -12.917  -1.524  -0.172  1.00  0.00     0.059 C 
ATOM      7  C   UNL     1      -9.929  -0.980  -0.364  1.00  0.00     0.008 C 
ATOM      8  C   UNL     1     -11.901  -2.264   0.725  1.00  0.00     0.143 C 
ATOM      9  C   UNL     1     -10.613  -1.443   0.940  1.00  0.00     0.034 C 
ENDROOT
BRANCH   1  10
ATOM     10  C   UNL     1     -14.191   0.203  -2.706  1.00  0.00     0.246 C 
ATOM     11  O   UNL     1     -15.156  -0.569  -2.704  1.00  0.00    -0.272 OA
BRANCH  10  12
ATOM     12  C   UNL     1     -14.374   1.725  -2.971  1.00  0.00     0.174 C 
BRANCH  12  13
ATOM     13  N   UNL     1     -13.938   2.490  -1.803  1.00  0.00    -0.342 N 
ATOM     14  C   UNL     1     -12.740   3.159  -1.698  1.00  0.00     0.249 C 
ATOM     15  O   UNL     1     -11.907   3.211  -2.595  1.00  0.00    -0.272 OA
ATOM     16  H   UNL     1     -14.451   2.409  -0.928  1.00  0.00     0.164 HD
BRANCH  14  17
ATOM     17  C   UNL     1     -12.565   3.858  -0.333  1.00  0.00     0.207 C 
BRANCH  17  18
ATOM     18  C   UNL     1     -13.471   5.090  -0.242  1.00  0.00     0.077 C 
BRANCH  18  19
ATOM     19  C   UNL     1     -14.351   5.050   0.988  1.00  0.00    -0.043 A 
ATOM     20  C   UNL     1     -14.814   5.744   3.265  1.00  0.00     0.083 A 
ATOM     21  C   UNL     1     -14.027   5.821   2.115  1.00  0.00     0.028 A 
ATOM     22  C   UNL     1     -15.924   4.899   3.297  1.00  0.00     0.134 A 
ATOM     23  C   UNL     1     -16.256   4.131   2.188  1.00  0.00     0.048 A 
ATOM     24  C   UNL     1     -15.470   4.204   1.036  1.00  0.00     0.008 A 
ATOM     25  Cl  UNL     1     -14.400   6.698   4.641  1.00  0.00    -0.080 Cl
BRANCH  22  26
ATOM     26  O   UNL     1     -16.718   4.782   4.406  1.00  0.00    -0.506 OA
ATOM     27  H   UNL     1     -16.247   4.198   5.028  1.00  0.00     0.293 HD
ENDBRANCH  22  26
ENDBRANCH  18  19
ENDBRANCH  17  18
BRANCH  17  28
ATOM     28  O   UNL     1     -11.200   4.255  -0.126  1.00  0.00    -0.383 OA
ATOM     29  H   UNL     1     -10.659   3.442  -0.249  1.00  0.00     0.211 HD
ENDBRANCH  17  28
ENDBRANCH  14  17
ENDBRANCH  12  13
BRANCH  12  30
ATOM     30  C   UNL     1     -15.817   2.089  -3.413  1.00  0.00     0.018 C 
ATOM     31  C   UNL     1     -15.819   2.702  -4.822  1.00  0.00     0.010 C 
BRANCH  30  32
ATOM     32  C   UNL     1     -16.552   3.026  -2.424  1.00  0.00     0.002 C 
ATOM     33  C   UNL     1     -17.578   2.348  -1.525  1.00  0.00     0.004 C 
ENDBRANCH  30  32
ENDBRANCH  12  30
ENDBRANCH  10  12
ENDBRANCH   1  10
BRANCH   5  34
ATOM     34  C   UNL     1     -12.083  -1.781  -4.251  1.00  0.00     0.242 C 
ATOM     35  O   UNL     1     -12.910  -2.625  -3.906  1.00  0.00    -0.273 OA
ATOM     36  N   UNL     1     -11.182  -2.003  -5.268  1.00  0.00    -0.354 N 
ATOM     37  H   UNL     1     -10.443  -1.317  -5.428  1.00  0.00     0.163 HD
BRANCH  36  38
ATOM     38  C   UNL     1     -11.305  -3.120  -6.181  1.00  0.00     0.116 C 
BRANCH  38  39
ATOM     39  C   UNL     1     -10.127  -4.073  -5.997  1.00  0.00     0.023 C 
BRANCH  39  40
ATOM     40  C   UNL     1     -10.411  -5.465  -6.552  1.00  0.00     0.026 C 
BRANCH  40  41
ATOM     41  C   UNL     1     -10.691  -6.453  -5.421  1.00  0.00     0.146 C 
BRANCH  41  42
ATOM     42  N   UNL     1     -12.097  -6.385  -5.044  1.00  0.00    -0.254 NA
ATOM     43  C   UNL     1     -12.430  -5.831  -3.939  1.00  0.00     0.185 C 
ATOM     44  N   UNL     1     -11.664  -5.258  -2.993  1.00  0.00    -0.370 N 
ATOM     45  N   UNL     1     -13.731  -5.782  -3.608  1.00  0.00    -0.370 N 
ATOM     46  H   UNL     1     -12.030  -5.085  -2.072  1.00  0.00     0.159 HD
ATOM     47  H   UNL     1     -10.655  -5.196  -3.089  1.00  0.00     0.159 HD
ATOM     48  H   UNL     1     -14.378  -6.185  -4.272  1.00  0.00     0.159 HD
ATOM     49  H   UNL     1     -14.088  -5.170  -2.896  1.00  0.00     0.159 HD
ENDBRANCH  41  42
ENDBRANCH  40  41
ENDBRANCH  39  40
ENDBRANCH  38  39
ENDBRANCH  36  38
ENDBRANCH   5  34
BRANCH   8  50
ATOM     50  O   UNL     1     -11.548  -3.516   0.136  1.00  0.00    -0.245 OA
BRANCH  50  51
ATOM     51  S   UNL     1     -12.361  -4.859   0.559  1.00  0.00     0.397 S 
ATOM     52  O   UNL     1     -13.293  -5.169  -0.501  1.00  0.00    -0.169 OA
ATOM     53  O   UNL     1     -12.787  -4.755   1.939  1.00  0.00    -0.169 OA
BRANCH  51  54
ATOM     54  O   UNL     1     -11.215  -5.984   0.478  1.00  0.00    -0.264 OA
ATOM     55  H   UNL     1     -11.095  -6.353   1.377  1.00  0.00     0.236 HD
ENDBRANCH  51  54
ENDBRANCH  50  51
ENDBRANCH   8  50
TORSDOF 19
ENDMDL
MODEL 49
REMARK VINA RESULT:    -6.054      5.381      8.258
REMARK INTER + INTRA:         -15.856
REMARK INTER:                 -12.785
REMARK INTRA:                  -3.071
REMARK UNBOUND:                -3.609
REMARK SMILES CC[C@@H](C)[C@@H](NC(=O)[C@@H](O)Cc1ccc(O)c(Cl)c1)C(=O)N1[C@H](C(=O)NCCCCN=C(N)N)C[C@H]2CC[C@H](OS(=O)(=O)O)C[C@@H]21
REMARK SMILES IDX 22 1 36 2 46 3 35 4 23 5 45 6 37 7 39 8 38 9 20 10 21 11
REMARK SMILES IDX 5 12 6 13 7 14 8 15 9 17 11 18 12 19 17 20 19 21 15 22 14 23
REMARK SMILES IDX 13 24 18 25 16 26 10 28 3 30 4 31 2 32 1 33 24 34 25 35
REMARK SMILES IDX 26 36 27 38 28 39 29 40 30 41 31 42 32 43 33 44 34 45 40 50
REMARK SMILES IDX 41 51 42 52 43 53 44 54
REMARK H PARENT 6 16 16 27 10 29 26 37 33 46 33 47 34 48 34 49 44 55
ROOT
ATOM      1  N   UNL     1      -9.939  -0.894  -5.998  1.00  0.00    -0.326 N 
ATOM      2  C   UNL     1     -10.860  -2.961  -6.647  1.00  0.00     0.014 C 
ATOM      3  C   UNL     1      -9.649  -2.330  -5.954  1.00  0.00     0.091 C 
ATOM      4  C   UNL     1     -11.210  -1.932  -7.711  1.00  0.00     0.041 C 
ATOM      5  C   UNL     1     -11.101  -0.637  -6.884  1.00  0.00     0.175 C 
ATOM      6  C   UNL     1      -9.476  -2.992  -4.588  1.00  0.00     0.059 C 
ATOM      7  C   UNL     1     -10.564  -4.388  -7.063  1.00  0.00     0.008 C 
ATOM      8  C   UNL     1      -9.919  -4.471  -4.553  1.00  0.00     0.143 C 
ATOM      9  C   UNL     1      -9.817  -5.138  -5.940  1.00  0.00     0.034 C 
ENDROOT
BRANCH   1  10
ATOM     10  C   UNL     1      -9.191   0.177  -5.539  1.00  0.00     0.246 C 
ATOM     11  O   UNL     1      -8.883   0.227  -4.343  1.00  0.00    -0.272 OA
BRANCH  10  12
ATOM     12  C   UNL     1      -8.720   1.270  -6.542  1.00  0.00     0.174 C 
BRANCH  12  13
ATOM     13  N   UNL     1      -7.385   1.741  -6.175  1.00  0.00    -0.342 N 
ATOM     14  C   UNL     1      -6.219   1.031  -6.356  1.00  0.00     0.249 C 
ATOM     15  O   UNL     1      -6.169  -0.076  -6.876  1.00  0.00    -0.272 OA
ATOM     16  H   UNL     1      -7.285   2.570  -5.594  1.00  0.00     0.164 HD
BRANCH  14  17
ATOM     17  C   UNL     1      -4.975   1.792  -5.851  1.00  0.00     0.207 C 
BRANCH  17  18
ATOM     18  C   UNL     1      -4.729   3.042  -6.701  1.00  0.00     0.077 C 
BRANCH  18  19
ATOM     19  C   UNL     1      -3.316   3.558  -6.546  1.00  0.00    -0.043 A 
ATOM     20  C   UNL     1      -1.663   4.817  -5.294  1.00  0.00     0.083 A 
ATOM     21  C   UNL     1      -2.954   4.300  -5.411  1.00  0.00     0.028 A 
ATOM     22  C   UNL     1      -0.729   4.598  -6.307  1.00  0.00     0.134 A 
ATOM     23  C   UNL     1      -1.074   3.865  -7.436  1.00  0.00     0.048 A 
ATOM     24  C   UNL     1      -2.366   3.347  -7.557  1.00  0.00     0.008 A 
ATOM     25  Cl  UNL     1      -1.237   5.727  -3.893  1.00  0.00    -0.080 Cl
BRANCH  22  26
ATOM     26  O   UNL     1       0.545   5.094  -6.242  1.00  0.00    -0.506 OA
ATOM     27  H   UNL     1       1.042   4.510  -5.639  1.00  0.00     0.293 HD
ENDBRANCH  22  26
ENDBRANCH  18  19
ENDBRANCH  17  18
BRANCH  17  28
ATOM     28  O   UNL     1      -3.808   0.954  -5.885  1.00  0.00    -0.383 OA
ATOM     29  H   UNL     1      -3.110   1.479  -6.339  1.00  0.00     0.211 HD
ENDBRANCH  17  28
ENDBRANCH  14  17
ENDBRANCH  12  13
BRANCH  12  30
ATOM     30  C   UNL     1      -9.740   2.432  -6.686  1.00  0.00     0.018 C 
ATOM     31  C   UNL     1     -10.076   2.684  -8.164  1.00  0.00     0.010 C 
BRANCH  30  32
ATOM     32  C   UNL     1      -9.281   3.748  -6.012  1.00  0.00     0.002 C 
ATOM     33  C   UNL     1      -9.036   4.914  -6.961  1.00  0.00     0.004 C 
ENDBRANCH  30  32
ENDBRANCH  12  30
ENDBRANCH  10  12
ENDBRANCH   1  10
BRANCH   5  34
ATOM     34  C   UNL     1     -12.384  -0.382  -6.049  1.00  0.00     0.242 C 
ATOM     35  O   UNL     1     -12.925  -1.268  -5.387  1.00  0.00    -0.273 OA
ATOM     36  N   UNL     1     -12.903   0.890  -6.146  1.00  0.00    -0.354 N 
ATOM     37  H   UNL     1     -12.479   1.544  -6.805  1.00  0.00     0.163 HD
BRANCH  36  38
ATOM     38  C   UNL     1     -13.960   1.362  -5.276  1.00  0.00     0.116 C 
BRANCH  38  39
ATOM     39  C   UNL     1     -13.478   2.577  -4.487  1.00  0.00     0.023 C 
BRANCH  39  40
ATOM     40  C   UNL     1     -12.144   2.328  -3.791  1.00  0.00     0.026 C 
BRANCH  40  41
ATOM     41  C   UNL     1     -12.359   1.690  -2.419  1.00  0.00     0.146 C 
BRANCH  41  42
ATOM     42  N   UNL     1     -11.850   0.325  -2.424  1.00  0.00    -0.254 NA
ATOM     43  C   UNL     1     -12.671  -0.656  -2.384  1.00  0.00     0.185 C 
ATOM     44  N   UNL     1     -14.016  -0.659  -2.334  1.00  0.00    -0.370 N 
ATOM     45  N   UNL     1     -12.182  -1.907  -2.386  1.00  0.00    -0.370 N 
ATOM     46  H   UNL     1     -14.517  -1.486  -2.061  1.00  0.00     0.159 HD
ATOM     47  H   UNL     1     -14.551   0.204  -2.340  1.00  0.00     0.159 HD
ATOM     48  H   UNL     1     -11.176  -1.995  -2.430  1.00  0.00     0.159 HD
ATOM     49  H   UNL     1     -12.746  -2.712  -2.593  1.00  0.00     0.159 HD
ENDBRANCH  41  42
ENDBRANCH  40  41
ENDBRANCH  39  40
ENDBRANCH  38  39
ENDBRANCH  36  38
ENDBRANCH   5  34
BRANCH   8  50
ATOM     50  O   UNL     1     -11.270  -4.567  -4.102  1.00  0.00    -0.245 OA
BRANCH  50  51
ATOM     51  S   UNL     1     -11.601  -5.365  -2.724  1.00  0.00     0.397 S 
ATOM     52  O   UNL     1     -12.988  -5.773  -2.766  1.00  0.00    -0.169 OA
ATOM     53  O   UNL     1     -11.059  -4.634  -1.597  1.00  0.00    -0.169 OA
BRANCH  51  54
ATOM     54  O   UNL     1     -10.742  -6.712  -2.901  1.00  0.00    -0.264 OA
ATOM     55  H   UNL     1     -11.340  -7.470  -2.738  1.00  0.00     0.236 HD
ENDBRANCH  51  54
ENDBRANCH  50  51
ENDBRANCH   8  50
TORSDOF 19
ENDMDL
MODEL 50
REMARK VINA RESULT:    -6.047      5.173      8.079
REMARK INTER + INTRA:         -15.841
REMARK INTER:                 -12.590
REMARK INTRA:                  -3.251
REMARK UNBOUND:                -3.609
REMARK SMILES CC[C@@H](C)[C@@H](NC(=O)[C@@H](O)Cc1ccc(O)c(Cl)c1)C(=O)N1[C@H](C(=O)NCCCCN=C(N)N)C[C@H]2CC[C@H](OS(=O)(=O)O)C[C@@H]21
REMARK SMILES IDX 22 1 36 2 46 3 35 4 23 5 45 6 37 7 39 8 38 9 20 10 21 11
REMARK SMILES IDX 5 12 6 13 7 14 8 15 9 17 11 18 12 19 17 20 19 21 15 22 14 23
REMARK SMILES IDX 13 24 18 25 16 26 10 28 3 30 4 31 2 32 1 33 24 34 25 35
REMARK SMILES IDX 26 36 27 38 28 39 29 40 30 41 31 42 32 43 33 44 34 45 40 50
REMARK SMILES IDX 41 51 42 52 43 53 44 54
REMARK H PARENT 6 16 16 27 10 29 26 37 33 46 33 47 34 48 34 49 44 55
ROOT
ATOM      1  N   UNL     1      -9.131  -1.274  -6.363  1.00  0.00    -0.326 N 
ATOM      2  C   UNL     1     -10.529  -3.001  -7.140  1.00  0.00     0.014 C 
ATOM      3  C   UNL     1      -9.203  -2.737  -6.421  1.00  0.00     0.091 C 
ATOM      4  C   UNL     1     -10.611  -1.846  -8.126  1.00  0.00     0.041 C 
ATOM      5  C   UNL     1     -10.191  -0.679  -7.214  1.00  0.00     0.175 C 
ATOM      6  C   UNL     1      -9.204  -3.514  -5.106  1.00  0.00     0.059 C 
ATOM      7  C   UNL     1     -10.591  -4.425  -7.657  1.00  0.00     0.008 C 
ATOM      8  C   UNL     1      -9.997  -4.838  -5.167  1.00  0.00     0.143 C 
ATOM      9  C   UNL     1     -10.056  -5.412  -6.597  1.00  0.00     0.034 C 
ENDROOT
BRANCH   1  10
ATOM     10  C   UNL     1      -8.145  -0.454  -5.841  1.00  0.00     0.246 C 
ATOM     11  O   UNL     1      -7.671  -0.716  -4.730  1.00  0.00    -0.272 OA
BRANCH  10  12
ATOM     12  C   UNL     1      -7.627   0.751  -6.678  1.00  0.00     0.174 C 
BRANCH  12  13
ATOM     13  N   UNL     1      -6.254   0.502  -7.114  1.00  0.00    -0.342 N 
ATOM     14  C   UNL     1      -5.895  -0.300  -8.174  1.00  0.00     0.249 C 
ATOM     15  O   UNL     1      -6.699  -0.878  -8.895  1.00  0.00    -0.272 OA
ATOM     16  H   UNL     1      -5.478   0.785  -6.521  1.00  0.00     0.164 HD
BRANCH  14  17
ATOM     17  C   UNL     1      -4.366  -0.377  -8.372  1.00  0.00     0.207 C 
BRANCH  17  18
ATOM     18  C   UNL     1      -3.852   0.884  -9.074  1.00  0.00     0.077 C 
BRANCH  18  19
ATOM     19  C   UNL     1      -2.728   1.538  -8.302  1.00  0.00    -0.043 A 
ATOM     20  C   UNL     1      -1.972   3.110  -6.616  1.00  0.00     0.083 A 
ATOM     21  C   UNL     1      -3.012   2.471  -7.292  1.00  0.00     0.028 A 
ATOM     22  C   UNL     1      -0.646   2.824  -6.945  1.00  0.00     0.134 A 
ATOM     23  C   UNL     1      -0.351   1.903  -7.943  1.00  0.00     0.048 A 
ATOM     24  C   UNL     1      -1.390   1.263  -8.623  1.00  0.00     0.008 A 
ATOM     25  Cl  UNL     1      -2.340   4.252  -5.378  1.00  0.00    -0.080 Cl
BRANCH  22  26
ATOM     26  O   UNL     1       0.407   3.433  -6.317  1.00  0.00    -0.506 OA
ATOM     27  H   UNL     1       0.842   2.750  -5.774  1.00  0.00     0.293 HD
ENDBRANCH  22  26
ENDBRANCH  18  19
ENDBRANCH  17  18
BRANCH  17  28
ATOM     28  O   UNL     1      -4.001  -1.534  -9.142  1.00  0.00    -0.383 OA
ATOM     29  H   UNL     1      -4.724  -1.663  -9.798  1.00  0.00     0.211 HD
ENDBRANCH  17  28
ENDBRANCH  14  17
ENDBRANCH  12  13
BRANCH  12  30
ATOM     30  C   UNL     1      -7.775   2.106  -5.935  1.00  0.00     0.018 C 
ATOM     31  C   UNL     1      -6.437   2.541  -5.318  1.00  0.00     0.010 C 
BRANCH  30  32
ATOM     32  C   UNL     1      -8.883   2.104  -4.853  1.00  0.00     0.002 C 
ATOM     33  C   UNL     1     -10.039   3.064  -5.103  1.00  0.00     0.004 C 
ENDBRANCH  30  32
ENDBRANCH  12  30
ENDBRANCH  10  12
ENDBRANCH   1  10
BRANCH   5  34
ATOM     34  C   UNL     1     -11.375  -0.176  -6.347  1.00  0.00     0.242 C 
ATOM     35  O   UNL     1     -12.328   0.439  -6.827  1.00  0.00    -0.273 OA
ATOM     36  N   UNL     1     -11.258  -0.418  -4.997  1.00  0.00    -0.354 N 
ATOM     37  H   UNL     1     -10.390  -0.824  -4.644  1.00  0.00     0.163 HD
BRANCH  36  38
ATOM     38  C   UNL     1     -12.356  -0.213  -4.076  1.00  0.00     0.116 C 
BRANCH  38  39
ATOM     39  C   UNL     1     -11.814   0.058  -2.674  1.00  0.00     0.023 C 
BRANCH  39  40
ATOM     40  C   UNL     1     -10.382  -0.437  -2.498  1.00  0.00     0.026 C 
BRANCH  40  41
ATOM     41  C   UNL     1     -10.088  -0.732  -1.027  1.00  0.00     0.146 C 
BRANCH  41  42
ATOM     42  N   UNL     1     -11.198  -1.474  -0.442  1.00  0.00    -0.254 NA
ATOM     43  C   UNL     1     -11.171  -2.754  -0.438  1.00  0.00     0.185 C 
ATOM     44  N   UNL     1     -10.237  -3.602  -0.906  1.00  0.00    -0.370 N 
ATOM     45  N   UNL     1     -12.205  -3.420   0.102  1.00  0.00    -0.370 N 
ATOM     46  H   UNL     1     -10.455  -4.572  -1.057  1.00  0.00     0.159 HD
ATOM     47  H   UNL     1      -9.380  -3.267  -1.336  1.00  0.00     0.159 HD
ATOM     48  H   UNL     1     -12.950  -2.854   0.487  1.00  0.00     0.159 HD
ATOM     49  H   UNL     1     -12.155  -4.390   0.356  1.00  0.00     0.159 HD
ENDBRANCH  41  42
ENDBRANCH  40  41
ENDBRANCH  39  40
ENDBRANCH  38  39
ENDBRANCH  36  38
ENDBRANCH   5  34
BRANCH   8  50
ATOM     50  O   UNL     1     -11.333  -4.631  -4.706  1.00  0.00    -0.245 OA
BRANCH  50  51
ATOM     51  S   UNL     1     -11.958  -5.628  -3.584  1.00  0.00     0.397 S 
ATOM     52  O   UNL     1     -12.551  -4.815  -2.545  1.00  0.00    -0.169 OA
ATOM     53  O   UNL     1     -11.006  -6.675  -3.279  1.00  0.00    -0.169 OA
BRANCH  51  54
ATOM     54  O   UNL     1     -13.190  -6.293  -4.375  1.00  0.00    -0.264 OA
ATOM     55  H   UNL     1     -12.830  -7.004  -4.945  1.00  0.00     0.236 HD
ENDBRANCH  51  54
ENDBRANCH  50  51
ENDBRANCH   8  50
TORSDOF 19
ENDMDL
