MODEL 1
REMARK VINA RESULT:    -6.360      0.000      0.000
REMARK INTER + INTRA:         -13.521
REMARK INTER:                 -11.379
REMARK INTRA:                  -2.142
REMARK UNBOUND:                -2.142
REMARK SMILES CC[C@H](C)[C@H]1NC(=O)c2coc(n2)[C@H](C(C)C)NC(=O)[C@H]([C@@H](C)O)NC(=O)[C@H](C)NC(=O)c2csc1n2
REMARK SMILES IDX 11 1 13 2 12 3 9 4 10 5 7 6 6 7 8 8 5 10 36 11 35 12 34 13
REMARK SMILES IDX 37 14 33 15 31 16 32 17 30 18 28 20 29 21 3 23 4 24 2 25
REMARK SMILES IDX 1 26 14 27 18 28 19 29 20 30 21 32 25 33 26 34 27 35 22 38
REMARK SMILES IDX 23 39 24 40 15 42 16 43 17 44
REMARK H PARENT 6 9 30 19 18 31 25 36 24 41
REMARK Flexibility Score:   94.900
ROOT
ATOM      1  O   UNL     1       0.338  -1.927  -0.528  1.00  0.00    -0.446 OA
ATOM      2  N   UNL     1       1.509  -3.670  -1.347  1.00  0.00    -0.207 NA
ATOM      3  C   UNL     1       0.345  -3.248  -0.886  1.00  0.00     0.217 A 
ATOM      4  C   UNL     1       2.315  -2.545  -1.315  1.00  0.00     0.167 A 
ATOM      5  C   UNL     1       1.595  -1.486  -0.816  1.00  0.00     0.231 A 
ENDROOT
BRANCH   4   6
ATOM      6  C   UNL     1       3.707  -2.554  -1.727  1.00  0.00     0.273 C 
ATOM      7  N   UNL     1       3.867  -2.050  -2.993  1.00  0.00    -0.341 N 
ATOM      8  O   UNL     1       4.618  -2.985  -1.030  1.00  0.00    -0.267 OA
ATOM      9  H   UNL     1       3.010  -1.817  -3.486  1.00  0.00     0.164 HD
BRANCH   7  10
ATOM     10  C   UNL     1       5.102  -2.169  -3.743  1.00  0.00     0.145 C 
BRANCH  10  11
ATOM     11  C   UNL     1       5.117  -3.545  -4.392  1.00  0.00     0.116 A 
ATOM     12  S   UNL     1       6.621  -4.292  -4.779  1.00  0.00    -0.124 S 
ATOM     13  C   UNL     1       5.782  -5.662  -5.362  1.00  0.00     0.101 A 
ATOM     14  N   UNL     1       4.040  -4.255  -4.687  1.00  0.00    -0.234 NA
ATOM     15  C   UNL     1       4.418  -5.485  -5.231  1.00  0.00     0.139 A 
BRANCH  15  16
ATOM     16  C   UNL     1       3.427  -6.493  -5.617  1.00  0.00     0.271 C 
ATOM     17  O   UNL     1       3.678  -7.410  -6.391  1.00  0.00    -0.267 OA
ATOM     18  N   UNL     1       2.195  -6.308  -5.026  1.00  0.00    -0.339 N 
ATOM     19  H   UNL     1       2.082  -5.450  -4.493  1.00  0.00     0.164 HD
BRANCH  18  20
ATOM     20  C   UNL     1       1.068  -7.174  -5.344  1.00  0.00     0.168 CG0
ATOM     21  C   UNL     1       0.966  -8.340  -4.358  1.00  0.00     0.041 C 
ATOM     22  G   UNL     1      -0.276  -6.429  -5.332  1.00  0.00     0.000 G0
ENDBRANCH  18  20
ENDBRANCH  15  16
ENDBRANCH  10  11
BRANCH  10  23
ATOM     23  C   UNL     1       5.273  -1.024  -4.777  1.00  0.00     0.015 C 
ATOM     24  C   UNL     1       4.477   0.242  -4.420  1.00  0.00     0.010 C 
BRANCH  23  25
ATOM     25  C   UNL     1       6.751  -0.634  -4.999  1.00  0.00     0.002 C 
ATOM     26  C   UNL     1       7.101   0.766  -4.515  1.00  0.00     0.004 C 
ENDBRANCH  23  25
ENDBRANCH  10  23
ENDBRANCH   7  10
ENDBRANCH   4   6
BRANCH   3  27
ATOM     27  C   UNL     1      -0.899  -4.068  -0.680  1.00  0.00     0.171 C 
BRANCH  27  28
ATOM     28  N   UNL     1      -1.095  -4.890  -1.869  1.00  0.00    -0.342 N 
ATOM     29  C   UNL     1      -2.228  -4.820  -2.647  1.00  0.00     0.245 C 
ATOM     30  O   UNL     1      -3.154  -4.047  -2.406  1.00  0.00    -0.273 OA
ATOM     31  H   UNL     1      -0.323  -5.471  -2.196  1.00  0.00     0.164 HD
BRANCH  29  32
ATOM     32  C   UNL     1      -2.199  -5.671  -3.935  1.00  0.00     0.200 C 
BRANCH  32  33
ATOM     33  N   UNL     1      -0.852  -6.238  -4.081  1.00  0.00    -0.340 N 
ATOM     34  C   UNL     1      -0.285  -6.424  -5.325  1.00  0.00     0.243 CG0
ATOM     35  O   UNL     1      -0.901  -6.185  -6.362  1.00  0.00    -0.273 OA
ATOM     36  H   UNL     1      -0.332  -6.473  -3.244  1.00  0.00     0.164 HD
ATOM     37  G   UNL     1       1.069  -7.151  -5.338  1.00  0.00     0.000 G0
ENDBRANCH  32  33
BRANCH  32  38
ATOM     38  C   UNL     1      -3.308  -6.748  -3.926  1.00  0.00     0.143 C 
ATOM     39  C   UNL     1      -2.812  -8.151  -3.599  1.00  0.00     0.041 C 
BRANCH  38  40
ATOM     40  O   UNL     1      -4.339  -6.386  -2.987  1.00  0.00    -0.391 OA
ATOM     41  H   UNL     1      -5.003  -5.873  -3.485  1.00  0.00     0.211 HD
ENDBRANCH  38  40
ENDBRANCH  32  38
ENDBRANCH  29  32
ENDBRANCH  27  28
BRANCH  27  42
ATOM     42  C   UNL     1      -0.991  -4.910   0.616  1.00  0.00     0.015 C 
ATOM     43  C   UNL     1       0.068  -6.009   0.767  1.00  0.00     0.010 C 
ATOM     44  C   UNL     1      -1.025  -4.030   1.870  1.00  0.00     0.010 C 
ENDBRANCH  27  42
ENDBRANCH   3  27
TORSDOF 5
ENDMDL
MODEL 2
REMARK VINA RESULT:    -5.769      1.837      3.023
REMARK INTER + INTRA:         -12.464
REMARK INTER:                 -10.631
REMARK INTRA:                  -1.833
REMARK UNBOUND:                -2.142
REMARK SMILES CC[C@H](C)[C@H]1NC(=O)c2coc(n2)[C@H](C(C)C)NC(=O)[C@H]([C@@H](C)O)NC(=O)[C@H](C)NC(=O)c2csc1n2
REMARK SMILES IDX 11 1 13 2 12 3 9 4 10 5 7 6 6 7 8 8 5 10 36 11 35 12 34 13
REMARK SMILES IDX 37 14 33 15 31 16 32 17 30 18 28 20 29 21 3 23 4 24 2 25
REMARK SMILES IDX 1 26 14 27 18 28 19 29 20 30 21 32 25 33 26 34 27 35 22 38
REMARK SMILES IDX 23 39 24 40 15 42 16 43 17 44
REMARK H PARENT 6 9 30 19 18 31 25 36 24 41
REMARK Flexibility Score:   94.900
ROOT
ATOM      1  O   UNL     1      -2.223  -3.982  -0.715  1.00  0.00    -0.446 OA
ATOM      2  N   UNL     1      -0.170  -4.591  -1.419  1.00  0.00    -0.207 NA
ATOM      3  C   UNL     1      -1.465  -4.850  -1.455  1.00  0.00     0.217 A 
ATOM      4  C   UNL     1      -0.072  -3.462  -0.624  1.00  0.00     0.167 A 
ATOM      5  C   UNL     1      -1.326  -3.096  -0.200  1.00  0.00     0.231 A 
ENDROOT
BRANCH   4   6
ATOM      6  C   UNL     1       1.194  -2.828  -0.299  1.00  0.00     0.273 C 
ATOM      7  N   UNL     1       1.920  -2.531  -1.425  1.00  0.00    -0.341 N 
ATOM      8  O   UNL     1       1.569  -2.612   0.847  1.00  0.00    -0.267 OA
ATOM      9  H   UNL     1       1.522  -2.853  -2.303  1.00  0.00     0.164 HD
BRANCH   7  10
ATOM     10  C   UNL     1       3.311  -2.126  -1.387  1.00  0.00     0.145 C 
BRANCH  10  11
ATOM     11  C   UNL     1       4.101  -3.110  -2.238  1.00  0.00     0.116 A 
ATOM     12  S   UNL     1       5.784  -3.334  -1.945  1.00  0.00    -0.124 S 
ATOM     13  C   UNL     1       5.837  -4.508  -3.186  1.00  0.00     0.101 A 
ATOM     14  N   UNL     1       3.593  -3.849  -3.210  1.00  0.00    -0.234 NA
ATOM     15  C   UNL     1       4.586  -4.670  -3.750  1.00  0.00     0.139 A 
BRANCH  15  16
ATOM     16  C   UNL     1       4.296  -5.625  -4.823  1.00  0.00     0.271 C 
ATOM     17  O   UNL     1       5.148  -6.013  -5.615  1.00  0.00    -0.267 OA
ATOM     18  N   UNL     1       2.982  -6.040  -4.850  1.00  0.00    -0.339 N 
ATOM     19  H   UNL     1       2.351  -5.562  -4.212  1.00  0.00     0.164 HD
BRANCH  18  20
ATOM     20  C   UNL     1       2.495  -6.937  -5.890  1.00  0.00     0.168 CG0
ATOM     21  C   UNL     1       2.383  -8.374  -5.377  1.00  0.00     0.041 C 
ATOM     22  G   UNL     1       1.119  -6.524  -6.435  1.00  0.00     0.000 G0
ENDBRANCH  18  20
ENDBRANCH  15  16
ENDBRANCH  10  11
BRANCH  10  23
ATOM     23  C   UNL     1       3.506  -0.657  -1.846  1.00  0.00     0.015 C 
ATOM     24  C   UNL     1       4.455  -0.516  -3.049  1.00  0.00     0.010 C 
BRANCH  23  25
ATOM     25  C   UNL     1       2.172   0.047  -2.184  1.00  0.00     0.002 C 
ATOM     26  C   UNL     1       1.572   0.825  -1.021  1.00  0.00     0.004 C 
ENDBRANCH  23  25
ENDBRANCH  10  23
ENDBRANCH   7  10
ENDBRANCH   4   6
BRANCH   3  27
ATOM     27  C   UNL     1      -2.141  -5.994  -2.160  1.00  0.00     0.171 C 
BRANCH  27  28
ATOM     28  N   UNL     1      -1.487  -6.172  -3.452  1.00  0.00    -0.342 N 
ATOM     29  C   UNL     1      -2.184  -6.264  -4.636  1.00  0.00     0.245 C 
ATOM     30  O   UNL     1      -3.410  -6.187  -4.694  1.00  0.00    -0.273 OA
ATOM     31  H   UNL     1      -0.470  -6.129  -3.496  1.00  0.00     0.164 HD
BRANCH  29  32
ATOM     32  C   UNL     1      -1.315  -6.320  -5.910  1.00  0.00     0.200 C 
BRANCH  32  33
ATOM     33  N   UNL     1       0.073  -6.584  -5.510  1.00  0.00    -0.340 N 
ATOM     34  C   UNL     1       1.104  -6.530  -6.424  1.00  0.00     0.243 CG0
ATOM     35  O   UNL     1       0.902  -6.324  -7.619  1.00  0.00    -0.273 OA
ATOM     36  H   UNL     1       0.266  -6.788  -4.536  1.00  0.00     0.164 HD
ATOM     37  G   UNL     1       2.483  -6.962  -5.900  1.00  0.00     0.000 G0
ENDBRANCH  32  33
BRANCH  32  38
ATOM     38  C   UNL     1      -1.859  -7.357  -6.920  1.00  0.00     0.143 C 
ATOM     39  C   UNL     1      -1.875  -8.788  -6.395  1.00  0.00     0.041 C 
BRANCH  38  40
ATOM     40  O   UNL     1      -3.192  -6.994  -7.329  1.00  0.00    -0.391 OA
ATOM     41  H   UNL     1      -3.762  -7.094  -6.543  1.00  0.00     0.211 HD
ENDBRANCH  38  40
ENDBRANCH  32  38
ENDBRANCH  29  32
ENDBRANCH  27  28
BRANCH  27  42
ATOM     42  C   UNL     1      -2.262  -7.333  -1.393  1.00  0.00     0.015 C 
ATOM     43  C   UNL     1      -3.498  -8.176  -1.725  1.00  0.00     0.010 C 
ATOM     44  C   UNL     1      -0.992  -8.181  -1.518  1.00  0.00     0.010 C 
ENDBRANCH  27  42
ENDBRANCH   3  27
TORSDOF 5
ENDMDL
MODEL 3
REMARK VINA RESULT:    -5.757      2.552      6.942
REMARK INTER + INTRA:         -12.442
REMARK INTER:                  -9.902
REMARK INTRA:                  -2.540
REMARK UNBOUND:                -2.142
REMARK SMILES CC[C@H](C)[C@H]1NC(=O)c2coc(n2)[C@H](C(C)C)NC(=O)[C@H]([C@@H](C)O)NC(=O)[C@H](C)NC(=O)c2csc1n2
REMARK SMILES IDX 11 1 13 2 12 3 9 4 10 5 7 6 6 7 8 8 5 10 36 11 35 12 34 13
REMARK SMILES IDX 37 14 33 15 31 16 32 17 30 18 28 20 29 21 3 23 4 24 2 25
REMARK SMILES IDX 1 26 14 27 18 28 19 29 20 30 21 32 25 33 26 34 27 35 22 38
REMARK SMILES IDX 23 39 24 40 15 42 16 43 17 44
REMARK H PARENT 6 9 30 19 18 31 25 36 24 41
REMARK Flexibility Score:   94.900
ROOT
ATOM      1  O   UNL     1       2.819  -1.848  -1.933  1.00  0.00    -0.446 OA
ATOM      2  N   UNL     1       2.319  -3.908  -1.166  1.00  0.00    -0.207 NA
ATOM      3  C   UNL     1       3.216  -3.148  -1.769  1.00  0.00     0.217 A 
ATOM      4  C   UNL     1       1.272  -3.044  -0.892  1.00  0.00     0.167 A 
ATOM      5  C   UNL     1       1.584  -1.791  -1.362  1.00  0.00     0.231 A 
ENDROOT
BRANCH   4   6
ATOM      6  C   UNL     1       0.047  -3.466  -0.237  1.00  0.00     0.273 C 
ATOM      7  N   UNL     1       0.042  -4.814   0.018  1.00  0.00    -0.341 N 
ATOM      8  O   UNL     1      -0.876  -2.705   0.028  1.00  0.00    -0.267 OA
ATOM      9  H   UNL     1       0.838  -5.333  -0.342  1.00  0.00     0.164 HD
BRANCH   7  10
ATOM     10  C   UNL     1      -1.143  -5.537   0.434  1.00  0.00     0.145 C 
BRANCH  10  11
ATOM     11  C   UNL     1      -1.414  -6.614  -0.607  1.00  0.00     0.116 A 
ATOM     12  S   UNL     1      -2.595  -7.829  -0.293  1.00  0.00    -0.124 S 
ATOM     13  C   UNL     1      -2.301  -8.504  -1.835  1.00  0.00     0.101 A 
ATOM     14  N   UNL     1      -0.815  -6.699  -1.783  1.00  0.00    -0.234 NA
ATOM     15  C   UNL     1      -1.334  -7.778  -2.504  1.00  0.00     0.139 A 
BRANCH  15  16
ATOM     16  C   UNL     1      -0.878  -8.088  -3.861  1.00  0.00     0.271 C 
ATOM     17  O   UNL     1      -1.315  -9.032  -4.509  1.00  0.00    -0.267 OA
ATOM     18  N   UNL     1       0.082  -7.218  -4.331  1.00  0.00    -0.339 N 
ATOM     19  H   UNL     1       0.441  -6.546  -3.658  1.00  0.00     0.164 HD
BRANCH  18  20
ATOM     20  C   UNL     1       0.701  -7.411  -5.636  1.00  0.00     0.168 CG0
ATOM     21  C   UNL     1       0.276  -6.320  -6.621  1.00  0.00     0.041 C 
ATOM     22  G   UNL     1       2.237  -7.412  -5.571  1.00  0.00     0.000 G0
ENDBRANCH  18  20
ENDBRANCH  15  16
ENDBRANCH  10  11
BRANCH  10  23
ATOM     23  C   UNL     1      -1.002  -6.121   1.865  1.00  0.00     0.015 C 
ATOM     24  C   UNL     1       0.396  -6.695   2.153  1.00  0.00     0.010 C 
BRANCH  23  25
ATOM     25  C   UNL     1      -1.352  -5.095   2.966  1.00  0.00     0.002 C 
ATOM     26  C   UNL     1      -0.941  -5.527   4.367  1.00  0.00     0.004 C 
ENDBRANCH  23  25
ENDBRANCH  10  23
ENDBRANCH   7  10
ENDBRANCH   4   6
BRANCH   3  27
ATOM     27  C   UNL     1       4.551  -3.579  -2.313  1.00  0.00     0.171 C 
BRANCH  27  28
ATOM     28  N   UNL     1       4.318  -4.245  -3.590  1.00  0.00    -0.342 N 
ATOM     29  C   UNL     1       4.758  -5.521  -3.858  1.00  0.00     0.245 C 
ATOM     30  O   UNL     1       5.367  -6.202  -3.035  1.00  0.00    -0.273 OA
ATOM     31  H   UNL     1       3.723  -3.787  -4.280  1.00  0.00     0.164 HD
BRANCH  29  32
ATOM     32  C   UNL     1       4.306  -6.104  -5.214  1.00  0.00     0.200 C 
BRANCH  32  33
ATOM     33  N   UNL     1       2.846  -6.255  -5.187  1.00  0.00    -0.340 N 
ATOM     34  C   UNL     1       2.240  -7.430  -5.581  1.00  0.00     0.243 CG0
ATOM     35  O   UNL     1       2.886  -8.375  -6.030  1.00  0.00    -0.273 OA
ATOM     36  H   UNL     1       2.285  -5.482  -4.850  1.00  0.00     0.164 HD
ATOM     37  G   UNL     1       0.704  -7.403  -5.633  1.00  0.00     0.000 G0
ENDBRANCH  32  33
BRANCH  32  38
ATOM     38  C   UNL     1       4.800  -5.236  -6.395  1.00  0.00     0.143 C 
ATOM     39  C   UNL     1       5.222  -6.037  -7.622  1.00  0.00     0.041 C 
BRANCH  38  40
ATOM     40  O   UNL     1       3.777  -4.297  -6.779  1.00  0.00    -0.391 OA
ATOM     41  H   UNL     1       3.321  -4.682  -7.552  1.00  0.00     0.211 HD
ENDBRANCH  38  40
ENDBRANCH  32  38
ENDBRANCH  29  32
ENDBRANCH  27  28
BRANCH  27  42
ATOM     42  C   UNL     1       5.657  -2.502  -2.425  1.00  0.00     0.015 C 
ATOM     43  C   UNL     1       7.060  -2.947  -1.996  1.00  0.00     0.010 C 
ATOM     44  C   UNL     1       5.704  -1.872  -3.821  1.00  0.00     0.010 C 
ENDBRANCH  27  42
ENDBRANCH   3  27
TORSDOF 5
ENDMDL
MODEL 4
REMARK VINA RESULT:    -5.651      3.862      5.835
REMARK INTER + INTRA:         -12.253
REMARK INTER:                  -9.920
REMARK INTRA:                  -2.333
REMARK UNBOUND:                -2.142
REMARK SMILES CC[C@H](C)[C@H]1NC(=O)c2coc(n2)[C@H](C(C)C)NC(=O)[C@H]([C@@H](C)O)NC(=O)[C@H](C)NC(=O)c2csc1n2
REMARK SMILES IDX 11 1 13 2 12 3 9 4 10 5 7 6 6 7 8 8 5 10 36 11 35 12 34 13
REMARK SMILES IDX 37 14 33 15 31 16 32 17 30 18 28 20 29 21 3 23 4 24 2 25
REMARK SMILES IDX 1 26 14 27 18 28 19 29 20 30 21 32 25 33 26 34 27 35 22 38
REMARK SMILES IDX 23 39 24 40 15 42 16 43 17 44
REMARK H PARENT 6 9 30 19 18 31 25 36 24 41
REMARK Flexibility Score:   94.900
ROOT
ATOM      1  O   UNL     1      -3.727  -6.274   3.541  1.00  0.00    -0.446 OA
ATOM      2  N   UNL     1      -2.531  -6.762   1.694  1.00  0.00    -0.207 NA
ATOM      3  C   UNL     1      -3.594  -7.052   2.422  1.00  0.00     0.217 A 
ATOM      4  C   UNL     1      -1.939  -5.705   2.365  1.00  0.00     0.167 A 
ATOM      5  C   UNL     1      -2.673  -5.412   3.488  1.00  0.00     0.231 A 
ENDROOT
BRANCH   4   6
ATOM      6  C   UNL     1      -0.713  -5.068   1.917  1.00  0.00     0.273 C 
ATOM      7  N   UNL     1      -0.964  -4.016   1.072  1.00  0.00    -0.341 N 
ATOM      8  O   UNL     1       0.406  -5.448   2.240  1.00  0.00    -0.267 OA
ATOM      9  H   UNL     1      -1.938  -3.876   0.821  1.00  0.00     0.164 HD
BRANCH   7  10
ATOM     10  C   UNL     1       0.068  -3.365   0.289  1.00  0.00     0.145 C 
BRANCH  10  11
ATOM     11  C   UNL     1       0.368  -4.256  -0.908  1.00  0.00     0.116 A 
ATOM     12  S   UNL     1       2.004  -4.567  -1.354  1.00  0.00    -0.124 S 
ATOM     13  C   UNL     1       1.459  -5.574  -2.623  1.00  0.00     0.101 A 
ATOM     14  N   UNL     1      -0.545  -4.850  -1.659  1.00  0.00    -0.234 NA
ATOM     15  C   UNL     1       0.078  -5.625  -2.640  1.00  0.00     0.139 A 
BRANCH  15  16
ATOM     16  C   UNL     1      -0.693  -6.425  -3.594  1.00  0.00     0.271 C 
ATOM     17  O   UNL     1      -1.287  -5.934  -4.547  1.00  0.00    -0.267 OA
ATOM     18  N   UNL     1      -0.682  -7.776  -3.314  1.00  0.00    -0.339 N 
ATOM     19  H   UNL     1      -0.248  -8.044  -2.435  1.00  0.00     0.164 HD
BRANCH  18  20
ATOM     20  C   UNL     1      -1.451  -8.718  -4.116  1.00  0.00     0.168 CG0
ATOM     21  C   UNL     1      -0.540  -9.742  -4.797  1.00  0.00     0.041 C 
ATOM     22  G   UNL     1      -2.491  -9.491  -3.290  1.00  0.00     0.000 G0
ENDBRANCH  18  20
ENDBRANCH  15  16
ENDBRANCH  10  11
BRANCH  10  23
ATOM     23  C   UNL     1      -0.334  -1.927  -0.131  1.00  0.00     0.015 C 
ATOM     24  C   UNL     1      -1.489  -1.350   0.705  1.00  0.00     0.010 C 
BRANCH  23  25
ATOM     25  C   UNL     1       0.852  -0.937  -0.086  1.00  0.00     0.002 C 
ATOM     26  C   UNL     1       1.528  -0.721  -1.432  1.00  0.00     0.004 C 
ENDBRANCH  23  25
ENDBRANCH  10  23
ENDBRANCH   7  10
ENDBRANCH   4   6
BRANCH   3  27
ATOM     27  C   UNL     1      -4.594  -8.147   2.170  1.00  0.00     0.171 C 
BRANCH  27  28
ATOM     28  N   UNL     1      -4.005  -9.078   1.214  1.00  0.00    -0.342 N 
ATOM     29  C   UNL     1      -4.138  -8.936  -0.149  1.00  0.00     0.245 C 
ATOM     30  O   UNL     1      -4.752  -8.002  -0.663  1.00  0.00    -0.273 OA
ATOM     31  H   UNL     1      -3.387  -9.811   1.562  1.00  0.00     0.164 HD
BRANCH  29  32
ATOM     32  C   UNL     1      -3.338  -9.944  -0.999  1.00  0.00     0.200 C 
BRANCH  32  33
ATOM     33  N   UNL     1      -2.501  -9.191  -1.941  1.00  0.00    -0.340 N 
ATOM     34  C   UNL     1      -2.481  -9.499  -3.286  1.00  0.00     0.243 CG0
ATOM     35  O   UNL     1      -3.109 -10.452  -3.743  1.00  0.00    -0.273 OA
ATOM     36  H   UNL     1      -1.949  -8.418  -1.588  1.00  0.00     0.164 HD
ATOM     37  G   UNL     1      -1.460  -8.722  -4.132  1.00  0.00     0.000 G0
ENDBRANCH  32  33
BRANCH  32  38
ATOM     38  C   UNL     1      -2.523 -10.912  -0.110  1.00  0.00     0.143 C 
ATOM     39  C   UNL     1      -2.224 -12.256  -0.765  1.00  0.00     0.041 C 
BRANCH  38  40
ATOM     40  O   UNL     1      -1.280 -10.295   0.280  1.00  0.00    -0.391 OA
ATOM     41  H   UNL     1      -0.746 -10.206  -0.532  1.00  0.00     0.211 HD
ENDBRANCH  38  40
ENDBRANCH  32  38
ENDBRANCH  29  32
ENDBRANCH  27  28
BRANCH  27  42
ATOM     42  C   UNL     1      -5.171  -8.884   3.403  1.00  0.00     0.015 C 
ATOM     43  C   UNL     1      -6.652  -8.620   3.699  1.00  0.00     0.010 C 
ATOM     44  C   UNL     1      -4.901 -10.391   3.347  1.00  0.00     0.010 C 
ENDBRANCH  27  42
ENDBRANCH   3  27
TORSDOF 5
ENDMDL
MODEL 5
REMARK VINA RESULT:    -4.712      7.430     10.099
REMARK INTER + INTRA:         -10.572
REMARK INTER:                  -8.919
REMARK INTRA:                  -1.654
REMARK UNBOUND:                -2.142
REMARK SMILES CC[C@H](C)[C@H]1NC(=O)c2coc(n2)[C@H](C(C)C)NC(=O)[C@H]([C@@H](C)O)NC(=O)[C@H](C)NC(=O)c2csc1n2
REMARK SMILES IDX 11 1 13 2 12 3 9 4 10 5 7 6 6 7 8 8 5 10 36 11 35 12 34 13
REMARK SMILES IDX 37 14 33 15 31 16 32 17 30 18 28 20 29 21 3 23 4 24 2 25
REMARK SMILES IDX 1 26 14 27 18 28 19 29 20 30 21 32 25 33 26 34 27 35 22 38
REMARK SMILES IDX 23 39 24 40 15 42 16 43 17 44
REMARK H PARENT 6 9 30 19 18 31 25 36 24 41
REMARK Flexibility Score:   94.900
ROOT
ATOM      1  O   UNL     1      -5.165  -5.210   6.372  1.00  0.00    -0.446 OA
ATOM      2  N   UNL     1      -3.539  -6.757   6.169  1.00  0.00    -0.207 NA
ATOM      3  C   UNL     1      -4.695  -6.446   6.727  1.00  0.00     0.217 A 
ATOM      4  C   UNL     1      -3.241  -5.664   5.374  1.00  0.00     0.167 A 
ATOM      5  C   UNL     1      -4.236  -4.726   5.501  1.00  0.00     0.231 A 
ENDROOT
BRANCH   4   6
ATOM      6  C   UNL     1      -2.031  -5.570   4.576  1.00  0.00     0.273 C 
ATOM      7  N   UNL     1      -2.299  -5.181   3.288  1.00  0.00    -0.341 N 
ATOM      8  O   UNL     1      -0.914  -5.832   5.005  1.00  0.00    -0.267 OA
ATOM      9  H   UNL     1      -3.282  -5.089   3.051  1.00  0.00     0.164 HD
BRANCH   7  10
ATOM     10  C   UNL     1      -1.319  -5.245   2.222  1.00  0.00     0.145 C 
BRANCH  10  11
ATOM     11  C   UNL     1      -1.692  -6.416   1.323  1.00  0.00     0.116 A 
ATOM     12  S   UNL     1      -1.291  -6.368  -0.353  1.00  0.00    -0.124 S 
ATOM     13  C   UNL     1      -1.966  -7.926  -0.550  1.00  0.00     0.101 A 
ATOM     14  N   UNL     1      -2.306  -7.515   1.726  1.00  0.00    -0.234 NA
ATOM     15  C   UNL     1      -2.453  -8.398   0.653  1.00  0.00     0.139 A 
BRANCH  15  16
ATOM     16  C   UNL     1      -3.069  -9.716   0.820  1.00  0.00     0.271 C 
ATOM     17  O   UNL     1      -3.138 -10.537  -0.088  1.00  0.00    -0.267 OA
ATOM     18  N   UNL     1      -3.557  -9.939   2.090  1.00  0.00    -0.339 N 
ATOM     19  H   UNL     1      -3.539  -9.141   2.720  1.00  0.00     0.164 HD
BRANCH  18  20
ATOM     20  C   UNL     1      -4.263 -11.170   2.421  1.00  0.00     0.168 CG0
ATOM     21  C   UNL     1      -3.287 -12.297   2.764  1.00  0.00     0.041 C 
ATOM     22  G   UNL     1      -5.223 -11.002   3.610  1.00  0.00     0.000 G0
ENDBRANCH  18  20
ENDBRANCH  15  16
ENDBRANCH  10  11
BRANCH  10  23
ATOM     23  C   UNL     1      -1.215  -3.909   1.440  1.00  0.00     0.015 C 
ATOM     24  C   UNL     1      -1.495  -2.672   2.309  1.00  0.00     0.010 C 
BRANCH  23  25
ATOM     25  C   UNL     1       0.154  -3.727   0.746  1.00  0.00     0.002 C 
ATOM     26  C   UNL     1       0.806  -2.377   1.010  1.00  0.00     0.004 C 
ENDBRANCH  23  25
ENDBRANCH  10  23
ENDBRANCH   7  10
ENDBRANCH   4   6
BRANCH   3  27
ATOM     27  C   UNL     1      -5.477  -7.270   7.714  1.00  0.00     0.171 C 
BRANCH  27  28
ATOM     28  N   UNL     1      -5.259  -8.676   7.393  1.00  0.00    -0.342 N 
ATOM     29  C   UNL     1      -5.902  -9.315   6.357  1.00  0.00     0.245 C 
ATOM     30  O   UNL     1      -6.698  -8.742   5.614  1.00  0.00    -0.273 OA
ATOM     31  H   UNL     1      -4.530  -9.185   7.892  1.00  0.00     0.164 HD
BRANCH  29  32
ATOM     32  C   UNL     1      -5.447 -10.765   6.091  1.00  0.00     0.200 C 
BRANCH  32  33
ATOM     33  N   UNL     1      -4.646 -10.779   4.861  1.00  0.00    -0.340 N 
ATOM     34  C   UNL     1      -5.225 -11.022   3.632  1.00  0.00     0.243 CG0
ATOM     35  O   UNL     1      -6.417 -11.300   3.520  1.00  0.00    -0.273 OA
ATOM     36  H   UNL     1      -3.654 -10.584   4.926  1.00  0.00     0.164 HD
ATOM     37  G   UNL     1      -4.251 -11.143   2.449  1.00  0.00     0.000 G0
ENDBRANCH  32  33
BRANCH  32  38
ATOM     38  C   UNL     1      -4.693 -11.353   7.307  1.00  0.00     0.143 C 
ATOM     39  C   UNL     1      -4.709 -12.876   7.373  1.00  0.00     0.041 C 
BRANCH  38  40
ATOM     40  O   UNL     1      -3.326 -10.900   7.306  1.00  0.00    -0.391 OA
ATOM     41  H   UNL     1      -2.782 -11.654   7.009  1.00  0.00     0.211 HD
ENDBRANCH  38  40
ENDBRANCH  32  38
ENDBRANCH  29  32
ENDBRANCH  27  28
BRANCH  27  42
ATOM     42  C   UNL     1      -5.247  -6.987   9.219  1.00  0.00     0.015 C 
ATOM     43  C   UNL     1      -6.150  -5.911   9.834  1.00  0.00     0.010 C 
ATOM     44  C   UNL     1      -5.301  -8.268  10.057  1.00  0.00     0.010 C 
ENDBRANCH  27  42
ENDBRANCH   3  27
TORSDOF 5
ENDMDL
MODEL 6
REMARK VINA RESULT:    -4.252     14.670     19.199
REMARK INTER + INTRA:          -9.750
REMARK INTER:                  -7.758
REMARK INTRA:                  -1.992
REMARK UNBOUND:                -2.142
REMARK SMILES CC[C@H](C)[C@H]1NC(=O)c2coc(n2)[C@H](C(C)C)NC(=O)[C@H]([C@@H](C)O)NC(=O)[C@H](C)NC(=O)c2csc1n2
REMARK SMILES IDX 11 1 13 2 12 3 9 4 10 5 7 6 6 7 8 8 5 10 36 11 35 12 34 13
REMARK SMILES IDX 37 14 33 15 31 16 32 17 30 18 28 20 29 21 3 23 4 24 2 25
REMARK SMILES IDX 1 26 14 27 18 28 19 29 20 30 21 32 25 33 26 34 27 35 22 38
REMARK SMILES IDX 23 39 24 40 15 42 16 43 17 44
REMARK H PARENT 6 9 30 19 18 31 25 36 24 41
REMARK Flexibility Score:   94.900
ROOT
ATOM      1  O   UNL     1     -14.895  -4.680   5.005  1.00  0.00    -0.446 OA
ATOM      2  N   UNL     1     -15.782  -5.733   3.221  1.00  0.00    -0.207 NA
ATOM      3  C   UNL     1     -14.914  -4.831   3.645  1.00  0.00     0.217 A 
ATOM      4  C   UNL     1     -16.353  -6.226   4.381  1.00  0.00     0.167 A 
ATOM      5  C   UNL     1     -15.808  -5.581   5.464  1.00  0.00     0.231 A 
ENDROOT
BRANCH   4   6
ATOM      6  C   UNL     1     -17.389  -7.245   4.385  1.00  0.00     0.273 C 
ATOM      7  N   UNL     1     -17.130  -8.230   5.304  1.00  0.00    -0.341 N 
ATOM      8  O   UNL     1     -18.358  -7.229   3.636  1.00  0.00    -0.267 OA
ATOM      9  H   UNL     1     -16.240  -8.158   5.789  1.00  0.00     0.164 HD
BRANCH   7  10
ATOM     10  C   UNL     1     -17.859  -9.483   5.348  1.00  0.00     0.145 C 
BRANCH  10  11
ATOM     11  C   UNL     1     -17.037 -10.520   4.596  1.00  0.00     0.116 A 
ATOM     12  S   UNL     1     -17.316 -12.197   4.875  1.00  0.00    -0.124 S 
ATOM     13  C   UNL     1     -16.122 -12.581   3.713  1.00  0.00     0.101 A 
ATOM     14  N   UNL     1     -16.102 -10.243   3.702  1.00  0.00    -0.234 NA
ATOM     15  C   UNL     1     -15.582 -11.429   3.177  1.00  0.00     0.139 A 
BRANCH  15  16
ATOM     16  C   UNL     1     -14.553 -11.422   2.135  1.00  0.00     0.271 C 
ATOM     17  O   UNL     1     -14.183 -12.440   1.560  1.00  0.00    -0.267 OA
ATOM     18  N   UNL     1     -14.048 -10.168   1.866  1.00  0.00    -0.339 N 
ATOM     19  H   UNL     1     -14.356  -9.423   2.487  1.00  0.00     0.164 HD
BRANCH  18  20
ATOM     20  C   UNL     1     -12.969  -9.978   0.907  1.00  0.00     0.168 CG0
ATOM     21  C   UNL     1     -13.506  -9.521  -0.451  1.00  0.00     0.041 C 
ATOM     22  G   UNL     1     -11.933  -8.943   1.375  1.00  0.00     0.000 G0
ENDBRANCH  18  20
ENDBRANCH  15  16
ENDBRANCH  10  11
BRANCH  10  23
ATOM     23  C   UNL     1     -18.180  -9.923   6.801  1.00  0.00     0.015 C 
ATOM     24  C   UNL     1     -17.716  -8.910   7.861  1.00  0.00     0.010 C 
BRANCH  23  25
ATOM     25  C   UNL     1     -19.682 -10.215   7.019  1.00  0.00     0.002 C 
ATOM     26  C   UNL     1     -20.605  -9.105   6.534  1.00  0.00     0.004 C 
ENDBRANCH  23  25
ENDBRANCH  10  23
ENDBRANCH   7  10
ENDBRANCH   4   6
BRANCH   3  27
ATOM     27  C   UNL     1     -14.027  -3.959   2.799  1.00  0.00     0.171 C 
BRANCH  27  28
ATOM     28  N   UNL     1     -13.181  -4.833   1.992  1.00  0.00    -0.342 N 
ATOM     29  C   UNL     1     -12.130  -5.550   2.519  1.00  0.00     0.245 C 
ATOM     30  O   UNL     1     -11.837  -5.520   3.713  1.00  0.00    -0.273 OA
ATOM     31  H   UNL     1     -13.434  -4.997   1.019  1.00  0.00     0.164 HD
BRANCH  29  32
ATOM     32  C   UNL     1     -11.434  -6.516   1.538  1.00  0.00     0.200 C 
BRANCH  32  33
ATOM     33  N   UNL     1     -12.352  -7.625   1.253  1.00  0.00    -0.340 N 
ATOM     34  C   UNL     1     -11.946  -8.939   1.365  1.00  0.00     0.243 CG0
ATOM     35  O   UNL     1     -10.787  -9.238   1.645  1.00  0.00    -0.273 OA
ATOM     36  H   UNL     1     -13.307  -7.409   0.990  1.00  0.00     0.164 HD
ATOM     37  G   UNL     1     -12.965  -9.994   0.905  1.00  0.00     0.000 G0
ENDBRANCH  32  33
BRANCH  32  38
ATOM     38  C   UNL     1     -10.961  -5.782   0.262  1.00  0.00     0.143 C 
ATOM     39  C   UNL     1     -10.080  -4.568   0.532  1.00  0.00     0.041 C 
BRANCH  38  40
ATOM     40  O   UNL     1     -10.248  -6.694  -0.596  1.00  0.00    -0.391 OA
ATOM     41  H   UNL     1      -9.314  -6.670  -0.315  1.00  0.00     0.211 HD
ENDBRANCH  38  40
ENDBRANCH  32  38
ENDBRANCH  29  32
ENDBRANCH  27  28
BRANCH  27  42
ATOM     42  C   UNL     1     -14.710  -2.871   1.935  1.00  0.00     0.015 C 
ATOM     43  C   UNL     1     -15.914  -2.175   2.580  1.00  0.00     0.010 C 
ATOM     44  C   UNL     1     -13.706  -1.832   1.424  1.00  0.00     0.010 C 
ENDBRANCH  27  42
ENDBRANCH   3  27
TORSDOF 5
ENDMDL
MODEL 7
REMARK VINA RESULT:    -3.940     23.733     26.350
REMARK INTER + INTRA:          -9.191
REMARK INTER:                  -6.885
REMARK INTRA:                  -2.306
REMARK UNBOUND:                -2.142
REMARK SMILES CC[C@H](C)[C@H]1NC(=O)c2coc(n2)[C@H](C(C)C)NC(=O)[C@H]([C@@H](C)O)NC(=O)[C@H](C)NC(=O)c2csc1n2
REMARK SMILES IDX 11 1 13 2 12 3 9 4 10 5 7 6 6 7 8 8 5 10 36 11 35 12 34 13
REMARK SMILES IDX 37 14 33 15 31 16 32 17 30 18 28 20 29 21 3 23 4 24 2 25
REMARK SMILES IDX 1 26 14 27 18 28 19 29 20 30 21 32 25 33 26 34 27 35 22 38
REMARK SMILES IDX 23 39 24 40 15 42 16 43 17 44
REMARK H PARENT 6 9 30 19 18 31 25 36 24 41
REMARK Flexibility Score:   94.900
ROOT
ATOM      1  O   UNL     1     -14.016  10.885  -8.445  1.00  0.00    -0.446 OA
ATOM      2  N   UNL     1     -15.754  11.000  -7.014  1.00  0.00    -0.207 NA
ATOM      3  C   UNL     1     -14.441  10.930  -7.144  1.00  0.00     0.217 A 
ATOM      4  C   UNL     1     -16.223  11.029  -8.315  1.00  0.00     0.167 A 
ATOM      5  C   UNL     1     -15.160  10.959  -9.182  1.00  0.00     0.231 A 
ENDROOT
BRANCH   4   6
ATOM      6  C   UNL     1     -17.635  11.090  -8.649  1.00  0.00     0.273 C 
ATOM      7  N   UNL     1     -17.935  12.201  -9.397  1.00  0.00    -0.341 N 
ATOM      8  O   UNL     1     -18.456  10.259  -8.279  1.00  0.00    -0.267 OA
ATOM      9  H   UNL     1     -17.168  12.850  -9.548  1.00  0.00     0.164 HD
BRANCH   7  10
ATOM     10  C   UNL     1     -19.292  12.639  -9.656  1.00  0.00     0.145 C 
BRANCH  10  11
ATOM     11  C   UNL     1     -19.739  13.479  -8.468  1.00  0.00     0.116 A 
ATOM     12  S   UNL     1     -21.361  14.058  -8.393  1.00  0.00    -0.124 S 
ATOM     13  C   UNL     1     -21.024  14.781  -6.881  1.00  0.00     0.101 A 
ATOM     14  N   UNL     1     -18.973  13.808  -7.441  1.00  0.00    -0.234 NA
ATOM     15  C   UNL     1     -19.714  14.545  -6.513  1.00  0.00     0.139 A 
BRANCH  15  16
ATOM     16  C   UNL     1     -19.126  15.011  -5.255  1.00  0.00     0.271 C 
ATOM     17  O   UNL     1     -19.721  15.748  -4.477  1.00  0.00    -0.267 OA
ATOM     18  N   UNL     1     -17.849  14.540  -5.036  1.00  0.00    -0.339 N 
ATOM     19  H   UNL     1     -17.425  14.029  -5.807  1.00  0.00     0.164 HD
BRANCH  18  20
ATOM     20  C   UNL     1     -17.082  14.954  -3.869  1.00  0.00     0.168 CG0
ATOM     21  C   UNL     1     -17.179  13.920  -2.745  1.00  0.00     0.041 C 
ATOM     22  G   UNL     1     -15.593  15.170  -4.182  1.00  0.00     0.000 G0
ENDBRANCH  18  20
ENDBRANCH  15  16
ENDBRANCH  10  11
BRANCH  10  23
ATOM     23  C   UNL     1     -19.415  13.403 -11.001  1.00  0.00     0.015 C 
ATOM     24  C   UNL     1     -18.102  14.069 -11.444  1.00  0.00     0.010 C 
BRANCH  23  25
ATOM     25  C   UNL     1     -19.930  12.509 -12.151  1.00  0.00     0.002 C 
ATOM     26  C   UNL     1     -18.846  11.669 -12.814  1.00  0.00     0.004 C 
ENDBRANCH  23  25
ENDBRANCH  10  23
ENDBRANCH   7  10
ENDBRANCH   4   6
BRANCH   3  27
ATOM     27  C   UNL     1     -13.423  10.845  -6.040  1.00  0.00     0.171 C 
BRANCH  27  28
ATOM     28  N   UNL     1     -13.666  11.954  -5.123  1.00  0.00    -0.342 N 
ATOM     29  C   UNL     1     -12.832  13.046  -5.033  1.00  0.00     0.245 C 
ATOM     30  O   UNL     1     -11.828  13.175  -5.731  1.00  0.00    -0.273 OA
ATOM     31  H   UNL     1     -14.538  11.971  -4.595  1.00  0.00     0.164 HD
BRANCH  29  32
ATOM     32  C   UNL     1     -13.321  14.175  -4.101  1.00  0.00     0.200 C 
BRANCH  32  33
ATOM     33  N   UNL     1     -14.781  14.070  -3.977  1.00  0.00    -0.340 N 
ATOM     34  C   UNL     1     -15.597  15.163  -4.182  1.00  0.00     0.243 CG0
ATOM     35  O   UNL     1     -15.140  16.280  -4.413  1.00  0.00    -0.273 OA
ATOM     36  H   UNL     1     -15.185  13.167  -3.757  1.00  0.00     0.164 HD
ATOM     37  G   UNL     1     -17.089  14.945  -3.885  1.00  0.00     0.000 G0
ENDBRANCH  32  33
BRANCH  32  38
ATOM     38  C   UNL     1     -12.596  14.136  -2.736  1.00  0.00     0.143 C 
ATOM     39  C   UNL     1     -13.485  14.485  -1.548  1.00  0.00     0.041 C 
BRANCH  38  40
ATOM     40  O   UNL     1     -12.020  12.832  -2.521  1.00  0.00    -0.391 OA
ATOM     41  H   UNL     1     -11.739  12.504  -3.396  1.00  0.00     0.211 HD
ENDBRANCH  38  40
ENDBRANCH  32  38
ENDBRANCH  29  32
ENDBRANCH  27  28
BRANCH  27  42
ATOM     42  C   UNL     1     -13.300   9.499  -5.286  1.00  0.00     0.015 C 
ATOM     43  C   UNL     1     -14.419   9.198  -4.282  1.00  0.00     0.010 C 
ATOM     44  C   UNL     1     -13.116   8.319  -6.246  1.00  0.00     0.010 C 
ENDBRANCH  27  42
ENDBRANCH   3  27
TORSDOF 5
ENDMDL
MODEL 8
REMARK VINA RESULT:    -3.921      2.360      3.616
REMARK INTER + INTRA:          -9.157
REMARK INTER:                  -9.637
REMARK INTRA:                   0.480
REMARK UNBOUND:                -2.142
REMARK SMILES CC[C@H](C)[C@H]1NC(=O)c2coc(n2)[C@H](C(C)C)NC(=O)[C@H]([C@@H](C)O)NC(=O)[C@H](C)NC(=O)c2csc1n2
REMARK SMILES IDX 11 1 13 2 12 3 9 4 10 5 7 6 6 7 8 8 5 10 36 11 35 12 34 13
REMARK SMILES IDX 37 14 33 15 31 16 32 17 30 18 28 20 29 21 3 23 4 24 2 25
REMARK SMILES IDX 1 26 14 27 18 28 19 29 20 30 21 32 25 33 26 34 27 35 22 38
REMARK SMILES IDX 23 39 24 40 15 42 16 43 17 44
REMARK H PARENT 6 9 30 19 18 31 25 36 24 41
REMARK Flexibility Score:   94.900
ROOT
ATOM      1  O   UNL     1      -2.080  -4.765   1.245  1.00  0.00    -0.446 OA
ATOM      2  N   UNL     1      -0.375  -4.617  -0.222  1.00  0.00    -0.207 NA
ATOM      3  C   UNL     1      -1.494  -5.240   0.102  1.00  0.00     0.217 A 
ATOM      4  C   UNL     1      -0.230  -3.650   0.757  1.00  0.00     0.167 A 
ATOM      5  C   UNL     1      -1.271  -3.745   1.647  1.00  0.00     0.231 A 
ENDROOT
BRANCH   4   6
ATOM      6  C   UNL     1       0.892  -2.728   0.802  1.00  0.00     0.273 C 
ATOM      7  N   UNL     1       1.161  -2.193  -0.433  1.00  0.00    -0.341 N 
ATOM      8  O   UNL     1       1.529  -2.483   1.819  1.00  0.00    -0.267 OA
ATOM      9  H   UNL     1       0.608  -2.560  -1.202  1.00  0.00     0.164 HD
BRANCH   7  10
ATOM     10  C   UNL     1       2.367  -1.444  -0.725  1.00  0.00     0.145 C 
BRANCH  10  11
ATOM     11  C   UNL     1       3.234  -2.302  -1.635  1.00  0.00     0.116 A 
ATOM     12  S   UNL     1       4.852  -1.819  -1.979  1.00  0.00    -0.124 S 
ATOM     13  C   UNL     1       5.062  -3.225  -2.928  1.00  0.00     0.101 A 
ATOM     14  N   UNL     1       2.851  -3.436  -2.198  1.00  0.00    -0.234 NA
ATOM     15  C   UNL     1       3.907  -3.983  -2.932  1.00  0.00     0.139 A 
BRANCH  15  16
ATOM     16  C   UNL     1       3.776  -5.262  -3.633  1.00  0.00     0.271 C 
ATOM     17  O   UNL     1       4.620  -5.679  -4.419  1.00  0.00    -0.267 OA
ATOM     18  N   UNL     1       2.619  -5.945  -3.322  1.00  0.00    -0.339 N 
ATOM     19  H   UNL     1       1.949  -5.444  -2.744  1.00  0.00     0.164 HD
BRANCH  18  20
ATOM     20  C   UNL     1       2.288  -7.204  -3.974  1.00  0.00     0.168 CG0
ATOM     21  C   UNL     1       3.152  -8.350  -3.444  1.00  0.00     0.041 C 
ATOM     22  G   UNL     1       0.814  -7.601  -3.787  1.00  0.00     0.000 G0
ENDBRANCH  18  20
ENDBRANCH  15  16
ENDBRANCH  10  11
BRANCH  10  23
ATOM     23  C   UNL     1       2.058  -0.054  -1.342  1.00  0.00     0.015 C 
ATOM     24  C   UNL     1       2.507   0.076  -2.807  1.00  0.00     0.010 C 
BRANCH  23  25
ATOM     25  C   UNL     1       0.562   0.324  -1.247  1.00  0.00     0.002 C 
ATOM     26  C   UNL     1       0.133   0.809   0.130  1.00  0.00     0.004 C 
ENDBRANCH  23  25
ENDBRANCH  10  23
ENDBRANCH   7  10
ENDBRANCH   4   6
BRANCH   3  27
ATOM     27  C   UNL     1      -2.120  -6.407  -0.611  1.00  0.00     0.171 C 
BRANCH  27  28
ATOM     28  N   UNL     1      -1.774  -6.305  -2.025  1.00  0.00    -0.342 N 
ATOM     29  C   UNL     1      -1.832  -7.377  -2.887  1.00  0.00     0.245 C 
ATOM     30  O   UNL     1      -2.194  -8.498  -2.532  1.00  0.00    -0.273 OA
ATOM     31  H   UNL     1      -1.576  -5.385  -2.415  1.00  0.00     0.164 HD
BRANCH  29  32
ATOM     32  C   UNL     1      -1.554  -7.047  -4.369  1.00  0.00     0.200 C 
BRANCH  32  33
ATOM     33  N   UNL     1      -0.107  -6.865  -4.537  1.00  0.00    -0.340 N 
ATOM     34  C   UNL     1       0.797  -7.586  -3.786  1.00  0.00     0.243 CG0
ATOM     35  O   UNL     1       0.437  -8.361  -2.902  1.00  0.00    -0.273 OA
ATOM     36  H   UNL     1       0.221  -6.210  -5.237  1.00  0.00     0.164 HD
ATOM     37  G   UNL     1       2.274  -7.197  -3.966  1.00  0.00     0.000 G0
ENDBRANCH  32  33
BRANCH  32  38
ATOM     38  C   UNL     1      -2.139  -8.128  -5.308  1.00  0.00     0.143 C 
ATOM     39  C   UNL     1      -1.958  -7.827  -6.791  1.00  0.00     0.041 C 
BRANCH  38  40
ATOM     40  O   UNL     1      -1.547  -9.408  -5.015  1.00  0.00    -0.391 OA
ATOM     41  H   UNL     1      -0.848  -9.247  -4.354  1.00  0.00     0.211 HD
ENDBRANCH  38  40
ENDBRANCH  32  38
ENDBRANCH  29  32
ENDBRANCH  27  28
BRANCH  27  42
ATOM     42  C   UNL     1      -1.830  -7.823  -0.054  1.00  0.00     0.015 C 
ATOM     43  C   UNL     1      -0.530  -7.964   0.746  1.00  0.00     0.010 C 
ATOM     44  C   UNL     1      -3.011  -8.375   0.750  1.00  0.00     0.010 C 
ENDBRANCH  27  42
ENDBRANCH   3  27
TORSDOF 5
ENDMDL
MODEL 9
REMARK VINA RESULT:    -3.793      1.842      2.337
REMARK INTER + INTRA:          -8.928
REMARK INTER:                  -9.949
REMARK INTRA:                   1.021
REMARK UNBOUND:                -2.142
REMARK SMILES CC[C@H](C)[C@H]1NC(=O)c2coc(n2)[C@H](C(C)C)NC(=O)[C@H]([C@@H](C)O)NC(=O)[C@H](C)NC(=O)c2csc1n2
REMARK SMILES IDX 11 1 13 2 12 3 9 4 10 5 7 6 6 7 8 8 5 10 36 11 35 12 34 13
REMARK SMILES IDX 37 14 33 15 31 16 32 17 30 18 28 20 29 21 3 23 4 24 2 25
REMARK SMILES IDX 1 26 14 27 18 28 19 29 20 30 21 32 25 33 26 34 27 35 22 38
REMARK SMILES IDX 23 39 24 40 15 42 16 43 17 44
REMARK H PARENT 6 9 30 19 18 31 25 36 24 41
REMARK Flexibility Score:   94.900
ROOT
ATOM      1  O   UNL     1      -0.550  -3.857   0.570  1.00  0.00    -0.446 OA
ATOM      2  N   UNL     1       0.539  -3.938  -1.402  1.00  0.00    -0.207 NA
ATOM      3  C   UNL     1      -0.410  -4.466  -0.649  1.00  0.00     0.217 A 
ATOM      4  C   UNL     1       1.038  -2.898  -0.639  1.00  0.00     0.167 A 
ATOM      5  C   UNL     1       0.370  -2.853   0.560  1.00  0.00     0.231 A 
ENDROOT
BRANCH   4   6
ATOM      6  C   UNL     1       2.125  -2.040  -1.080  1.00  0.00     0.273 C 
ATOM      7  N   UNL     1       3.018  -2.716  -1.873  1.00  0.00    -0.341 N 
ATOM      8  O   UNL     1       2.234  -0.864  -0.756  1.00  0.00    -0.267 OA
ATOM      9  H   UNL     1       2.846  -3.712  -1.979  1.00  0.00     0.164 HD
BRANCH   7  10
ATOM     10  C   UNL     1       4.312  -2.179  -2.244  1.00  0.00     0.145 C 
BRANCH  10  11
ATOM     11  C   UNL     1       4.749  -2.874  -3.525  1.00  0.00     0.116 A 
ATOM     12  S   UNL     1       6.341  -2.622  -4.134  1.00  0.00    -0.124 S 
ATOM     13  C   UNL     1       6.011  -3.696  -5.422  1.00  0.00     0.101 A 
ATOM     14  N   UNL     1       3.995  -3.697  -4.236  1.00  0.00    -0.234 NA
ATOM     15  C   UNL     1       4.723  -4.188  -5.323  1.00  0.00     0.139 A 
BRANCH  15  16
ATOM     16  C   UNL     1       4.147  -5.153  -6.262  1.00  0.00     0.271 C 
ATOM     17  O   UNL     1       4.749  -5.560  -7.250  1.00  0.00    -0.267 OA
ATOM     18  N   UNL     1       2.872  -5.556  -5.925  1.00  0.00    -0.339 N 
ATOM     19  H   UNL     1       2.442  -5.063  -5.147  1.00  0.00     0.164 HD
BRANCH  18  20
ATOM     20  C   UNL     1       2.116  -6.461  -6.780  1.00  0.00     0.168 CG0
ATOM     21  C   UNL     1       2.730  -7.863  -6.787  1.00  0.00     0.041 C 
ATOM     22  G   UNL     1       0.646  -6.594  -6.352  1.00  0.00     0.000 G0
ENDBRANCH  18  20
ENDBRANCH  15  16
ENDBRANCH  10  11
BRANCH  10  23
ATOM     23  C   UNL     1       4.285  -0.634  -2.389  1.00  0.00     0.015 C 
ATOM     24  C   UNL     1       5.486   0.060  -1.724  1.00  0.00     0.010 C 
BRANCH  23  25
ATOM     25  C   UNL     1       4.199  -0.173  -3.861  1.00  0.00     0.002 C 
ATOM     26  C   UNL     1       5.128   0.984  -4.202  1.00  0.00     0.004 C 
ENDBRANCH  23  25
ENDBRANCH  10  23
ENDBRANCH   7  10
ENDBRANCH   4   6
BRANCH   3  27
ATOM     27  C   UNL     1      -1.272  -5.654  -0.976  1.00  0.00     0.171 C 
BRANCH  27  28
ATOM     28  N   UNL     1      -1.164  -5.902  -2.410  1.00  0.00    -0.342 N 
ATOM     29  C   UNL     1      -0.802  -7.124  -2.932  1.00  0.00     0.245 C 
ATOM     30  O   UNL     1      -0.558  -8.102  -2.227  1.00  0.00    -0.273 OA
ATOM     31  H   UNL     1      -1.463  -5.174  -3.057  1.00  0.00     0.164 HD
BRANCH  29  32
ATOM     32  C   UNL     1      -0.869  -7.231  -4.470  1.00  0.00     0.200 C 
BRANCH  32  33
ATOM     33  N   UNL     1       0.472  -6.970  -5.008  1.00  0.00    -0.340 N 
ATOM     34  C   UNL     1       0.654  -6.588  -6.321  1.00  0.00     0.243 CG0
ATOM     35  O   UNL     1      -0.284  -6.510  -7.112  1.00  0.00    -0.273 OA
ATOM     36  H   UNL     1       1.268  -7.056  -4.388  1.00  0.00     0.164 HD
ATOM     37  G   UNL     1       2.115  -6.483  -6.788  1.00  0.00     0.000 G0
ENDBRANCH  32  33
BRANCH  32  38
ATOM     38  C   UNL     1      -1.444  -8.595  -4.918  1.00  0.00     0.143 C 
ATOM     39  C   UNL     1      -2.139  -8.562  -6.274  1.00  0.00     0.041 C 
BRANCH  38  40
ATOM     40  O   UNL     1      -0.397  -9.583  -4.953  1.00  0.00    -0.391 OA
ATOM     41  H   UNL     1       0.413  -9.122  -5.244  1.00  0.00     0.211 HD
ENDBRANCH  38  40
ENDBRANCH  32  38
ENDBRANCH  29  32
ENDBRANCH  27  28
BRANCH  27  42
ATOM     42  C   UNL     1      -1.045  -6.947  -0.156  1.00  0.00     0.015 C 
ATOM     43  C   UNL     1       0.062  -6.873   0.902  1.00  0.00     0.010 C 
ATOM     44  C   UNL     1      -2.345  -7.464   0.470  1.00  0.00     0.010 C 
ENDBRANCH  27  42
ENDBRANCH   3  27
TORSDOF 5
ENDMDL
MODEL 10
REMARK VINA RESULT:    -3.742      7.075      9.611
REMARK INTER + INTRA:          -8.838
REMARK INTER:                  -7.452
REMARK INTRA:                  -1.386
REMARK UNBOUND:                -2.142
REMARK SMILES CC[C@H](C)[C@H]1NC(=O)c2coc(n2)[C@H](C(C)C)NC(=O)[C@H]([C@@H](C)O)NC(=O)[C@H](C)NC(=O)c2csc1n2
REMARK SMILES IDX 11 1 13 2 12 3 9 4 10 5 7 6 6 7 8 8 5 10 36 11 35 12 34 13
REMARK SMILES IDX 37 14 33 15 31 16 32 17 30 18 28 20 29 21 3 23 4 24 2 25
REMARK SMILES IDX 1 26 14 27 18 28 19 29 20 30 21 32 25 33 26 34 27 35 22 38
REMARK SMILES IDX 23 39 24 40 15 42 16 43 17 44
REMARK H PARENT 6 9 30 19 18 31 25 36 24 41
REMARK Flexibility Score:   94.900
ROOT
ATOM      1  O   UNL     1      -4.454  -4.990   7.122  1.00  0.00    -0.446 OA
ATOM      2  N   UNL     1      -3.474  -6.582   5.863  1.00  0.00    -0.207 NA
ATOM      3  C   UNL     1      -4.485  -6.277   6.656  1.00  0.00     0.217 A 
ATOM      4  C   UNL     1      -2.743  -5.409   5.780  1.00  0.00     0.167 A 
ATOM      5  C   UNL     1      -3.346  -4.444   6.549  1.00  0.00     0.231 A 
ENDROOT
BRANCH   4   6
ATOM      6  C   UNL     1      -1.518  -5.291   5.009  1.00  0.00     0.273 C 
ATOM      7  N   UNL     1      -1.673  -4.458   3.929  1.00  0.00    -0.341 N 
ATOM      8  O   UNL     1      -0.484  -5.887   5.283  1.00  0.00    -0.267 OA
ATOM      9  H   UNL     1      -2.614  -4.107   3.776  1.00  0.00     0.164 HD
BRANCH   7  10
ATOM     10  C   UNL     1      -0.698  -4.354   2.862  1.00  0.00     0.145 C 
BRANCH  10  11
ATOM     11  C   UNL     1      -0.915  -5.533   1.923  1.00  0.00     0.116 A 
ATOM     12  S   UNL     1       0.210  -5.833   0.653  1.00  0.00    -0.124 S 
ATOM     13  C   UNL     1      -0.692  -7.208   0.189  1.00  0.00     0.101 A 
ATOM     14  N   UNL     1      -1.920  -6.390   2.003  1.00  0.00    -0.234 NA
ATOM     15  C   UNL     1      -1.788  -7.369   1.015  1.00  0.00     0.139 A 
BRANCH  15  16
ATOM     16  C   UNL     1      -2.743  -8.473   0.893  1.00  0.00     0.271 C 
ATOM     17  O   UNL     1      -2.841  -9.157  -0.120  1.00  0.00    -0.267 OA
ATOM     18  N   UNL     1      -3.512  -8.663   2.021  1.00  0.00    -0.339 N 
ATOM     19  H   UNL     1      -3.413  -7.962   2.750  1.00  0.00     0.164 HD
BRANCH  18  20
ATOM     20  C   UNL     1      -4.562  -9.672   2.057  1.00  0.00     0.168 CG0
ATOM     21  C   UNL     1      -4.094 -10.937   2.780  1.00  0.00     0.041 C 
ATOM     22  G   UNL     1      -5.838  -9.176   2.756  1.00  0.00     0.000 G0
ENDBRANCH  18  20
ENDBRANCH  15  16
ENDBRANCH  10  11
BRANCH  10  23
ATOM     23  C   UNL     1      -0.776  -2.990   2.127  1.00  0.00     0.015 C 
ATOM     24  C   UNL     1       0.599  -2.341   1.901  1.00  0.00     0.010 C 
BRANCH  23  25
ATOM     25  C   UNL     1      -1.509  -3.083   0.769  1.00  0.00     0.002 C 
ATOM     26  C   UNL     1      -1.134  -1.982  -0.212  1.00  0.00     0.004 C 
ENDBRANCH  23  25
ENDBRANCH  10  23
ENDBRANCH   7  10
ENDBRANCH   4   6
BRANCH   3  27
ATOM     27  C   UNL     1      -5.586  -7.194   7.115  1.00  0.00     0.171 C 
BRANCH  27  28
ATOM     28  N   UNL     1      -5.980  -8.021   5.979  1.00  0.00    -0.342 N 
ATOM     29  C   UNL     1      -7.085  -8.842   6.001  1.00  0.00     0.245 C 
ATOM     30  O   UNL     1      -7.831  -8.928   6.975  1.00  0.00    -0.273 OA
ATOM     31  H   UNL     1      -5.477  -7.917   5.099  1.00  0.00     0.164 HD
BRANCH  29  32
ATOM     32  C   UNL     1      -7.415  -9.540   4.664  1.00  0.00     0.200 C 
BRANCH  32  33
ATOM     33  N   UNL     1      -6.154  -9.810   3.962  1.00  0.00    -0.340 N 
ATOM     34  C   UNL     1      -5.842  -9.173   2.779  1.00  0.00     0.243 CG0
ATOM     35  O   UNL     1      -6.627  -8.404   2.229  1.00  0.00    -0.273 OA
ATOM     36  H   UNL     1      -5.499 -10.464   4.376  1.00  0.00     0.164 HD
ATOM     37  G   UNL     1      -4.558  -9.652   2.083  1.00  0.00     0.000 G0
ENDBRANCH  32  33
BRANCH  32  38
ATOM     38  C   UNL     1      -8.267 -10.811   4.885  1.00  0.00     0.143 C 
ATOM     39  C   UNL     1      -8.265 -11.775   3.704  1.00  0.00     0.041 C 
BRANCH  38  40
ATOM     40  O   UNL     1      -7.813 -11.511   6.060  1.00  0.00    -0.391 OA
ATOM     41  H   UNL     1      -7.778 -12.457   5.825  1.00  0.00     0.211 HD
ENDBRANCH  38  40
ENDBRANCH  32  38
ENDBRANCH  29  32
ENDBRANCH  27  28
BRANCH  27  42
ATOM     42  C   UNL     1      -5.322  -8.050   8.378  1.00  0.00     0.015 C 
ATOM     43  C   UNL     1      -4.083  -8.952   8.318  1.00  0.00     0.010 C 
ATOM     44  C   UNL     1      -5.298  -7.199   9.652  1.00  0.00     0.010 C 
ENDBRANCH  27  42
ENDBRANCH   3  27
TORSDOF 5
ENDMDL
