MODEL 1
REMARK VINA RESULT:    -6.271      0.000      0.000
REMARK INTER + INTRA:         -24.646
REMARK INTER:                 -18.002
REMARK INTRA:                  -6.644
REMARK UNBOUND:                -6.644
REMARK SMILES CCCCCC(=O)N[C@H](CC(=O)O)C(=O)N[C@H]1C(=O)N[C@H](CCCN=C(N)N)C(=O)N[C@@H]2CC[C@H](O)N(C2=O)[C@@H](CC(C)C)C(=O)N(C)[C@@H](Cc2ccccc2)C(=O)N[C@H](C(C)C)C(=O)O[C@@H]1C
REMARK SMILES IDX 30 1 31 2 29 3 32 5 35 6 37 7 34 8 38 9 33 10 39 11 36 12
REMARK SMILES IDX 40 14 41 15 42 16 43 17 44 18 45 19 46 20 47 21 48 22 49 23
REMARK SMILES IDX 50 24 51 25 52 26 56 27 53 28 55 29 54 30 57 31 58 32 59 33
REMARK SMILES IDX 60 35 61 36 62 37 63 38 64 39 65 40 66 41 67 42 68 43 21 45
REMARK SMILES IDX 20 46 18 47 19 48 17 50 16 52 14 53 15 54 9 56 8 57 6 58
REMARK SMILES IDX 7 59 5 61 4 62 3 63 2 64 1 65 10 66 11 67 12 68 13 69 22 71
REMARK SMILES IDX 23 72 24 73 25 74 26 75 27 76 28 77
REMARK H PARENT 31 4 36 13 59 34 20 49 16 55 8 60 13 70 27 78 27 79 28 80
REMARK H PARENT 28 81
REMARK Flexibility Score:  259.900
ROOT
ATOM      1  O   UNL     1      -1.281   3.304   8.864  1.00  0.00    -0.273 OA
ATOM      2  N   UNL     1      -2.236   4.766   7.386  1.00  0.00    -0.343 N 
ATOM      3  C   UNL     1      -2.003   3.503   7.886  1.00  0.00     0.243 C 
ATOM      4  H   UNL     1      -2.847   4.892   6.589  1.00  0.00     0.164 HD
ENDROOT
BRANCH   2   5
ATOM      5  C   UNL     1      -1.532   5.921   7.931  1.00  0.00     0.171 C 
ATOM      6  C   UNL     1      -1.151   8.627   6.961  1.00  0.00     0.214 C 
ATOM      7  N   UNL     1      -0.182   7.609   6.626  1.00  0.00    -0.303 N 
ATOM      8  C   UNL     1      -1.834   8.391   8.299  1.00  0.00     0.057 C 
ATOM      9  C   UNL     1      -0.330   6.287   7.013  1.00  0.00     0.247 C 
ATOM     10  C   UNL     1      -2.509   7.037   8.297  1.00  0.00     0.040 C 
ATOM     11  O   UNL     1       0.459   5.405   6.650  1.00  0.00    -0.272 OA
BRANCH   6  12
ATOM     12  O   UNL     1      -2.103   8.672   5.923  1.00  0.00    -0.373 OA
ATOM     13  H   UNL     1      -2.452   7.762   5.813  1.00  0.00     0.213 HD
ENDBRANCH   6  12
BRANCH   7  14
ATOM     14  C   UNL     1       0.916   8.002   5.717  1.00  0.00     0.177 C 
BRANCH  14  15
ATOM     15  C   UNL     1       0.475   8.438   4.306  1.00  0.00     0.038 C 
BRANCH  15  16
ATOM     16  C   UNL     1       0.768   7.519   3.099  1.00  0.00    -0.015 C 
ATOM     17  C   UNL     1       0.343   8.148   1.769  1.00  0.00     0.007 C 
ATOM     18  C   UNL     1       0.019   6.191   3.264  1.00  0.00     0.007 C 
ENDBRANCH  15  16
ENDBRANCH  14  15
BRANCH  14  19
ATOM     19  C   UNL     1       2.098   8.630   6.532  1.00  0.00     0.245 C 
ATOM     20  O   UNL     1       2.063   9.858   6.713  1.00  0.00    -0.272 OA
BRANCH  19  21
ATOM     21  N   UNL     1       3.208   7.918   6.952  1.00  0.00    -0.332 N 
ATOM     22  C   UNL     1       3.559   6.575   6.528  1.00  0.00     0.147 C 
BRANCH  21  23
ATOM     23  C   UNL     1       4.122   8.570   7.931  1.00  0.00     0.178 C 
BRANCH  23  24
ATOM     24  C   UNL     1       4.393   7.748   9.207  1.00  0.00     0.070 C 
BRANCH  24  25
ATOM     25  C   UNL     1       3.656   8.159  10.460  1.00  0.00    -0.045 A 
ATOM     26  C   UNL     1       4.300   8.161  11.704  1.00  0.00     0.004 A 
ATOM     27  C   UNL     1       2.307   8.542  10.394  1.00  0.00     0.004 A 
ATOM     28  C   UNL     1       3.606   8.527  12.860  1.00  0.00     0.000 A 
ATOM     29  C   UNL     1       1.616   8.908  11.550  1.00  0.00     0.000 A 
ATOM     30  C   UNL     1       2.265   8.897  12.783  1.00  0.00     0.000 A 
ENDBRANCH  24  25
ENDBRANCH  23  24
BRANCH  23  31
ATOM     31  C   UNL     1       5.382   9.178   7.268  1.00  0.00     0.243 C 
ATOM     32  O   UNL     1       5.543   9.268   6.054  1.00  0.00    -0.273 OA
ATOM     33  N   UNL     1       6.403   9.447   8.164  1.00  0.00    -0.341 N 
ATOM     34  H   UNL     1       6.210   9.347   9.163  1.00  0.00     0.164 HD
BRANCH  33  35
ATOM     35  C   UNL     1       7.728   9.915   7.747  1.00  0.00     0.194 C 
BRANCH  35  36
ATOM     36  C   UNL     1       8.799   8.791   7.659  1.00  0.00     0.017 C 
ATOM     37  C   UNL     1       9.470   8.766   6.275  1.00  0.00     0.010 C 
ATOM     38  C   UNL     1       8.229   7.391   7.918  1.00  0.00     0.010 C 
ENDBRANCH  35  36
BRANCH  35  39
ATOM     39  C   UNL     1       8.225  11.126   8.586  1.00  0.00     0.329 C 
ATOM     40  O   UNL     1       8.093  11.220   9.800  1.00  0.00    -0.250 OA
BRANCH  39  41
ATOM     41  O   UNL     1       8.904  12.039   7.828  1.00  0.00    -0.458 OA
BRANCH  41  42
ATOM     42  C   UNL     1       9.367  13.225   8.515  1.00  0.00     0.205 CG0
ATOM     43  C   UNL     1       8.515  14.395   8.026  1.00  0.00     0.056 C 
ATOM     44  G   UNL     1      10.865  13.419   8.209  1.00  0.00     0.000 G0
ENDBRANCH  41  42
ENDBRANCH  39  41
ENDBRANCH  35  39
ENDBRANCH  33  35
ENDBRANCH  23  31
ENDBRANCH  21  23
ENDBRANCH  19  21
ENDBRANCH  14  19
ENDBRANCH   7  14
ENDBRANCH   2   5
BRANCH   3  45
ATOM     45  C   UNL     1      -2.723   2.363   7.153  1.00  0.00     0.171 C 
BRANCH  45  46
ATOM     46  N   UNL     1      -4.144   2.673   7.242  1.00  0.00    -0.342 N 
ATOM     47  C   UNL     1      -4.917   2.910   6.134  1.00  0.00     0.247 C 
ATOM     48  O   UNL     1      -4.486   2.808   4.984  1.00  0.00    -0.273 OA
ATOM     49  H   UNL     1      -4.554   2.712   8.174  1.00  0.00     0.164 HD
BRANCH  47  50
ATOM     50  C   UNL     1      -6.360   3.343   6.428  1.00  0.00     0.212 CG0
ATOM     51  G   UNL     1      -7.287   2.172   6.045  1.00  0.00     0.000 G0
BRANCH  50  52
ATOM     52  N   UNL     1      -6.389   3.659   7.854  1.00  0.00    -0.339 N 
ATOM     53  C   UNL     1      -7.348   4.455   8.432  1.00  0.00     0.243 C 
ATOM     54  O   UNL     1      -8.230   5.008   7.781  1.00  0.00    -0.273 OA
ATOM     55  H   UNL     1      -5.620   3.321   8.429  1.00  0.00     0.164 HD
BRANCH  53  56
ATOM     56  C   UNL     1      -7.123   4.717   9.935  1.00  0.00     0.182 C 
BRANCH  56  57
ATOM     57  N   UNL     1      -6.006   5.644  10.146  1.00  0.00    -0.344 N 
ATOM     58  C   UNL     1      -6.153   6.832  10.819  1.00  0.00     0.220 C 
ATOM     59  O   UNL     1      -7.238   7.235  11.226  1.00  0.00    -0.275 OA
ATOM     60  H   UNL     1      -5.076   5.304   9.916  1.00  0.00     0.164 HD
BRANCH  58  61
ATOM     61  C   UNL     1      -4.854   7.602  10.970  1.00  0.00     0.100 C 
BRANCH  61  62
ATOM     62  C   UNL     1      -4.772   8.425  12.256  1.00  0.00     0.010 C 
BRANCH  62  63
ATOM     63  C   UNL     1      -3.361   8.521  12.851  1.00  0.00     0.000 C 
BRANCH  63  64
ATOM     64  C   UNL     1      -2.353   9.246  11.960  1.00  0.00    -0.003 C 
ATOM     65  C   UNL     1      -1.772  10.467  12.659  1.00  0.00     0.004 C 
ENDBRANCH  63  64
ENDBRANCH  62  63
ENDBRANCH  61  62
ENDBRANCH  58  61
ENDBRANCH  56  57
BRANCH  56  66
ATOM     66  C   UNL     1      -6.944   3.413  10.710  1.00  0.00     0.157 C 
BRANCH  66  67
ATOM     67  C   UNL     1      -5.499   3.168  11.037  1.00  0.00     0.305 C 
ATOM     68  O   UNL     1      -4.540   3.362  10.306  1.00  0.00    -0.252 OA
BRANCH  67  69
ATOM     69  O   UNL     1      -5.327   2.734  12.300  1.00  0.00    -0.481 OA
ATOM     70  H   UNL     1      -4.624   3.310  12.668  1.00  0.00     0.296 HD
ENDBRANCH  67  69
ENDBRANCH  66  67
ENDBRANCH  56  66
ENDBRANCH  53  56
ENDBRANCH  50  52
ENDBRANCH  47  50
ENDBRANCH  45  46
BRANCH  45  71
ATOM     71  C   UNL     1      -2.396   1.016   7.808  1.00  0.00     0.037 C 
BRANCH  71  72
ATOM     72  C   UNL     1      -3.356   0.684   8.953  1.00  0.00     0.026 C 
BRANCH  72  73
ATOM     73  C   UNL     1      -2.664  -0.125  10.048  1.00  0.00     0.146 C 
BRANCH  73  74
ATOM     74  N   UNL     1      -3.087   0.415  11.337  1.00  0.00    -0.254 NA
ATOM     75  C   UNL     1      -2.311   1.253  11.918  1.00  0.00     0.185 C 
ATOM     76  N   UNL     1      -2.672   1.768  13.104  1.00  0.00    -0.370 N 
ATOM     77  N   UNL     1      -1.123   1.730  11.508  1.00  0.00    -0.370 N 
ATOM     78  H   UNL     1      -3.552   1.456  13.489  1.00  0.00     0.159 HD
ATOM     79  H   UNL     1      -2.057   2.313  13.682  1.00  0.00     0.159 HD
ATOM     80  H   UNL     1      -0.726   1.434  10.629  1.00  0.00     0.159 HD
ATOM     81  H   UNL     1      -0.656   2.477  11.996  1.00  0.00     0.159 HD
ENDBRANCH  73  74
ENDBRANCH  72  73
ENDBRANCH  71  72
ENDBRANCH  45  71
ENDBRANCH   3  45
TORSDOF 20
ENDMDL
MODEL 2
REMARK VINA RESULT:    -5.975      2.379      5.266
REMARK INTER + INTRA:         -23.796
REMARK INTER:                 -17.674
REMARK INTRA:                  -6.123
REMARK UNBOUND:                -6.644
REMARK SMILES CCCCCC(=O)N[C@H](CC(=O)O)C(=O)N[C@H]1C(=O)N[C@H](CCCN=C(N)N)C(=O)N[C@@H]2CC[C@H](O)N(C2=O)[C@@H](CC(C)C)C(=O)N(C)[C@@H](Cc2ccccc2)C(=O)N[C@H](C(C)C)C(=O)O[C@@H]1C
REMARK SMILES IDX 30 1 31 2 29 3 32 5 35 6 37 7 34 8 38 9 33 10 39 11 36 12
REMARK SMILES IDX 40 14 41 15 42 16 43 17 44 18 45 19 46 20 47 21 48 22 49 23
REMARK SMILES IDX 50 24 51 25 52 26 56 27 53 28 55 29 54 30 57 31 58 32 59 33
REMARK SMILES IDX 60 35 61 36 62 37 63 38 64 39 65 40 66 41 67 42 68 43 21 45
REMARK SMILES IDX 20 46 18 47 19 48 17 50 16 52 14 53 15 54 9 56 8 57 6 58
REMARK SMILES IDX 7 59 5 61 4 62 3 63 2 64 1 65 10 66 11 67 12 68 13 69 22 71
REMARK SMILES IDX 23 72 24 73 25 74 26 75 27 76 28 77
REMARK H PARENT 31 4 36 13 59 34 20 49 16 55 8 60 13 70 27 78 27 79 28 80
REMARK H PARENT 28 81
REMARK Flexibility Score:  259.900
ROOT
ATOM      1  O   UNL     1      -3.125   8.516  11.240  1.00  0.00    -0.273 OA
ATOM      2  N   UNL     1      -2.836   8.371   8.975  1.00  0.00    -0.343 N 
ATOM      3  C   UNL     1      -3.584   8.253  10.128  1.00  0.00     0.243 C 
ATOM      4  H   UNL     1      -3.252   8.161   8.076  1.00  0.00     0.164 HD
ENDROOT
BRANCH   2   5
ATOM      5  C   UNL     1      -1.417   8.703   9.042  1.00  0.00     0.171 C 
ATOM      6  C   UNL     1       0.430   9.826   7.110  1.00  0.00     0.214 C 
ATOM      7  N   UNL     1       0.284   8.392   7.203  1.00  0.00    -0.303 N 
ATOM      8  C   UNL     1       0.184  10.543   8.428  1.00  0.00     0.057 C 
ATOM      9  C   UNL     1      -0.617   7.792   8.068  1.00  0.00     0.247 C 
ATOM     10  C   UNL     1      -1.201  10.212   8.940  1.00  0.00     0.040 C 
ATOM     11  O   UNL     1      -0.798   6.567   8.080  1.00  0.00    -0.272 OA
BRANCH   6  12
ATOM     12  O   UNL     1      -0.465  10.287   6.124  1.00  0.00    -0.373 OA
ATOM     13  H   UNL     1      -0.538  11.259   6.234  1.00  0.00     0.213 HD
ENDBRANCH   6  12
BRANCH   7  14
ATOM     14  C   UNL     1       1.036   7.577   6.225  1.00  0.00     0.177 C 
BRANCH  14  15
ATOM     15  C   UNL     1       0.691   7.842   4.747  1.00  0.00     0.038 C 
BRANCH  15  16
ATOM     16  C   UNL     1       0.422   6.650   3.802  1.00  0.00    -0.015 C 
ATOM     17  C   UNL     1      -0.356   7.061   2.549  1.00  0.00     0.007 C 
ATOM     18  C   UNL     1      -0.389   5.577   4.540  1.00  0.00     0.007 C 
ENDBRANCH  15  16
ENDBRANCH  14  15
BRANCH  14  19
ATOM     19  C   UNL     1       2.465   7.246   6.778  1.00  0.00     0.245 C 
ATOM     20  O   UNL     1       2.934   6.134   6.485  1.00  0.00    -0.272 OA
BRANCH  19  21
ATOM     21  N   UNL     1       3.164   8.065   7.647  1.00  0.00    -0.332 N 
ATOM     22  C   UNL     1       3.210   7.917   9.091  1.00  0.00     0.147 C 
BRANCH  21  23
ATOM     23  C   UNL     1       3.929   9.203   7.067  1.00  0.00     0.178 C 
BRANCH  23  24
ATOM     24  C   UNL     1       3.917  10.489   7.919  1.00  0.00     0.070 C 
BRANCH  24  25
ATOM     25  C   UNL     1       3.886  11.806   7.178  1.00  0.00    -0.045 A 
ATOM     26  C   UNL     1       4.992  12.665   7.194  1.00  0.00     0.004 A 
ATOM     27  C   UNL     1       2.740  12.188   6.464  1.00  0.00     0.004 A 
ATOM     28  C   UNL     1       4.948  13.887   6.520  1.00  0.00     0.000 A 
ATOM     29  C   UNL     1       2.699  13.410   5.791  1.00  0.00     0.000 A 
ATOM     30  C   UNL     1       3.802  14.260   5.822  1.00  0.00     0.000 A 
ENDBRANCH  24  25
ENDBRANCH  23  24
BRANCH  23  31
ATOM     31  C   UNL     1       5.321   8.787   6.536  1.00  0.00     0.243 C 
ATOM     32  O   UNL     1       5.500   7.925   5.679  1.00  0.00    -0.273 OA
ATOM     33  N   UNL     1       6.373   9.341   7.245  1.00  0.00    -0.341 N 
ATOM     34  H   UNL     1       6.161  10.050   7.952  1.00  0.00     0.164 HD
BRANCH  33  35
ATOM     35  C   UNL     1       7.775   8.996   6.995  1.00  0.00     0.194 C 
BRANCH  35  36
ATOM     36  C   UNL     1       8.621   8.802   8.286  1.00  0.00     0.017 C 
ATOM     37  C   UNL     1       9.240   7.395   8.341  1.00  0.00     0.010 C 
ATOM     38  C   UNL     1       7.812   8.998   9.574  1.00  0.00     0.010 C 
ENDBRANCH  35  36
BRANCH  35  39
ATOM     39  C   UNL     1       8.460   9.967   5.993  1.00  0.00     0.329 C 
ATOM     40  O   UNL     1       7.893  10.476   5.034  1.00  0.00    -0.250 OA
BRANCH  39  41
ATOM     41  O   UNL     1       9.747  10.260   6.351  1.00  0.00    -0.458 OA
BRANCH  41  42
ATOM     42  C   UNL     1      10.759  10.046   5.338  1.00  0.00     0.205 CG0
ATOM     43  C   UNL     1      11.006   8.542   5.253  1.00  0.00     0.056 C 
ATOM     44  G   UNL     1      12.026  10.830   5.734  1.00  0.00     0.000 G0
ENDBRANCH  41  42
ENDBRANCH  39  41
ENDBRANCH  35  39
ENDBRANCH  33  35
ENDBRANCH  23  31
ENDBRANCH  21  23
ENDBRANCH  19  21
ENDBRANCH  14  19
ENDBRANCH   7  14
ENDBRANCH   2   5
BRANCH   3  45
ATOM     45  C   UNL     1      -5.033   7.793   9.926  1.00  0.00     0.171 C 
BRANCH  45  46
ATOM     46  N   UNL     1      -5.193   6.613  10.767  1.00  0.00    -0.342 N 
ATOM     47  C   UNL     1      -6.199   6.499  11.692  1.00  0.00     0.247 C 
ATOM     48  O   UNL     1      -7.081   7.348  11.829  1.00  0.00    -0.273 OA
ATOM     49  H   UNL     1      -4.517   5.861  10.646  1.00  0.00     0.164 HD
BRANCH  47  50
ATOM     50  C   UNL     1      -6.134   5.242  12.571  1.00  0.00     0.212 CG0
ATOM     51  G   UNL     1      -7.476   4.497  12.421  1.00  0.00     0.000 G0
BRANCH  50  52
ATOM     52  N   UNL     1      -4.992   4.479  12.077  1.00  0.00    -0.339 N 
ATOM     53  C   UNL     1      -5.083   3.181  11.638  1.00  0.00     0.243 C 
ATOM     54  O   UNL     1      -6.130   2.540  11.679  1.00  0.00    -0.273 OA
ATOM     55  H   UNL     1      -4.074   4.919  12.122  1.00  0.00     0.164 HD
BRANCH  53  56
ATOM     56  C   UNL     1      -3.730   2.555  11.245  1.00  0.00     0.182 C 
BRANCH  56  57
ATOM     57  N   UNL     1      -3.846   1.788  10.000  1.00  0.00    -0.344 N 
ATOM     58  C   UNL     1      -3.073   2.056   8.896  1.00  0.00     0.220 C 
ATOM     59  O   UNL     1      -2.287   2.995   8.849  1.00  0.00    -0.275 OA
ATOM     60  H   UNL     1      -4.409   0.942  10.031  1.00  0.00     0.164 HD
BRANCH  58  61
ATOM     61  C   UNL     1      -3.321   1.101   7.743  1.00  0.00     0.100 C 
BRANCH  61  62
ATOM     62  C   UNL     1      -4.342   1.614   6.727  1.00  0.00     0.010 C 
BRANCH  62  63
ATOM     63  C   UNL     1      -3.731   2.431   5.582  1.00  0.00     0.000 C 
BRANCH  63  64
ATOM     64  C   UNL     1      -4.447   3.752   5.303  1.00  0.00    -0.003 C 
ATOM     65  C   UNL     1      -3.802   4.903   6.062  1.00  0.00     0.004 C 
ENDBRANCH  63  64
ENDBRANCH  62  63
ENDBRANCH  61  62
ENDBRANCH  58  61
ENDBRANCH  56  57
BRANCH  56  66
ATOM     66  C   UNL     1      -3.147   1.719  12.383  1.00  0.00     0.157 C 
BRANCH  66  67
ATOM     67  C   UNL     1      -1.796   1.173  12.021  1.00  0.00     0.305 C 
ATOM     68  O   UNL     1      -0.731   1.770  12.054  1.00  0.00    -0.252 OA
BRANCH  67  69
ATOM     69  O   UNL     1      -1.845  -0.129  11.679  1.00  0.00    -0.481 OA
ATOM     70  H   UNL     1      -1.354  -0.593  12.389  1.00  0.00     0.296 HD
ENDBRANCH  67  69
ENDBRANCH  66  67
ENDBRANCH  56  66
ENDBRANCH  53  56
ENDBRANCH  50  52
ENDBRANCH  47  50
ENDBRANCH  45  46
BRANCH  45  71
ATOM     71  C   UNL     1      -5.292   7.474   8.449  1.00  0.00     0.037 C 
BRANCH  71  72
ATOM     72  C   UNL     1      -6.663   7.971   7.984  1.00  0.00     0.026 C 
BRANCH  72  73
ATOM     73  C   UNL     1      -7.562   6.814   7.554  1.00  0.00     0.146 C 
BRANCH  73  74
ATOM     74  N   UNL     1      -7.823   5.989   8.730  1.00  0.00    -0.254 NA
ATOM     75  C   UNL     1      -7.626   4.726   8.632  1.00  0.00     0.185 C 
ATOM     76  N   UNL     1      -7.856   3.942   9.697  1.00  0.00    -0.370 N 
ATOM     77  N   UNL     1      -7.201   4.018   7.571  1.00  0.00    -0.370 N 
ATOM     78  H   UNL     1      -8.186   4.396  10.537  1.00  0.00     0.159 HD
ATOM     79  H   UNL     1      -7.864   2.938   9.654  1.00  0.00     0.159 HD
ATOM     80  H   UNL     1      -6.985   4.477   6.700  1.00  0.00     0.159 HD
ATOM     81  H   UNL     1      -6.973   3.040   7.647  1.00  0.00     0.159 HD
ENDBRANCH  73  74
ENDBRANCH  72  73
ENDBRANCH  71  72
ENDBRANCH  45  71
ENDBRANCH   3  45
TORSDOF 20
ENDMDL
MODEL 3
REMARK VINA RESULT:    -5.778      2.032      2.658
REMARK INTER + INTRA:         -23.232
REMARK INTER:                 -15.992
REMARK INTRA:                  -7.239
REMARK UNBOUND:                -6.644
REMARK SMILES CCCCCC(=O)N[C@H](CC(=O)O)C(=O)N[C@H]1C(=O)N[C@H](CCCN=C(N)N)C(=O)N[C@@H]2CC[C@H](O)N(C2=O)[C@@H](CC(C)C)C(=O)N(C)[C@@H](Cc2ccccc2)C(=O)N[C@H](C(C)C)C(=O)O[C@@H]1C
REMARK SMILES IDX 30 1 31 2 29 3 32 5 35 6 37 7 34 8 38 9 33 10 39 11 36 12
REMARK SMILES IDX 40 14 41 15 42 16 43 17 44 18 45 19 46 20 47 21 48 22 49 23
REMARK SMILES IDX 50 24 51 25 52 26 56 27 53 28 55 29 54 30 57 31 58 32 59 33
REMARK SMILES IDX 60 35 61 36 62 37 63 38 64 39 65 40 66 41 67 42 68 43 21 45
REMARK SMILES IDX 20 46 18 47 19 48 17 50 16 52 14 53 15 54 9 56 8 57 6 58
REMARK SMILES IDX 7 59 5 61 4 62 3 63 2 64 1 65 10 66 11 67 12 68 13 69 22 71
REMARK SMILES IDX 23 72 24 73 25 74 26 75 27 76 28 77
REMARK H PARENT 31 4 36 13 59 34 20 49 16 55 8 60 13 70 27 78 27 79 28 80
REMARK H PARENT 28 81
REMARK Flexibility Score:  259.900
ROOT
ATOM      1  O   UNL     1      -3.518   5.242   8.876  1.00  0.00    -0.273 OA
ATOM      2  N   UNL     1      -1.861   5.676   7.360  1.00  0.00    -0.343 N 
ATOM      3  C   UNL     1      -2.827   4.872   7.926  1.00  0.00     0.243 C 
ATOM      4  H   UNL     1      -1.322   5.343   6.570  1.00  0.00     0.164 HD
ENDROOT
BRANCH   2   5
ATOM      5  C   UNL     1      -1.534   6.970   7.948  1.00  0.00     0.171 C 
ATOM      6  C   UNL     1      -0.104   9.281   6.939  1.00  0.00     0.214 C 
ATOM      7  N   UNL     1       0.620   8.253   7.649  1.00  0.00    -0.303 N 
ATOM      8  C   UNL     1      -1.549   9.422   7.391  1.00  0.00     0.057 C 
ATOM      9  C   UNL     1       0.008   7.100   8.113  1.00  0.00     0.247 C 
ATOM     10  C   UNL     1      -2.268   8.100   7.229  1.00  0.00     0.040 C 
ATOM     11  O   UNL     1       0.650   6.184   8.644  1.00  0.00    -0.272 OA
BRANCH   6  12
ATOM     12  O   UNL     1      -0.046   8.977   5.565  1.00  0.00    -0.373 OA
ATOM     13  H   UNL     1      -0.613   8.190   5.420  1.00  0.00     0.213 HD
ENDBRANCH   6  12
BRANCH   7  14
ATOM     14  C   UNL     1       2.087   8.406   7.739  1.00  0.00     0.177 C 
BRANCH  14  15
ATOM     15  C   UNL     1       2.784   8.829   6.431  1.00  0.00     0.038 C 
BRANCH  15  16
ATOM     16  C   UNL     1       4.285   8.519   6.234  1.00  0.00    -0.015 C 
ATOM     17  C   UNL     1       4.651   7.100   6.676  1.00  0.00     0.007 C 
ATOM     18  C   UNL     1       5.130   9.509   7.046  1.00  0.00     0.007 C 
ENDBRANCH  15  16
ENDBRANCH  14  15
BRANCH  14  19
ATOM     19  C   UNL     1       2.498   8.874   9.178  1.00  0.00     0.245 C 
ATOM     20  O   UNL     1       2.078   9.984   9.546  1.00  0.00    -0.272 OA
BRANCH  19  21
ATOM     21  N   UNL     1       3.375   8.181   9.993  1.00  0.00    -0.332 N 
ATOM     22  C   UNL     1       3.770   6.795   9.820  1.00  0.00     0.147 C 
BRANCH  21  23
ATOM     23  C   UNL     1       3.962   8.903  11.156  1.00  0.00     0.178 C 
BRANCH  23  24
ATOM     24  C   UNL     1       4.262   8.016  12.382  1.00  0.00     0.070 C 
BRANCH  24  25
ATOM     25  C   UNL     1       3.708   8.471  13.712  1.00  0.00    -0.045 A 
ATOM     26  C   UNL     1       4.001   7.770  14.889  1.00  0.00     0.004 A 
ATOM     27  C   UNL     1       2.884   9.604  13.785  1.00  0.00     0.004 A 
ATOM     28  C   UNL     1       3.470   8.187  16.112  1.00  0.00     0.000 A 
ATOM     29  C   UNL     1       2.356  10.020  15.009  1.00  0.00     0.000 A 
ATOM     30  C   UNL     1       2.648   9.309  16.171  1.00  0.00     0.000 A 
ENDBRANCH  24  25
ENDBRANCH  23  24
BRANCH  23  31
ATOM     31  C   UNL     1       5.104   9.867  10.754  1.00  0.00     0.243 C 
ATOM     32  O   UNL     1       4.935  11.048  10.464  1.00  0.00    -0.273 OA
ATOM     33  N   UNL     1       6.322   9.234  10.569  1.00  0.00    -0.341 N 
ATOM     34  H   UNL     1       6.399   8.246  10.822  1.00  0.00     0.164 HD
BRANCH  33  35
ATOM     35  C   UNL     1       7.514   9.927  10.073  1.00  0.00     0.194 C 
BRANCH  35  36
ATOM     36  C   UNL     1       8.392   9.074   9.114  1.00  0.00     0.017 C 
ATOM     37  C   UNL     1       8.754   9.859   7.841  1.00  0.00     0.010 C 
ATOM     38  C   UNL     1       7.714   7.772   8.673  1.00  0.00     0.010 C 
ENDBRANCH  35  36
BRANCH  35  39
ATOM     39  C   UNL     1       8.354  10.564  11.216  1.00  0.00     0.329 C 
ATOM     40  O   UNL     1       7.940  11.442  11.964  1.00  0.00    -0.250 OA
BRANCH  39  41
ATOM     41  O   UNL     1       9.580   9.973  11.351  1.00  0.00    -0.458 OA
BRANCH  41  42
ATOM     42  C   UNL     1      10.693  10.860  11.614  1.00  0.00     0.205 CG0
ATOM     43  C   UNL     1      11.267  11.280  10.262  1.00  0.00     0.056 C 
ATOM     44  G   UNL     1      11.722  10.113  12.485  1.00  0.00     0.000 G0
ENDBRANCH  41  42
ENDBRANCH  39  41
ENDBRANCH  35  39
ENDBRANCH  33  35
ENDBRANCH  23  31
ENDBRANCH  21  23
ENDBRANCH  19  21
ENDBRANCH  14  19
ENDBRANCH   7  14
ENDBRANCH   2   5
BRANCH   3  45
ATOM     45  C   UNL     1      -2.997   3.492   7.277  1.00  0.00     0.171 C 
BRANCH  45  46
ATOM     46  N   UNL     1      -4.430   3.229   7.281  1.00  0.00    -0.342 N 
ATOM     47  C   UNL     1      -5.230   3.497   6.199  1.00  0.00     0.247 C 
ATOM     48  O   UNL     1      -4.788   3.910   5.126  1.00  0.00    -0.273 OA
ATOM     49  H   UNL     1      -4.829   2.834   8.130  1.00  0.00     0.164 HD
BRANCH  47  50
ATOM     50  C   UNL     1      -6.732   3.272   6.429  1.00  0.00     0.212 CG0
ATOM     51  G   UNL     1      -7.033   1.790   6.133  1.00  0.00     0.000 G0
BRANCH  50  52
ATOM     52  N   UNL     1      -6.972   3.643   7.821  1.00  0.00    -0.339 N 
ATOM     53  C   UNL     1      -7.331   4.909   8.215  1.00  0.00     0.243 C 
ATOM     54  O   UNL     1      -7.425   5.846   7.427  1.00  0.00    -0.273 OA
ATOM     55  H   UNL     1      -6.801   2.937   8.535  1.00  0.00     0.164 HD
BRANCH  53  56
ATOM     56  C   UNL     1      -7.444   5.082   9.743  1.00  0.00     0.182 C 
BRANCH  56  57
ATOM     57  N   UNL     1      -6.335   5.886  10.266  1.00  0.00    -0.344 N 
ATOM     58  C   UNL     1      -6.537   7.028  11.002  1.00  0.00     0.220 C 
ATOM     59  O   UNL     1      -7.651   7.495  11.211  1.00  0.00    -0.275 OA
ATOM     60  H   UNL     1      -5.404   5.482  10.204  1.00  0.00     0.164 HD
BRANCH  58  61
ATOM     61  C   UNL     1      -5.248   7.665  11.489  1.00  0.00     0.100 C 
BRANCH  61  62
ATOM     62  C   UNL     1      -4.438   8.341  10.383  1.00  0.00     0.010 C 
BRANCH  62  63
ATOM     63  C   UNL     1      -4.723   9.840  10.222  1.00  0.00     0.000 C 
BRANCH  63  64
ATOM     64  C   UNL     1      -3.473  10.718  10.211  1.00  0.00    -0.003 C 
ATOM     65  C   UNL     1      -2.340  10.080  11.001  1.00  0.00     0.004 C 
ENDBRANCH  63  64
ENDBRANCH  62  63
ENDBRANCH  61  62
ENDBRANCH  58  61
ENDBRANCH  56  57
BRANCH  56  66
ATOM     66  C   UNL     1      -7.564   3.734  10.452  1.00  0.00     0.157 C 
BRANCH  66  67
ATOM     67  C   UNL     1      -6.293   3.383  11.171  1.00  0.00     0.305 C 
ATOM     68  O   UNL     1      -6.141   3.273  12.378  1.00  0.00    -0.252 OA
BRANCH  67  69
ATOM     69  O   UNL     1      -5.278   3.135  10.323  1.00  0.00    -0.481 OA
ATOM     70  H   UNL     1      -4.474   3.146  10.884  1.00  0.00     0.296 HD
ENDBRANCH  67  69
ENDBRANCH  66  67
ENDBRANCH  56  66
ENDBRANCH  53  56
ENDBRANCH  50  52
ENDBRANCH  47  50
ENDBRANCH  45  46
BRANCH  45  71
ATOM     71  C   UNL     1      -2.225   2.431   8.069  1.00  0.00     0.037 C 
BRANCH  71  72
ATOM     72  C   UNL     1      -3.067   1.178   8.326  1.00  0.00     0.026 C 
BRANCH  72  73
ATOM     73  C   UNL     1      -2.646   0.474   9.614  1.00  0.00     0.146 C 
BRANCH  73  74
ATOM     74  N   UNL     1      -3.379   1.086  10.718  1.00  0.00    -0.254 NA
ATOM     75  C   UNL     1      -2.709   1.475  11.739  1.00  0.00     0.185 C 
ATOM     76  N   UNL     1      -3.354   2.043  12.770  1.00  0.00    -0.370 N 
ATOM     77  N   UNL     1      -1.384   1.403  11.958  1.00  0.00    -0.370 N 
ATOM     78  H   UNL     1      -4.358   2.130  12.690  1.00  0.00     0.159 HD
ATOM     79  H   UNL     1      -2.921   2.238  13.655  1.00  0.00     0.159 HD
ATOM     80  H   UNL     1      -0.770   1.002  11.265  1.00  0.00     0.159 HD
ATOM     81  H   UNL     1      -0.955   1.848  12.752  1.00  0.00     0.159 HD
ENDBRANCH  73  74
ENDBRANCH  72  73
ENDBRANCH  71  72
ENDBRANCH  45  71
ENDBRANCH   3  45
TORSDOF 20
ENDMDL
MODEL 4
REMARK VINA RESULT:    -5.605      2.517      3.626
REMARK INTER + INTRA:         -22.735
REMARK INTER:                 -16.005
REMARK INTRA:                  -6.730
REMARK UNBOUND:                -6.644
REMARK SMILES CCCCCC(=O)N[C@H](CC(=O)O)C(=O)N[C@H]1C(=O)N[C@H](CCCN=C(N)N)C(=O)N[C@@H]2CC[C@H](O)N(C2=O)[C@@H](CC(C)C)C(=O)N(C)[C@@H](Cc2ccccc2)C(=O)N[C@H](C(C)C)C(=O)O[C@@H]1C
REMARK SMILES IDX 30 1 31 2 29 3 32 5 35 6 37 7 34 8 38 9 33 10 39 11 36 12
REMARK SMILES IDX 40 14 41 15 42 16 43 17 44 18 45 19 46 20 47 21 48 22 49 23
REMARK SMILES IDX 50 24 51 25 52 26 56 27 53 28 55 29 54 30 57 31 58 32 59 33
REMARK SMILES IDX 60 35 61 36 62 37 63 38 64 39 65 40 66 41 67 42 68 43 21 45
REMARK SMILES IDX 20 46 18 47 19 48 17 50 16 52 14 53 15 54 9 56 8 57 6 58
REMARK SMILES IDX 7 59 5 61 4 62 3 63 2 64 1 65 10 66 11 67 12 68 13 69 22 71
REMARK SMILES IDX 23 72 24 73 25 74 26 75 27 76 28 77
REMARK H PARENT 31 4 36 13 59 34 20 49 16 55 8 60 13 70 27 78 27 79 28 80
REMARK H PARENT 28 81
REMARK Flexibility Score:  259.900
ROOT
ATOM      1  O   UNL     1      -2.960   4.867   8.681  1.00  0.00    -0.273 OA
ATOM      2  N   UNL     1      -0.854   4.949   7.792  1.00  0.00    -0.343 N 
ATOM      3  C   UNL     1      -1.961   4.279   8.266  1.00  0.00     0.243 C 
ATOM      4  H   UNL     1      -0.056   4.432   7.445  1.00  0.00     0.164 HD
ENDROOT
BRANCH   2   5
ATOM      5  C   UNL     1      -0.776   6.404   7.875  1.00  0.00     0.171 C 
ATOM      6  C   UNL     1       0.554   8.395   6.241  1.00  0.00     0.214 C 
ATOM      7  N   UNL     1       1.247   7.828   7.374  1.00  0.00    -0.303 N 
ATOM      8  C   UNL     1      -0.954   8.450   6.424  1.00  0.00     0.057 C 
ATOM      9  C   UNL     1       0.690   6.837   8.166  1.00  0.00     0.247 C 
ATOM     10  C   UNL     1      -1.488   7.060   6.693  1.00  0.00     0.040 C 
ATOM     11  O   UNL     1       1.323   6.295   9.081  1.00  0.00    -0.272 OA
BRANCH   6  12
ATOM     12  O   UNL     1       0.885   7.629   5.106  1.00  0.00    -0.373 OA
ATOM     13  H   UNL     1       0.503   8.088   4.328  1.00  0.00     0.213 HD
ENDBRANCH   6  12
BRANCH   7  14
ATOM     14  C   UNL     1       2.651   8.244   7.578  1.00  0.00     0.177 C 
BRANCH  14  15
ATOM     15  C   UNL     1       3.473   8.435   6.288  1.00  0.00     0.038 C 
BRANCH  15  16
ATOM     16  C   UNL     1       5.015   8.487   6.369  1.00  0.00    -0.015 C 
ATOM     17  C   UNL     1       5.608   7.236   7.023  1.00  0.00     0.007 C 
ATOM     18  C   UNL     1       5.450   9.710   7.186  1.00  0.00     0.007 C 
ENDBRANCH  15  16
ENDBRANCH  14  15
BRANCH  14  19
ATOM     19  C   UNL     1       2.776   9.121   8.871  1.00  0.00     0.245 C 
ATOM     20  O   UNL     1       2.287  10.262   8.823  1.00  0.00    -0.272 OA
BRANCH  19  21
ATOM     21  N   UNL     1       3.486   8.740   9.996  1.00  0.00    -0.332 N 
ATOM     22  C   UNL     1       4.276   7.528  10.123  1.00  0.00     0.147 C 
BRANCH  21  23
ATOM     23  C   UNL     1       3.434   9.632  11.187  1.00  0.00     0.178 C 
BRANCH  23  24
ATOM     24  C   UNL     1       3.259   8.901  12.534  1.00  0.00     0.070 C 
BRANCH  24  25
ATOM     25  C   UNL     1       2.352   9.547  13.555  1.00  0.00    -0.045 A 
ATOM     26  C   UNL     1       1.166  10.180  13.163  1.00  0.00     0.004 A 
ATOM     27  C   UNL     1       2.691   9.527  14.917  1.00  0.00     0.004 A 
ATOM     28  C   UNL     1       0.341  10.790  14.111  1.00  0.00     0.000 A 
ATOM     29  C   UNL     1       1.866  10.136  15.863  1.00  0.00     0.000 A 
ATOM     30  C   UNL     1       0.693  10.770  15.459  1.00  0.00     0.000 A 
ENDBRANCH  24  25
ENDBRANCH  23  24
BRANCH  23  31
ATOM     31  C   UNL     1       4.534  10.720  11.175  1.00  0.00     0.243 C 
ATOM     32  O   UNL     1       4.419  11.806  10.613  1.00  0.00    -0.273 OA
ATOM     33  N   UNL     1       5.742  10.291  11.698  1.00  0.00    -0.341 N 
ATOM     34  H   UNL     1       5.778   9.373  12.148  1.00  0.00     0.164 HD
BRANCH  33  35
ATOM     35  C   UNL     1       6.956  11.112  11.681  1.00  0.00     0.194 C 
BRANCH  35  36
ATOM     36  C   UNL     1       7.981  10.707  10.584  1.00  0.00     0.017 C 
ATOM     37  C   UNL     1       7.902  11.649   9.370  1.00  0.00     0.010 C 
ATOM     38  C   UNL     1       7.781   9.277  10.069  1.00  0.00     0.010 C 
ENDBRANCH  35  36
BRANCH  35  39
ATOM     39  C   UNL     1       7.620  11.225  13.082  1.00  0.00     0.329 C 
ATOM     40  O   UNL     1       7.491  10.394  13.972  1.00  0.00    -0.250 OA
BRANCH  39  41
ATOM     41  O   UNL     1       8.439  12.317  13.182  1.00  0.00    -0.458 OA
BRANCH  41  42
ATOM     42  C   UNL     1       8.236  13.166  14.337  1.00  0.00     0.205 CG0
ATOM     43  C   UNL     1       7.148  14.174  13.974  1.00  0.00     0.056 C 
ATOM     44  G   UNL     1       9.575  13.844  14.689  1.00  0.00     0.000 G0
ENDBRANCH  41  42
ENDBRANCH  39  41
ENDBRANCH  35  39
ENDBRANCH  33  35
ENDBRANCH  23  31
ENDBRANCH  21  23
ENDBRANCH  19  21
ENDBRANCH  14  19
ENDBRANCH   7  14
ENDBRANCH   2   5
BRANCH   3  45
ATOM     45  C   UNL     1      -1.871   2.747   8.221  1.00  0.00     0.171 C 
BRANCH  45  46
ATOM     46  N   UNL     1      -3.147   2.293   7.684  1.00  0.00    -0.342 N 
ATOM     47  C   UNL     1      -3.255   1.677   6.463  1.00  0.00     0.247 C 
ATOM     48  O   UNL     1      -2.278   1.398   5.767  1.00  0.00    -0.273 OA
ATOM     49  H   UNL     1      -3.975   2.454   8.254  1.00  0.00     0.164 HD
BRANCH  47  50
ATOM     50  C   UNL     1      -4.691   1.382   6.008  1.00  0.00     0.212 CG0
ATOM     51  G   UNL     1      -5.114   0.039   6.637  1.00  0.00     0.000 G0
BRANCH  50  52
ATOM     52  N   UNL     1      -5.488   2.514   6.474  1.00  0.00    -0.339 N 
ATOM     53  C   UNL     1      -5.466   3.750   5.876  1.00  0.00     0.243 C 
ATOM     54  O   UNL     1      -4.730   4.015   4.930  1.00  0.00    -0.273 OA
ATOM     55  H   UNL     1      -6.035   2.389   7.323  1.00  0.00     0.164 HD
BRANCH  53  56
ATOM     56  C   UNL     1      -6.323   4.811   6.597  1.00  0.00     0.182 C 
BRANCH  56  57
ATOM     57  N   UNL     1      -5.499   5.938   7.046  1.00  0.00    -0.344 N 
ATOM     58  C   UNL     1      -5.993   7.215   7.151  1.00  0.00     0.220 C 
ATOM     59  O   UNL     1      -7.131   7.516   6.809  1.00  0.00    -0.275 OA
ATOM     60  H   UNL     1      -4.586   5.715   7.433  1.00  0.00     0.164 HD
BRANCH  58  61
ATOM     61  C   UNL     1      -4.981   8.209   7.691  1.00  0.00     0.100 C 
BRANCH  61  62
ATOM     62  C   UNL     1      -4.990   8.331   9.215  1.00  0.00     0.010 C 
BRANCH  62  63
ATOM     63  C   UNL     1      -3.662   7.951   9.882  1.00  0.00     0.000 C 
BRANCH  63  64
ATOM     64  C   UNL     1      -2.966   9.108  10.597  1.00  0.00    -0.003 C 
ATOM     65  C   UNL     1      -1.538   9.288  10.102  1.00  0.00     0.004 C 
ENDBRANCH  63  64
ENDBRANCH  62  63
ENDBRANCH  61  62
ENDBRANCH  58  61
ENDBRANCH  56  57
BRANCH  56  66
ATOM     66  C   UNL     1      -7.131   4.196   7.739  1.00  0.00     0.157 C 
BRANCH  66  67
ATOM     67  C   UNL     1      -6.445   4.398   9.060  1.00  0.00     0.305 C 
ATOM     68  O   UNL     1      -6.784   5.160   9.952  1.00  0.00    -0.252 OA
BRANCH  67  69
ATOM     69  O   UNL     1      -5.385   3.583   9.215  1.00  0.00    -0.481 OA
ATOM     70  H   UNL     1      -4.607   4.179   9.201  1.00  0.00     0.296 HD
ENDBRANCH  67  69
ENDBRANCH  66  67
ENDBRANCH  56  66
ENDBRANCH  53  56
ENDBRANCH  50  52
ENDBRANCH  47  50
ENDBRANCH  45  46
BRANCH  45  71
ATOM     71  C   UNL     1      -1.615   2.186   9.624  1.00  0.00     0.037 C 
BRANCH  71  72
ATOM     72  C   UNL     1      -2.679   1.166  10.038  1.00  0.00     0.026 C 
BRANCH  72  73
ATOM     73  C   UNL     1      -2.989   1.256  11.531  1.00  0.00     0.146 C 
BRANCH  73  74
ATOM     74  N   UNL     1      -4.425   1.472  11.677  1.00  0.00    -0.254 NA
ATOM     75  C   UNL     1      -4.830   2.665  11.915  1.00  0.00     0.185 C 
ATOM     76  N   UNL     1      -6.146   2.896  12.054  1.00  0.00    -0.370 N 
ATOM     77  N   UNL     1      -4.108   3.790  12.056  1.00  0.00    -0.370 N 
ATOM     78  H   UNL     1      -6.761   2.100  11.969  1.00  0.00     0.159 HD
ATOM     79  H   UNL     1      -6.523   3.767  12.381  1.00  0.00     0.159 HD
ATOM     80  H   UNL     1      -3.103   3.769  11.974  1.00  0.00     0.159 HD
ATOM     81  H   UNL     1      -4.546   4.694  12.127  1.00  0.00     0.159 HD
ENDBRANCH  73  74
ENDBRANCH  72  73
ENDBRANCH  71  72
ENDBRANCH  45  71
ENDBRANCH   3  45
TORSDOF 20
ENDMDL
MODEL 5
REMARK VINA RESULT:    -5.481     10.312     15.219
REMARK INTER + INTRA:         -22.378
REMARK INTER:                 -14.489
REMARK INTRA:                  -7.889
REMARK UNBOUND:                -6.644
REMARK SMILES CCCCCC(=O)N[C@H](CC(=O)O)C(=O)N[C@H]1C(=O)N[C@H](CCCN=C(N)N)C(=O)N[C@@H]2CC[C@H](O)N(C2=O)[C@@H](CC(C)C)C(=O)N(C)[C@@H](Cc2ccccc2)C(=O)N[C@H](C(C)C)C(=O)O[C@@H]1C
REMARK SMILES IDX 30 1 31 2 29 3 32 5 35 6 37 7 34 8 38 9 33 10 39 11 36 12
REMARK SMILES IDX 40 14 41 15 42 16 43 17 44 18 45 19 46 20 47 21 48 22 49 23
REMARK SMILES IDX 50 24 51 25 52 26 56 27 53 28 55 29 54 30 57 31 58 32 59 33
REMARK SMILES IDX 60 35 61 36 62 37 63 38 64 39 65 40 66 41 67 42 68 43 21 45
REMARK SMILES IDX 20 46 18 47 19 48 17 50 16 52 14 53 15 54 9 56 8 57 6 58
REMARK SMILES IDX 7 59 5 61 4 62 3 63 2 64 1 65 10 66 11 67 12 68 13 69 22 71
REMARK SMILES IDX 23 72 24 73 25 74 26 75 27 76 28 77
REMARK H PARENT 31 4 36 13 59 34 20 49 16 55 8 60 13 70 27 78 27 79 28 80
REMARK H PARENT 28 81
REMARK Flexibility Score:  259.900
ROOT
ATOM      1  O   UNL     1      -7.381   5.105  -2.650  1.00  0.00    -0.273 OA
ATOM      2  N   UNL     1      -5.588   5.861  -1.449  1.00  0.00    -0.343 N 
ATOM      3  C   UNL     1      -6.769   5.164  -1.583  1.00  0.00     0.243 C 
ATOM      4  H   UNL     1      -5.104   5.875  -0.559  1.00  0.00     0.164 HD
ENDROOT
BRANCH   2   5
ATOM      5  C   UNL     1      -5.071   6.666  -2.550  1.00  0.00     0.171 C 
ATOM      6  C   UNL     1      -2.392   7.486  -3.296  1.00  0.00     0.214 C 
ATOM      7  N   UNL     1      -3.180   8.334  -2.432  1.00  0.00    -0.303 N 
ATOM      8  C   UNL     1      -3.232   6.669  -4.265  1.00  0.00     0.057 C 
ATOM      9  C   UNL     1      -4.446   7.979  -1.996  1.00  0.00     0.247 C 
ATOM     10  C   UNL     1      -4.221   5.820  -3.496  1.00  0.00     0.040 C 
ATOM     11  O   UNL     1      -5.080   8.669  -1.187  1.00  0.00    -0.272 OA
BRANCH   6  12
ATOM     12  O   UNL     1      -1.619   6.639  -2.478  1.00  0.00    -0.373 OA
ATOM     13  H   UNL     1      -1.185   7.206  -1.805  1.00  0.00     0.213 HD
ENDBRANCH   6  12
BRANCH   7  14
ATOM     14  C   UNL     1      -2.522   9.547  -1.901  1.00  0.00     0.177 C 
BRANCH  14  15
ATOM     15  C   UNL     1      -1.716   9.342  -0.603  1.00  0.00     0.038 C 
BRANCH  15  16
ATOM     16  C   UNL     1      -1.321  10.568   0.249  1.00  0.00    -0.015 C 
ATOM     17  C   UNL     1      -0.727  10.171   1.604  1.00  0.00     0.007 C 
ATOM     18  C   UNL     1      -2.556  11.442   0.504  1.00  0.00     0.007 C 
ENDBRANCH  15  16
ENDBRANCH  14  15
BRANCH  14  19
ATOM     19  C   UNL     1      -2.122  10.506  -3.075  1.00  0.00     0.245 C 
ATOM     20  O   UNL     1      -0.943  10.898  -3.099  1.00  0.00    -0.272 OA
BRANCH  19  21
ATOM     21  N   UNL     1      -3.021  11.015  -3.995  1.00  0.00    -0.332 N 
ATOM     22  C   UNL     1      -4.166  11.850  -3.682  1.00  0.00     0.147 C 
BRANCH  21  23
ATOM     23  C   UNL     1      -2.814  10.675  -5.430  1.00  0.00     0.178 C 
BRANCH  23  24
ATOM     24  C   UNL     1      -3.836   9.676  -6.011  1.00  0.00     0.070 C 
BRANCH  24  25
ATOM     25  C   UNL     1      -3.662   9.276  -7.458  1.00  0.00    -0.045 A 
ATOM     26  C   UNL     1      -4.618   9.629  -8.419  1.00  0.00     0.004 A 
ATOM     27  C   UNL     1      -2.538   8.539  -7.858  1.00  0.00     0.004 A 
ATOM     28  C   UNL     1      -4.458   9.241  -9.751  1.00  0.00     0.000 A 
ATOM     29  C   UNL     1      -2.379   8.153  -9.190  1.00  0.00     0.000 A 
ATOM     30  C   UNL     1      -3.342   8.502 -10.135  1.00  0.00     0.000 A 
ENDBRANCH  24  25
ENDBRANCH  23  24
BRANCH  23  31
ATOM     31  C   UNL     1      -2.545  11.918  -6.312  1.00  0.00     0.243 C 
ATOM     32  O   UNL     1      -3.418  12.698  -6.684  1.00  0.00    -0.273 OA
ATOM     33  N   UNL     1      -1.253  11.976  -6.806  1.00  0.00    -0.341 N 
ATOM     34  H   UNL     1      -0.571  11.295  -6.464  1.00  0.00     0.164 HD
BRANCH  33  35
ATOM     35  C   UNL     1      -0.807  12.999  -7.757  1.00  0.00     0.194 C 
BRANCH  35  36
ATOM     36  C   UNL     1      -0.516  12.455  -9.184  1.00  0.00     0.017 C 
ATOM     37  C   UNL     1      -1.797  12.403 -10.034  1.00  0.00     0.010 C 
ATOM     38  C   UNL     1       0.092  11.047  -9.182  1.00  0.00     0.010 C 
ENDBRANCH  35  36
BRANCH  35  39
ATOM     39  C   UNL     1       0.372  13.851  -7.208  1.00  0.00     0.329 C 
ATOM     40  O   UNL     1       1.282  13.401  -6.522  1.00  0.00    -0.250 OA
BRANCH  39  41
ATOM     41  O   UNL     1       0.329  15.144  -7.651  1.00  0.00    -0.458 OA
BRANCH  41  42
ATOM     42  C   UNL     1       1.005  15.417  -8.901  1.00  0.00     0.205 CG0
ATOM     43  C   UNL     1       2.247  14.529  -8.949  1.00  0.00     0.056 C 
ATOM     44  G   UNL     1       1.350  16.918  -8.956  1.00  0.00     0.000 G0
ENDBRANCH  41  42
ENDBRANCH  39  41
ENDBRANCH  35  39
ENDBRANCH  33  35
ENDBRANCH  23  31
ENDBRANCH  21  23
ENDBRANCH  19  21
ENDBRANCH  14  19
ENDBRANCH   7  14
ENDBRANCH   2   5
BRANCH   3  45
ATOM     45  C   UNL     1      -7.257   4.447  -0.317  1.00  0.00     0.171 C 
BRANCH  45  46
ATOM     46  N   UNL     1      -7.690   3.127  -0.754  1.00  0.00    -0.342 N 
ATOM     47  C   UNL     1      -6.916   2.006  -0.587  1.00  0.00     0.247 C 
ATOM     48  O   UNL     1      -5.837   2.021   0.006  1.00  0.00    -0.273 OA
ATOM     49  H   UNL     1      -8.603   3.060  -1.200  1.00  0.00     0.164 HD
BRANCH  47  50
ATOM     50  C   UNL     1      -7.480   0.726  -1.220  1.00  0.00     0.212 CG0
ATOM     51  G   UNL     1      -8.289  -0.014  -0.137  1.00  0.00     0.000 G0
BRANCH  50  52
ATOM     52  N   UNL     1      -8.297   1.175  -2.344  1.00  0.00    -0.339 N 
ATOM     53  C   UNL     1      -7.784   1.455  -3.588  1.00  0.00     0.243 C 
ATOM     54  O   UNL     1      -6.582   1.400  -3.835  1.00  0.00    -0.273 OA
ATOM     55  H   UNL     1      -9.285   1.348  -2.172  1.00  0.00     0.164 HD
BRANCH  53  56
ATOM     56  C   UNL     1      -8.824   1.996  -4.589  1.00  0.00     0.182 C 
BRANCH  56  57
ATOM     57  N   UNL     1      -8.449   3.330  -5.069  1.00  0.00    -0.344 N 
ATOM     58  C   UNL     1      -7.831   3.529  -6.280  1.00  0.00     0.220 C 
ATOM     59  O   UNL     1      -7.485   2.606  -7.008  1.00  0.00    -0.275 OA
ATOM     60  H   UNL     1      -8.807   4.125  -4.547  1.00  0.00     0.164 HD
BRANCH  58  61
ATOM     61  C   UNL     1      -7.590   4.993  -6.598  1.00  0.00     0.100 C 
BRANCH  61  62
ATOM     62  C   UNL     1      -6.197   5.488  -6.206  1.00  0.00     0.010 C 
BRANCH  62  63
ATOM     63  C   UNL     1      -5.257   5.721  -7.396  1.00  0.00     0.000 C 
BRANCH  63  64
ATOM     64  C   UNL     1      -5.597   4.893  -8.635  1.00  0.00    -0.003 C 
ATOM     65  C   UNL     1      -4.845   5.394  -9.860  1.00  0.00     0.004 C 
ENDBRANCH  63  64
ENDBRANCH  62  63
ENDBRANCH  61  62
ENDBRANCH  58  61
ENDBRANCH  56  57
BRANCH  56  66
ATOM     66  C   UNL     1     -10.234   1.970  -4.001  1.00  0.00     0.157 C 
BRANCH  66  67
ATOM     67  C   UNL     1     -10.703   3.353  -3.652  1.00  0.00     0.305 C 
ATOM     68  O   UNL     1     -11.616   3.972  -4.177  1.00  0.00    -0.252 OA
BRANCH  67  69
ATOM     69  O   UNL     1     -10.026   3.876  -2.612  1.00  0.00    -0.481 OA
ATOM     70  H   UNL     1     -10.436   3.473  -1.818  1.00  0.00     0.296 HD
ENDBRANCH  67  69
ENDBRANCH  66  67
ENDBRANCH  56  66
ENDBRANCH  53  56
ENDBRANCH  50  52
ENDBRANCH  47  50
ENDBRANCH  45  46
BRANCH  45  71
ATOM     71  C   UNL     1      -8.403   5.232   0.332  1.00  0.00     0.037 C 
BRANCH  71  72
ATOM     72  C   UNL     1      -9.529   4.314   0.813  1.00  0.00     0.026 C 
BRANCH  72  73
ATOM     73  C   UNL     1     -10.848   5.072   0.955  1.00  0.00     0.146 C 
BRANCH  73  74
ATOM     74  N   UNL     1     -11.532   5.024  -0.333  1.00  0.00    -0.254 NA
ATOM     75  C   UNL     1     -11.765   6.134  -0.930  1.00  0.00     0.185 C 
ATOM     76  N   UNL     1     -12.393   6.122  -2.117  1.00  0.00    -0.370 N 
ATOM     77  N   UNL     1     -11.465   7.384  -0.536  1.00  0.00    -0.370 N 
ATOM     78  H   UNL     1     -12.661   5.220  -2.483  1.00  0.00     0.159 HD
ATOM     79  H   UNL     1     -12.736   6.950  -2.571  1.00  0.00     0.159 HD
ATOM     80  H   UNL     1     -10.987   7.547   0.337  1.00  0.00     0.159 HD
ATOM     81  H   UNL     1     -11.595   8.175  -1.145  1.00  0.00     0.159 HD
ENDBRANCH  73  74
ENDBRANCH  72  73
ENDBRANCH  71  72
ENDBRANCH  45  71
ENDBRANCH   3  45
TORSDOF 20
ENDMDL
MODEL 6
REMARK VINA RESULT:    -5.423      2.758      5.828
REMARK INTER + INTRA:         -22.213
REMARK INTER:                 -15.910
REMARK INTRA:                  -6.303
REMARK UNBOUND:                -6.644
REMARK SMILES CCCCCC(=O)N[C@H](CC(=O)O)C(=O)N[C@H]1C(=O)N[C@H](CCCN=C(N)N)C(=O)N[C@@H]2CC[C@H](O)N(C2=O)[C@@H](CC(C)C)C(=O)N(C)[C@@H](Cc2ccccc2)C(=O)N[C@H](C(C)C)C(=O)O[C@@H]1C
REMARK SMILES IDX 30 1 31 2 29 3 32 5 35 6 37 7 34 8 38 9 33 10 39 11 36 12
REMARK SMILES IDX 40 14 41 15 42 16 43 17 44 18 45 19 46 20 47 21 48 22 49 23
REMARK SMILES IDX 50 24 51 25 52 26 56 27 53 28 55 29 54 30 57 31 58 32 59 33
REMARK SMILES IDX 60 35 61 36 62 37 63 38 64 39 65 40 66 41 67 42 68 43 21 45
REMARK SMILES IDX 20 46 18 47 19 48 17 50 16 52 14 53 15 54 9 56 8 57 6 58
REMARK SMILES IDX 7 59 5 61 4 62 3 63 2 64 1 65 10 66 11 67 12 68 13 69 22 71
REMARK SMILES IDX 23 72 24 73 25 74 26 75 27 76 28 77
REMARK H PARENT 31 4 36 13 59 34 20 49 16 55 8 60 13 70 27 78 27 79 28 80
REMARK H PARENT 28 81
REMARK Flexibility Score:  259.900
ROOT
ATOM      1  O   UNL     1      -3.101   8.171  13.151  1.00  0.00    -0.273 OA
ATOM      2  N   UNL     1      -2.802   9.337  11.206  1.00  0.00    -0.343 N 
ATOM      3  C   UNL     1      -3.540   8.552  12.065  1.00  0.00     0.243 C 
ATOM      4  H   UNL     1      -3.201   9.643  10.327  1.00  0.00     0.164 HD
ENDROOT
BRANCH   2   5
ATOM      5  C   UNL     1      -1.409   9.654  11.501  1.00  0.00     0.171 C 
ATOM      6  C   UNL     1       0.460  11.551  10.355  1.00  0.00     0.214 C 
ATOM      7  N   UNL     1       0.392  10.210   9.823  1.00  0.00    -0.303 N 
ATOM      8  C   UNL     1       0.110  11.630  11.832  1.00  0.00     0.057 C 
ATOM      9  C   UNL     1      -0.512   9.270  10.290  1.00  0.00     0.247 C 
ATOM     10  C   UNL     1      -1.276  11.069  12.062  1.00  0.00     0.040 C 
ATOM     11  O   UNL     1      -0.623   8.151   9.771  1.00  0.00    -0.272 OA
BRANCH   6  12
ATOM     12  O   UNL     1      -0.413  12.358   9.598  1.00  0.00    -0.373 OA
ATOM     13  H   UNL     1      -1.197  12.538  10.160  1.00  0.00     0.213 HD
ENDBRANCH   6  12
BRANCH   7  14
ATOM     14  C   UNL     1       1.235   9.912   8.645  1.00  0.00     0.177 C 
BRANCH  14  15
ATOM     15  C   UNL     1       0.864  10.681   7.362  1.00  0.00     0.038 C 
BRANCH  15  16
ATOM     16  C   UNL     1       0.368   9.901   6.124  1.00  0.00    -0.015 C 
ATOM     17  C   UNL     1       0.363  10.760   4.856  1.00  0.00     0.007 C 
ATOM     18  C   UNL     1      -1.059   9.395   6.368  1.00  0.00     0.007 C 
ENDBRANCH  15  16
ENDBRANCH  14  15
BRANCH  14  19
ATOM     19  C   UNL     1       2.692   9.551   9.097  1.00  0.00     0.245 C 
ATOM     20  O   UNL     1       2.875   9.384  10.314  1.00  0.00    -0.272 OA
BRANCH  19  21
ATOM     21  N   UNL     1       3.780   9.521   8.242  1.00  0.00    -0.332 N 
ATOM     22  C   UNL     1       4.337  10.668   7.547  1.00  0.00     0.147 C 
BRANCH  21  23
ATOM     23  C   UNL     1       4.436   8.208   7.997  1.00  0.00     0.178 C 
BRANCH  23  24
ATOM     24  C   UNL     1       3.928   7.454   6.750  1.00  0.00     0.070 C 
BRANCH  24  25
ATOM     25  C   UNL     1       2.610   6.726   6.877  1.00  0.00    -0.045 A 
ATOM     26  C   UNL     1       2.266   6.066   8.063  1.00  0.00     0.004 A 
ATOM     27  C   UNL     1       1.712   6.696   5.799  1.00  0.00     0.004 A 
ATOM     28  C   UNL     1       1.054   5.380   8.166  1.00  0.00     0.000 A 
ATOM     29  C   UNL     1       0.500   6.012   5.904  1.00  0.00     0.000 A 
ATOM     30  C   UNL     1       0.174   5.352   7.086  1.00  0.00     0.000 A 
ENDBRANCH  24  25
ENDBRANCH  23  24
BRANCH  23  31
ATOM     31  C   UNL     1       5.976   8.266   8.140  1.00  0.00     0.243 C 
ATOM     32  O   UNL     1       6.560   8.475   9.200  1.00  0.00    -0.273 OA
ATOM     33  N   UNL     1       6.645   8.247   6.927  1.00  0.00    -0.341 N 
ATOM     34  H   UNL     1       6.103   8.074   6.077  1.00  0.00     0.164 HD
BRANCH  33  35
ATOM     35  C   UNL     1       8.097   8.411   6.814  1.00  0.00     0.194 C 
BRANCH  35  36
ATOM     36  C   UNL     1       8.570   9.892   6.804  1.00  0.00     0.017 C 
ATOM     37  C   UNL     1       8.604  10.459   5.374  1.00  0.00     0.010 C 
ATOM     38  C   UNL     1       9.966  10.084   7.408  1.00  0.00     0.010 C 
ENDBRANCH  35  36
BRANCH  35  39
ATOM     39  C   UNL     1       8.699   7.602   5.631  1.00  0.00     0.329 C 
ATOM     40  O   UNL     1       8.135   7.436   4.556  1.00  0.00    -0.250 OA
BRANCH  39  41
ATOM     41  O   UNL     1       9.969   7.167   5.892  1.00  0.00    -0.458 OA
BRANCH  41  42
ATOM     42  C   UNL     1      10.985   7.539   4.929  1.00  0.00     0.205 CG0
ATOM     43  C   UNL     1      11.742   6.267   4.554  1.00  0.00     0.056 C 
ATOM     44  G   UNL     1      11.900   8.603   5.567  1.00  0.00     0.000 G0
ENDBRANCH  41  42
ENDBRANCH  39  41
ENDBRANCH  35  39
ENDBRANCH  33  35
ENDBRANCH  23  31
ENDBRANCH  21  23
ENDBRANCH  19  21
ENDBRANCH  14  19
ENDBRANCH   7  14
ENDBRANCH   2   5
BRANCH   3  45
ATOM     45  C   UNL     1      -4.955   8.202  11.584  1.00  0.00     0.171 C 
BRANCH  45  46
ATOM     46  N   UNL     1      -5.164   6.808  11.953  1.00  0.00    -0.342 N 
ATOM     47  C   UNL     1      -6.381   6.331  12.368  1.00  0.00     0.247 C 
ATOM     48  O   UNL     1      -7.399   7.024  12.389  1.00  0.00    -0.273 OA
ATOM     49  H   UNL     1      -4.359   6.186  11.896  1.00  0.00     0.164 HD
BRANCH  47  50
ATOM     50  C   UNL     1      -6.381   4.868  12.835  1.00  0.00     0.212 CG0
ATOM     51  G   UNL     1      -7.744   4.256  12.454  1.00  0.00     0.000 G0
BRANCH  50  52
ATOM     52  N   UNL     1      -5.255   4.241  12.149  1.00  0.00    -0.339 N 
ATOM     53  C   UNL     1      -5.377   3.118  11.367  1.00  0.00     0.243 C 
ATOM     54  O   UNL     1      -6.441   2.522  11.227  1.00  0.00    -0.273 OA
ATOM     55  H   UNL     1      -4.327   4.624  12.316  1.00  0.00     0.164 HD
BRANCH  53  56
ATOM     56  C   UNL     1      -4.037   2.588  10.817  1.00  0.00     0.182 C 
BRANCH  56  57
ATOM     57  N   UNL     1      -4.103   2.396   9.365  1.00  0.00    -0.344 N 
ATOM     58  C   UNL     1      -2.982   2.392   8.571  1.00  0.00     0.220 C 
ATOM     59  O   UNL     1      -1.859   2.619   9.008  1.00  0.00    -0.275 OA
ATOM     60  H   UNL     1      -4.997   2.105   8.979  1.00  0.00     0.164 HD
BRANCH  58  61
ATOM     61  C   UNL     1      -3.281   2.118   7.109  1.00  0.00     0.100 C 
BRANCH  61  62
ATOM     62  C   UNL     1      -2.295   2.778   6.144  1.00  0.00     0.010 C 
BRANCH  62  63
ATOM     63  C   UNL     1      -2.901   3.911   5.306  1.00  0.00     0.000 C 
BRANCH  63  64
ATOM     64  C   UNL     1      -3.715   4.921   6.113  1.00  0.00    -0.003 C 
ATOM     65  C   UNL     1      -3.179   6.335   5.936  1.00  0.00     0.004 C 
ENDBRANCH  63  64
ENDBRANCH  62  63
ENDBRANCH  61  62
ENDBRANCH  58  61
ENDBRANCH  56  57
BRANCH  56  66
ATOM     66  C   UNL     1      -3.595   1.320  11.546  1.00  0.00     0.157 C 
BRANCH  66  67
ATOM     67  C   UNL     1      -2.373   1.572  12.381  1.00  0.00     0.305 C 
ATOM     68  O   UNL     1      -2.336   1.770  13.586  1.00  0.00    -0.252 OA
BRANCH  67  69
ATOM     69  O   UNL     1      -1.238   1.509  11.659  1.00  0.00    -0.481 OA
ATOM     70  H   UNL     1      -1.534   1.538  10.725  1.00  0.00     0.296 HD
ENDBRANCH  67  69
ENDBRANCH  66  67
ENDBRANCH  56  66
ENDBRANCH  53  56
ENDBRANCH  50  52
ENDBRANCH  47  50
ENDBRANCH  45  46
BRANCH  45  71
ATOM     71  C   UNL     1      -5.070   8.409  10.069  1.00  0.00     0.037 C 
BRANCH  71  72
ATOM     72  C   UNL     1      -4.731   7.138   9.287  1.00  0.00     0.026 C 
BRANCH  72  73
ATOM     73  C   UNL     1      -5.956   6.579   8.567  1.00  0.00     0.146 C 
BRANCH  73  74
ATOM     74  N   UNL     1      -6.288   7.491   7.476  1.00  0.00    -0.254 NA
ATOM     75  C   UNL     1      -7.526   7.753   7.270  1.00  0.00     0.185 C 
ATOM     76  N   UNL     1      -7.863   8.589   6.275  1.00  0.00    -0.370 N 
ATOM     77  N   UNL     1      -8.607   7.299   7.929  1.00  0.00    -0.370 N 
ATOM     78  H   UNL     1      -7.108   8.971   5.723  1.00  0.00     0.159 HD
ATOM     79  H   UNL     1      -8.808   8.727   5.964  1.00  0.00     0.159 HD
ATOM     80  H   UNL     1      -8.506   6.664   8.706  1.00  0.00     0.159 HD
ATOM     81  H   UNL     1      -9.527   7.666   7.750  1.00  0.00     0.159 HD
ENDBRANCH  73  74
ENDBRANCH  72  73
ENDBRANCH  71  72
ENDBRANCH  45  71
ENDBRANCH   3  45
TORSDOF 20
ENDMDL
MODEL 7
REMARK VINA RESULT:    -5.404      7.181     13.837
REMARK INTER + INTRA:         -22.158
REMARK INTER:                 -15.890
REMARK INTRA:                  -6.267
REMARK UNBOUND:                -6.644
REMARK SMILES CCCCCC(=O)N[C@H](CC(=O)O)C(=O)N[C@H]1C(=O)N[C@H](CCCN=C(N)N)C(=O)N[C@@H]2CC[C@H](O)N(C2=O)[C@@H](CC(C)C)C(=O)N(C)[C@@H](Cc2ccccc2)C(=O)N[C@H](C(C)C)C(=O)O[C@@H]1C
REMARK SMILES IDX 30 1 31 2 29 3 32 5 35 6 37 7 34 8 38 9 33 10 39 11 36 12
REMARK SMILES IDX 40 14 41 15 42 16 43 17 44 18 45 19 46 20 47 21 48 22 49 23
REMARK SMILES IDX 50 24 51 25 52 26 56 27 53 28 55 29 54 30 57 31 58 32 59 33
REMARK SMILES IDX 60 35 61 36 62 37 63 38 64 39 65 40 66 41 67 42 68 43 21 45
REMARK SMILES IDX 20 46 18 47 19 48 17 50 16 52 14 53 15 54 9 56 8 57 6 58
REMARK SMILES IDX 7 59 5 61 4 62 3 63 2 64 1 65 10 66 11 67 12 68 13 69 22 71
REMARK SMILES IDX 23 72 24 73 25 74 26 75 27 76 28 77
REMARK H PARENT 31 4 36 13 59 34 20 49 16 55 8 60 13 70 27 78 27 79 28 80
REMARK H PARENT 28 81
REMARK Flexibility Score:  259.900
ROOT
ATOM      1  O   UNL     1       0.380  10.063   1.585  1.00  0.00    -0.273 OA
ATOM      2  N   UNL     1      -1.879   9.960   1.930  1.00  0.00    -0.343 N 
ATOM      3  C   UNL     1      -0.622  10.469   2.176  1.00  0.00     0.243 C 
ATOM      4  H   UNL     1      -2.682  10.329   2.425  1.00  0.00     0.164 HD
ENDROOT
BRANCH   2   5
ATOM      5  C   UNL     1      -2.058   8.823   1.035  1.00  0.00     0.171 C 
ATOM      6  C   UNL     1      -0.453   7.758  -1.132  1.00  0.00     0.214 C 
ATOM      7  N   UNL     1      -1.473   8.739  -1.420  1.00  0.00    -0.303 N 
ATOM      8  C   UNL     1      -0.779   6.885   0.069  1.00  0.00     0.057 C 
ATOM      9  C   UNL     1      -2.240   9.326  -0.426  1.00  0.00     0.247 C 
ATOM     10  C   UNL     1      -0.997   7.752   1.289  1.00  0.00     0.040 C 
ATOM     11  O   UNL     1      -3.052  10.228  -0.671  1.00  0.00    -0.272 OA
BRANCH   6  12
ATOM     12  O   UNL     1       0.760   8.445  -0.927  1.00  0.00    -0.373 OA
ATOM     13  H   UNL     1       0.631   9.029  -0.148  1.00  0.00     0.213 HD
ENDBRANCH   6  12
BRANCH   7  14
ATOM     14  C   UNL     1      -1.574   9.212  -2.817  1.00  0.00     0.177 C 
BRANCH  14  15
ATOM     15  C   UNL     1      -0.358  10.008  -3.329  1.00  0.00     0.038 C 
BRANCH  15  16
ATOM     16  C   UNL     1      -0.394  11.552  -3.305  1.00  0.00    -0.015 C 
ATOM     17  C   UNL     1      -1.821  12.104  -3.370  1.00  0.00     0.007 C 
ATOM     18  C   UNL     1       0.391  12.108  -4.500  1.00  0.00     0.007 C 
ENDBRANCH  15  16
ENDBRANCH  14  15
BRANCH  14  19
ATOM     19  C   UNL     1      -2.428   8.211  -3.669  1.00  0.00     0.245 C 
ATOM     20  O   UNL     1      -1.868   7.693  -4.650  1.00  0.00    -0.272 OA
BRANCH  19  21
ATOM     21  N   UNL     1      -3.773   7.970  -3.456  1.00  0.00    -0.332 N 
ATOM     22  C   UNL     1      -4.824   8.971  -3.488  1.00  0.00     0.147 C 
BRANCH  21  23
ATOM     23  C   UNL     1      -4.191   6.572  -3.158  1.00  0.00     0.178 C 
BRANCH  23  24
ATOM     24  C   UNL     1      -4.458   6.282  -1.666  1.00  0.00     0.070 C 
BRANCH  24  25
ATOM     25  C   UNL     1      -5.152   4.983  -1.331  1.00  0.00    -0.045 A 
ATOM     26  C   UNL     1      -4.479   3.760  -1.446  1.00  0.00     0.004 A 
ATOM     27  C   UNL     1      -6.488   4.984  -0.903  1.00  0.00     0.004 A 
ATOM     28  C   UNL     1      -5.133   2.561  -1.151  1.00  0.00     0.000 A 
ATOM     29  C   UNL     1      -7.140   3.786  -0.607  1.00  0.00     0.000 A 
ATOM     30  C   UNL     1      -6.462   2.575  -0.734  1.00  0.00     0.000 A 
ENDBRANCH  24  25
ENDBRANCH  23  24
BRANCH  23  31
ATOM     31  C   UNL     1      -5.275   6.045  -4.128  1.00  0.00     0.243 C 
ATOM     32  O   UNL     1      -6.433   6.452  -4.149  1.00  0.00    -0.273 OA
ATOM     33  N   UNL     1      -4.875   4.936  -4.854  1.00  0.00    -0.341 N 
ATOM     34  H   UNL     1      -3.898   4.641  -4.791  1.00  0.00     0.164 HD
BRANCH  33  35
ATOM     35  C   UNL     1      -5.774   4.198  -5.746  1.00  0.00     0.194 C 
BRANCH  35  36
ATOM     36  C   UNL     1      -5.877   2.680  -5.430  1.00  0.00     0.017 C 
ATOM     37  C   UNL     1      -7.006   2.392  -4.426  1.00  0.00     0.010 C 
ATOM     38  C   UNL     1      -4.584   2.095  -4.847  1.00  0.00     0.010 C 
ENDBRANCH  35  36
BRANCH  35  39
ATOM     39  C   UNL     1      -5.473   4.460  -7.248  1.00  0.00     0.329 C 
ATOM     40  O   UNL     1      -4.858   5.434  -7.665  1.00  0.00    -0.250 OA
BRANCH  39  41
ATOM     41  O   UNL     1      -5.897   3.435  -8.049  1.00  0.00    -0.458 OA
BRANCH  41  42
ATOM     42  C   UNL     1      -6.955   3.749  -8.986  1.00  0.00     0.205 CG0
ATOM     43  C   UNL     1      -8.088   4.394  -8.192  1.00  0.00     0.056 C 
ATOM     44  G   UNL     1      -7.392   2.448  -9.688  1.00  0.00     0.000 G0
ENDBRANCH  41  42
ENDBRANCH  39  41
ENDBRANCH  35  39
ENDBRANCH  33  35
ENDBRANCH  23  31
ENDBRANCH  21  23
ENDBRANCH  19  21
ENDBRANCH  14  19
ENDBRANCH   7  14
ENDBRANCH   2   5
BRANCH   3  45
ATOM     45  C   UNL     1      -0.560  11.591   3.220  1.00  0.00     0.171 C 
BRANCH  45  46
ATOM     46  N   UNL     1       0.230  11.060   4.323  1.00  0.00    -0.342 N 
ATOM     47  C   UNL     1       1.144  11.820   5.008  1.00  0.00     0.247 C 
ATOM     48  O   UNL     1       1.312  13.020   4.790  1.00  0.00    -0.273 OA
ATOM     49  H   UNL     1       0.081  10.084   4.574  1.00  0.00     0.164 HD
BRANCH  47  50
ATOM     50  C   UNL     1       1.970  11.058   6.054  1.00  0.00     0.212 CG0
ATOM     51  G   UNL     1       1.531  11.553   7.447  1.00  0.00     0.000 G0
BRANCH  50  52
ATOM     52  N   UNL     1       1.679   9.645   5.826  1.00  0.00    -0.339 N 
ATOM     53  C   UNL     1       2.380   8.624   6.420  1.00  0.00     0.243 C 
ATOM     54  O   UNL     1       3.346   8.822   7.152  1.00  0.00    -0.273 OA
ATOM     55  H   UNL     1       0.961   9.414   5.142  1.00  0.00     0.164 HD
BRANCH  53  56
ATOM     56  C   UNL     1       1.949   7.216   5.960  1.00  0.00     0.182 C 
BRANCH  56  57
ATOM     57  N   UNL     1       0.488   7.096   5.932  1.00  0.00    -0.344 N 
ATOM     58  C   UNL     1      -0.175   6.410   4.944  1.00  0.00     0.220 C 
ATOM     59  O   UNL     1       0.399   5.913   3.981  1.00  0.00    -0.275 OA
ATOM     60  H   UNL     1      -0.016   7.404   6.760  1.00  0.00     0.164 HD
BRANCH  58  61
ATOM     61  C   UNL     1      -1.679   6.366   5.147  1.00  0.00     0.100 C 
BRANCH  61  62
ATOM     62  C   UNL     1      -2.134   5.305   6.150  1.00  0.00     0.010 C 
BRANCH  62  63
ATOM     63  C   UNL     1      -1.679   3.881   5.807  1.00  0.00     0.000 C 
BRANCH  63  64
ATOM     64  C   UNL     1      -2.820   2.873   5.676  1.00  0.00    -0.003 C 
ATOM     65  C   UNL     1      -4.176   3.547   5.829  1.00  0.00     0.004 C 
ENDBRANCH  63  64
ENDBRANCH  62  63
ENDBRANCH  61  62
ENDBRANCH  58  61
ENDBRANCH  56  57
BRANCH  56  66
ATOM     66  C   UNL     1       2.601   6.126   6.809  1.00  0.00     0.157 C 
BRANCH  66  67
ATOM     67  C   UNL     1       1.769   5.807   8.018  1.00  0.00     0.305 C 
ATOM     68  O   UNL     1       1.636   6.496   9.018  1.00  0.00    -0.252 OA
BRANCH  67  69
ATOM     69  O   UNL     1       1.096   4.648   7.885  1.00  0.00    -0.481 OA
ATOM     70  H   UNL     1       1.529   4.192   7.133  1.00  0.00     0.296 HD
ENDBRANCH  67  69
ENDBRANCH  66  67
ENDBRANCH  56  66
ENDBRANCH  53  56
ENDBRANCH  50  52
ENDBRANCH  47  50
ENDBRANCH  45  46
BRANCH  45  71
ATOM     71  C   UNL     1      -1.972  11.980   3.671  1.00  0.00     0.037 C 
BRANCH  71  72
ATOM     72  C   UNL     1      -2.231  13.481   3.524  1.00  0.00     0.026 C 
BRANCH  72  73
ATOM     73  C   UNL     1      -3.103  13.783   2.307  1.00  0.00     0.146 C 
BRANCH  73  74
ATOM     74  N   UNL     1      -3.580  12.511   1.773  1.00  0.00    -0.254 NA
ATOM     75  C   UNL     1      -4.836  12.390   1.545  1.00  0.00     0.185 C 
ATOM     76  N   UNL     1      -5.304  11.232   1.052  1.00  0.00    -0.370 N 
ATOM     77  N   UNL     1      -5.818  13.289   1.730  1.00  0.00    -0.370 N 
ATOM     78  H   UNL     1      -4.630  10.498   0.890  1.00  0.00     0.159 HD
ATOM     79  H   UNL     1      -6.283  11.015   0.985  1.00  0.00     0.159 HD
ATOM     80  H   UNL     1      -5.613  14.208   2.092  1.00  0.00     0.159 HD
ATOM     81  H   UNL     1      -6.756  13.120   1.405  1.00  0.00     0.159 HD
ENDBRANCH  73  74
ENDBRANCH  72  73
ENDBRANCH  71  72
ENDBRANCH  45  71
ENDBRANCH   3  45
TORSDOF 20
ENDMDL
MODEL 8
REMARK VINA RESULT:    -5.310      4.191      7.413
REMARK INTER + INTRA:         -21.887
REMARK INTER:                 -15.643
REMARK INTRA:                  -6.244
REMARK UNBOUND:                -6.644
REMARK SMILES CCCCCC(=O)N[C@H](CC(=O)O)C(=O)N[C@H]1C(=O)N[C@H](CCCN=C(N)N)C(=O)N[C@@H]2CC[C@H](O)N(C2=O)[C@@H](CC(C)C)C(=O)N(C)[C@@H](Cc2ccccc2)C(=O)N[C@H](C(C)C)C(=O)O[C@@H]1C
REMARK SMILES IDX 30 1 31 2 29 3 32 5 35 6 37 7 34 8 38 9 33 10 39 11 36 12
REMARK SMILES IDX 40 14 41 15 42 16 43 17 44 18 45 19 46 20 47 21 48 22 49 23
REMARK SMILES IDX 50 24 51 25 52 26 56 27 53 28 55 29 54 30 57 31 58 32 59 33
REMARK SMILES IDX 60 35 61 36 62 37 63 38 64 39 65 40 66 41 67 42 68 43 21 45
REMARK SMILES IDX 20 46 18 47 19 48 17 50 16 52 14 53 15 54 9 56 8 57 6 58
REMARK SMILES IDX 7 59 5 61 4 62 3 63 2 64 1 65 10 66 11 67 12 68 13 69 22 71
REMARK SMILES IDX 23 72 24 73 25 74 26 75 27 76 28 77
REMARK H PARENT 31 4 36 13 59 34 20 49 16 55 8 60 13 70 27 78 27 79 28 80
REMARK H PARENT 28 81
REMARK Flexibility Score:  259.900
ROOT
ATOM      1  O   UNL     1      -7.018   3.814   8.832  1.00  0.00    -0.273 OA
ATOM      2  N   UNL     1      -4.835   4.488   8.925  1.00  0.00    -0.343 N 
ATOM      3  C   UNL     1      -6.053   4.188   9.497  1.00  0.00     0.243 C 
ATOM      4  H   UNL     1      -4.058   4.779   9.505  1.00  0.00     0.164 HD
ENDROOT
BRANCH   2   5
ATOM      5  C   UNL     1      -4.676   4.486   7.475  1.00  0.00     0.171 C 
ATOM      6  C   UNL     1      -2.592   3.480   5.728  1.00  0.00     0.214 C 
ATOM      7  N   UNL     1      -2.526   4.844   6.200  1.00  0.00    -0.303 N 
ATOM      8  C   UNL     1      -4.013   2.959   5.590  1.00  0.00     0.057 C 
ATOM      9  C   UNL     1      -3.460   5.372   7.077  1.00  0.00     0.247 C 
ATOM     10  C   UNL     1      -4.729   3.064   6.919  1.00  0.00     0.040 C 
ATOM     11  O   UNL     1      -3.350   6.513   7.544  1.00  0.00    -0.272 OA
BRANCH   6  12
ATOM     12  O   UNL     1      -1.859   2.679   6.626  1.00  0.00    -0.373 OA
ATOM     13  H   UNL     1      -2.338   2.694   7.482  1.00  0.00     0.213 HD
ENDBRANCH   6  12
BRANCH   7  14
ATOM     14  C   UNL     1      -1.329   5.626   5.826  1.00  0.00     0.177 C 
BRANCH  14  15
ATOM     15  C   UNL     1      -1.587   6.801   4.863  1.00  0.00     0.038 C 
BRANCH  15  16
ATOM     16  C   UNL     1      -0.444   7.306   3.956  1.00  0.00    -0.015 C 
ATOM     17  C   UNL     1      -0.692   8.726   3.439  1.00  0.00     0.007 C 
ATOM     18  C   UNL     1      -0.292   6.375   2.746  1.00  0.00     0.007 C 
ENDBRANCH  15  16
ENDBRANCH  14  15
BRANCH  14  19
ATOM     19  C   UNL     1      -0.292   5.628   7.002  1.00  0.00     0.245 C 
ATOM     20  O   UNL     1      -0.464   4.788   7.901  1.00  0.00    -0.272 OA
BRANCH  19  21
ATOM     21  N   UNL     1       0.713   6.568   7.142  1.00  0.00    -0.332 N 
ATOM     22  C   UNL     1       1.881   6.687   6.288  1.00  0.00     0.147 C 
BRANCH  21  23
ATOM     23  C   UNL     1       0.606   7.539   8.266  1.00  0.00     0.178 C 
BRANCH  23  24
ATOM     24  C   UNL     1       1.889   8.351   8.542  1.00  0.00     0.070 C 
BRANCH  24  25
ATOM     25  C   UNL     1       2.040   8.951   9.921  1.00  0.00    -0.045 A 
ATOM     26  C   UNL     1       2.241  10.327  10.086  1.00  0.00     0.004 A 
ATOM     27  C   UNL     1       1.984   8.133  11.059  1.00  0.00     0.004 A 
ATOM     28  C   UNL     1       2.397  10.872  11.362  1.00  0.00     0.000 A 
ATOM     29  C   UNL     1       2.139   8.678  12.334  1.00  0.00     0.000 A 
ATOM     30  C   UNL     1       2.348  10.048  12.484  1.00  0.00     0.000 A 
ENDBRANCH  24  25
ENDBRANCH  23  24
BRANCH  23  31
ATOM     31  C   UNL     1      -0.696   8.374   8.221  1.00  0.00     0.243 C 
ATOM     32  O   UNL     1      -1.016   9.097   7.281  1.00  0.00    -0.273 OA
ATOM     33  N   UNL     1      -1.389   8.381   9.419  1.00  0.00    -0.341 N 
ATOM     34  H   UNL     1      -1.071   7.762  10.169  1.00  0.00     0.164 HD
BRANCH  33  35
ATOM     35  C   UNL     1      -2.586   9.198   9.645  1.00  0.00     0.194 C 
BRANCH  35  36
ATOM     36  C   UNL     1      -2.326  10.491  10.468  1.00  0.00     0.017 C 
ATOM     37  C   UNL     1      -1.493  11.506   9.666  1.00  0.00     0.010 C 
ATOM     38  C   UNL     1      -1.587  10.230  11.786  1.00  0.00     0.010 C 
ENDBRANCH  35  36
BRANCH  35  39
ATOM     39  C   UNL     1      -3.772   8.373  10.218  1.00  0.00     0.329 C 
ATOM     40  O   UNL     1      -3.715   7.177  10.477  1.00  0.00    -0.250 OA
BRANCH  39  41
ATOM     41  O   UNL     1      -4.865   9.152  10.485  1.00  0.00    -0.458 OA
BRANCH  41  42
ATOM     42  C   UNL     1      -6.154   8.583  10.154  1.00  0.00     0.205 CG0
ATOM     43  C   UNL     1      -6.974   9.680   9.479  1.00  0.00     0.056 C 
ATOM     44  G   UNL     1      -6.811   8.067  11.449  1.00  0.00     0.000 G0
ENDBRANCH  41  42
ENDBRANCH  39  41
ENDBRANCH  35  39
ENDBRANCH  33  35
ENDBRANCH  23  31
ENDBRANCH  21  23
ENDBRANCH  19  21
ENDBRANCH  14  19
ENDBRANCH   7  14
ENDBRANCH   2   5
BRANCH   3  45
ATOM     45  C   UNL     1      -6.114   4.334  11.024  1.00  0.00     0.171 C 
BRANCH  45  46
ATOM     46  N   UNL     1      -6.038   5.764  11.287  1.00  0.00    -0.342 N 
ATOM     47  C   UNL     1      -7.145   6.574  11.283  1.00  0.00     0.247 C 
ATOM     48  O   UNL     1      -8.288   6.142  11.131  1.00  0.00    -0.273 OA
ATOM     49  H   UNL     1      -5.116   6.155  11.474  1.00  0.00     0.164 HD
BRANCH  47  50
ATOM     50  C   UNL     1      -6.856   8.072  11.456  1.00  0.00     0.212 CG0
ATOM     51  G   UNL     1      -6.161   8.565  10.172  1.00  0.00     0.000 G0
BRANCH  50  52
ATOM     52  N   UNL     1      -8.157   8.696  11.685  1.00  0.00    -0.339 N 
ATOM     53  C   UNL     1      -8.451   9.442  12.800  1.00  0.00     0.243 C 
ATOM     54  O   UNL     1      -7.655   9.599  13.721  1.00  0.00    -0.273 OA
ATOM     55  H   UNL     1      -8.895   8.511  11.009  1.00  0.00     0.164 HD
BRANCH  53  56
ATOM     56  C   UNL     1      -9.914   9.927  12.862  1.00  0.00     0.182 C 
BRANCH  56  57
ATOM     57  N   UNL     1     -10.129  11.068  11.967  1.00  0.00    -0.344 N 
ATOM     58  C   UNL     1     -11.312  11.266  11.297  1.00  0.00     0.220 C 
ATOM     59  O   UNL     1     -12.241  10.467  11.343  1.00  0.00    -0.275 OA
ATOM     60  H   UNL     1      -9.427  11.803  11.981  1.00  0.00     0.164 HD
BRANCH  58  61
ATOM     61  C   UNL     1     -11.332  12.541  10.475  1.00  0.00     0.100 C 
BRANCH  61  62
ATOM     62  C   UNL     1     -10.267  13.557  10.888  1.00  0.00     0.010 C 
BRANCH  62  63
ATOM     63  C   UNL     1     -10.712  14.513  12.003  1.00  0.00     0.000 C 
BRANCH  63  64
ATOM     64  C   UNL     1      -9.561  15.117  12.806  1.00  0.00    -0.003 C 
ATOM     65  C   UNL     1      -9.213  14.255  14.011  1.00  0.00     0.004 C 
ENDBRANCH  63  64
ENDBRANCH  62  63
ENDBRANCH  61  62
ENDBRANCH  58  61
ENDBRANCH  56  57
BRANCH  56  66
ATOM     66  C   UNL     1     -10.343  10.230  14.296  1.00  0.00     0.157 C 
BRANCH  66  67
ATOM     67  C   UNL     1     -11.685   9.629  14.601  1.00  0.00     0.305 C 
ATOM     68  O   UNL     1     -12.487  10.015  15.438  1.00  0.00    -0.252 OA
BRANCH  67  69
ATOM     69  O   UNL     1     -11.977   8.593  13.793  1.00  0.00    -0.481 OA
ATOM     70  H   UNL     1     -12.495   8.986  13.059  1.00  0.00     0.296 HD
ENDBRANCH  67  69
ENDBRANCH  66  67
ENDBRANCH  56  66
ENDBRANCH  53  56
ENDBRANCH  50  52
ENDBRANCH  47  50
ENDBRANCH  45  46
BRANCH  45  71
ATOM     71  C   UNL     1      -4.955   3.575  11.679  1.00  0.00     0.037 C 
BRANCH  71  72
ATOM     72  C   UNL     1      -4.920   2.103  11.260  1.00  0.00     0.026 C 
BRANCH  72  73
ATOM     73  C   UNL     1      -3.645   1.414  11.742  1.00  0.00     0.146 C 
BRANCH  73  74
ATOM     74  N   UNL     1      -2.507   2.168  11.226  1.00  0.00    -0.254 NA
ATOM     75  C   UNL     1      -2.057   1.856  10.066  1.00  0.00     0.185 C 
ATOM     76  N   UNL     1      -1.011   2.533   9.564  1.00  0.00    -0.370 N 
ATOM     77  N   UNL     1      -2.489   0.904   9.221  1.00  0.00    -0.370 N 
ATOM     78  H   UNL     1      -0.620   3.263  10.141  1.00  0.00     0.159 HD
ATOM     79  H   UNL     1      -0.517   2.253   8.735  1.00  0.00     0.159 HD
ATOM     80  H   UNL     1      -3.273   0.318   9.465  1.00  0.00     0.159 HD
ATOM     81  H   UNL     1      -2.128   0.827   8.284  1.00  0.00     0.159 HD
ENDBRANCH  73  74
ENDBRANCH  72  73
ENDBRANCH  71  72
ENDBRANCH  45  71
ENDBRANCH   3  45
TORSDOF 20
ENDMDL
MODEL 9
REMARK VINA RESULT:    -5.266      6.176     13.406
REMARK INTER + INTRA:         -21.762
REMARK INTER:                 -14.548
REMARK INTRA:                  -7.214
REMARK UNBOUND:                -6.644
REMARK SMILES CCCCCC(=O)N[C@H](CC(=O)O)C(=O)N[C@H]1C(=O)N[C@H](CCCN=C(N)N)C(=O)N[C@@H]2CC[C@H](O)N(C2=O)[C@@H](CC(C)C)C(=O)N(C)[C@@H](Cc2ccccc2)C(=O)N[C@H](C(C)C)C(=O)O[C@@H]1C
REMARK SMILES IDX 30 1 31 2 29 3 32 5 35 6 37 7 34 8 38 9 33 10 39 11 36 12
REMARK SMILES IDX 40 14 41 15 42 16 43 17 44 18 45 19 46 20 47 21 48 22 49 23
REMARK SMILES IDX 50 24 51 25 52 26 56 27 53 28 55 29 54 30 57 31 58 32 59 33
REMARK SMILES IDX 60 35 61 36 62 37 63 38 64 39 65 40 66 41 67 42 68 43 21 45
REMARK SMILES IDX 20 46 18 47 19 48 17 50 16 52 14 53 15 54 9 56 8 57 6 58
REMARK SMILES IDX 7 59 5 61 4 62 3 63 2 64 1 65 10 66 11 67 12 68 13 69 22 71
REMARK SMILES IDX 23 72 24 73 25 74 26 75 27 76 28 77
REMARK H PARENT 31 4 36 13 59 34 20 49 16 55 8 60 13 70 27 78 27 79 28 80
REMARK H PARENT 28 81
REMARK Flexibility Score:  259.900
ROOT
ATOM      1  O   UNL     1       0.371  10.983   2.515  1.00  0.00    -0.273 OA
ATOM      2  N   UNL     1      -0.926   9.956   4.094  1.00  0.00    -0.343 N 
ATOM      3  C   UNL     1      -0.087  10.959   3.658  1.00  0.00     0.243 C 
ATOM      4  H   UNL     1      -1.295   9.976   5.037  1.00  0.00     0.164 HD
ENDROOT
BRANCH   2   5
ATOM      5  C   UNL     1      -1.212   8.805   3.244  1.00  0.00     0.171 C 
ATOM      6  C   UNL     1      -0.302   8.041   0.600  1.00  0.00     0.214 C 
ATOM      7  N   UNL     1      -1.505   8.827   0.737  1.00  0.00    -0.303 N 
ATOM      8  C   UNL     1      -0.044   7.123   1.785  1.00  0.00     0.057 C 
ATOM      9  C   UNL     1      -1.968   9.269   1.966  1.00  0.00     0.247 C 
ATOM     10  C   UNL     1       0.032   7.938   3.058  1.00  0.00     0.040 C 
ATOM     11  O   UNL     1      -2.951  10.014   2.068  1.00  0.00    -0.272 OA
BRANCH   6  12
ATOM     12  O   UNL     1       0.776   8.930   0.424  1.00  0.00    -0.373 OA
ATOM     13  H   UNL     1       1.066   9.211   1.318  1.00  0.00     0.213 HD
ENDBRANCH   6  12
BRANCH   7  14
ATOM     14  C   UNL     1      -2.158   9.275  -0.511  1.00  0.00     0.177 C 
BRANCH  14  15
ATOM     15  C   UNL     1      -1.238  10.009  -1.506  1.00  0.00     0.038 C 
BRANCH  15  16
ATOM     16  C   UNL     1      -1.585  11.449  -1.944  1.00  0.00    -0.015 C 
ATOM     17  C   UNL     1      -2.840  11.508  -2.819  1.00  0.00     0.007 C 
ATOM     18  C   UNL     1      -0.416  12.045  -2.739  1.00  0.00     0.007 C 
ENDBRANCH  15  16
ENDBRANCH  14  15
BRANCH  14  19
ATOM     19  C   UNL     1      -3.317   8.295  -0.901  1.00  0.00     0.245 C 
ATOM     20  O   UNL     1      -4.456   8.585  -0.496  1.00  0.00    -0.272 OA
BRANCH  19  21
ATOM     21  N   UNL     1      -3.123   7.094  -1.560  1.00  0.00    -0.332 N 
ATOM     22  C   UNL     1      -2.258   6.017  -1.111  1.00  0.00     0.147 C 
BRANCH  21  23
ATOM     23  C   UNL     1      -3.846   6.879  -2.843  1.00  0.00     0.178 C 
BRANCH  23  24
ATOM     24  C   UNL     1      -2.935   6.645  -4.066  1.00  0.00     0.070 C 
BRANCH  24  25
ATOM     25  C   UNL     1      -2.307   7.864  -4.699  1.00  0.00    -0.045 A 
ATOM     26  C   UNL     1      -0.948   8.148  -4.515  1.00  0.00     0.004 A 
ATOM     27  C   UNL     1      -3.082   8.735  -5.480  1.00  0.00     0.004 A 
ATOM     28  C   UNL     1      -0.378   9.286  -5.090  1.00  0.00     0.000 A 
ATOM     29  C   UNL     1      -2.511   9.872  -6.055  1.00  0.00     0.000 A 
ATOM     30  C   UNL     1      -1.160  10.148  -5.856  1.00  0.00     0.000 A 
ENDBRANCH  24  25
ENDBRANCH  23  24
BRANCH  23  31
ATOM     31  C   UNL     1      -5.028   5.888  -2.712  1.00  0.00     0.243 C 
ATOM     32  O   UNL     1      -6.067   6.136  -2.106  1.00  0.00    -0.273 OA
ATOM     33  N   UNL     1      -4.739   4.618  -3.181  1.00  0.00    -0.341 N 
ATOM     34  H   UNL     1      -3.854   4.471  -3.672  1.00  0.00     0.164 HD
BRANCH  33  35
ATOM     35  C   UNL     1      -5.665   3.489  -3.051  1.00  0.00     0.194 C 
BRANCH  35  36
ATOM     36  C   UNL     1      -5.363   2.556  -1.844  1.00  0.00     0.017 C 
ATOM     37  C   UNL     1      -6.169   2.971  -0.601  1.00  0.00     0.010 C 
ATOM     38  C   UNL     1      -3.882   2.543  -1.447  1.00  0.00     0.010 C 
ENDBRANCH  35  36
BRANCH  35  39
ATOM     39  C   UNL     1      -5.825   2.692  -4.375  1.00  0.00     0.329 C 
ATOM     40  O   UNL     1      -4.906   2.112  -4.943  1.00  0.00    -0.250 OA
BRANCH  39  41
ATOM     41  O   UNL     1      -7.125   2.634  -4.794  1.00  0.00    -0.458 OA
BRANCH  41  42
ATOM     42  C   UNL     1      -7.349   2.101  -6.121  1.00  0.00     0.205 CG0
ATOM     43  C   UNL     1      -7.482   3.289  -7.072  1.00  0.00     0.056 C 
ATOM     44  G   UNL     1      -8.617   1.224  -6.092  1.00  0.00     0.000 G0
ENDBRANCH  41  42
ENDBRANCH  39  41
ENDBRANCH  35  39
ENDBRANCH  33  35
ENDBRANCH  23  31
ENDBRANCH  21  23
ENDBRANCH  19  21
ENDBRANCH  14  19
ENDBRANCH   7  14
ENDBRANCH   2   5
BRANCH   3  45
ATOM     45  C   UNL     1       0.219  12.054   4.688  1.00  0.00     0.171 C 
BRANCH  45  46
ATOM     46  N   UNL     1       0.754  11.361   5.852  1.00  0.00    -0.342 N 
ATOM     47  C   UNL     1       1.941  11.718   6.440  1.00  0.00     0.247 C 
ATOM     48  O   UNL     1       2.602  12.691   6.074  1.00  0.00    -0.273 OA
ATOM     49  H   UNL     1       0.210  10.585   6.223  1.00  0.00     0.164 HD
BRANCH  47  50
ATOM     50  C   UNL     1       2.407  10.798   7.577  1.00  0.00     0.212 CG0
ATOM     51  G   UNL     1       2.731  11.686   8.795  1.00  0.00     0.000 G0
BRANCH  50  52
ATOM     52  N   UNL     1       1.297   9.878   7.812  1.00  0.00    -0.339 N 
ATOM     53  C   UNL     1       1.465   8.589   8.256  1.00  0.00     0.243 C 
ATOM     54  O   UNL     1       2.572   8.091   8.438  1.00  0.00    -0.273 OA
ATOM     55  H   UNL     1       0.360  10.196   7.573  1.00  0.00     0.164 HD
BRANCH  53  56
ATOM     56  C   UNL     1       0.155   7.781   8.347  1.00  0.00     0.182 C 
BRANCH  56  57
ATOM     57  N   UNL     1      -0.135   7.101   7.080  1.00  0.00    -0.344 N 
ATOM     58  C   UNL     1       0.181   5.782   6.864  1.00  0.00     0.220 C 
ATOM     59  O   UNL     1       0.790   5.103   7.683  1.00  0.00    -0.275 OA
ATOM     60  H   UNL     1      -0.726   7.596   6.417  1.00  0.00     0.164 HD
BRANCH  58  61
ATOM     61  C   UNL     1      -0.263   5.273   5.505  1.00  0.00     0.100 C 
BRANCH  61  62
ATOM     62  C   UNL     1      -1.726   4.832   5.460  1.00  0.00     0.010 C 
BRANCH  62  63
ATOM     63  C   UNL     1      -1.936   3.329   5.689  1.00  0.00     0.000 C 
BRANCH  63  64
ATOM     64  C   UNL     1      -3.086   2.994   6.636  1.00  0.00    -0.003 C 
ATOM     65  C   UNL     1      -2.603   2.187   7.832  1.00  0.00     0.004 C 
ENDBRANCH  63  64
ENDBRANCH  62  63
ENDBRANCH  61  62
ENDBRANCH  58  61
ENDBRANCH  56  57
BRANCH  56  66
ATOM     66  C   UNL     1      -1.010   8.653   8.813  1.00  0.00     0.157 C 
BRANCH  66  67
ATOM     67  C   UNL     1      -1.930   8.985   7.673  1.00  0.00     0.305 C 
ATOM     68  O   UNL     1      -1.753   9.831   6.810  1.00  0.00    -0.252 OA
BRANCH  67  69
ATOM     69  O   UNL     1      -3.017   8.190   7.646  1.00  0.00    -0.481 OA
ATOM     70  H   UNL     1      -3.127   7.949   6.702  1.00  0.00     0.296 HD
ENDBRANCH  67  69
ENDBRANCH  66  67
ENDBRANCH  56  66
ENDBRANCH  53  56
ENDBRANCH  50  52
ENDBRANCH  47  50
ENDBRANCH  45  46
BRANCH  45  71
ATOM     71  C   UNL     1      -1.055  12.835   5.030  1.00  0.00     0.037 C 
BRANCH  71  72
ATOM     72  C   UNL     1      -1.617  13.581   3.817  1.00  0.00     0.026 C 
BRANCH  72  73
ATOM     73  C   UNL     1      -0.573  14.506   3.195  1.00  0.00     0.146 C 
BRANCH  73  74
ATOM     74  N   UNL     1      -1.097  14.976   1.917  1.00  0.00    -0.254 NA
ATOM     75  C   UNL     1      -0.776  14.323   0.861  1.00  0.00     0.185 C 
ATOM     76  N   UNL     1      -1.243  14.730  -0.330  1.00  0.00    -0.370 N 
ATOM     77  N   UNL     1      -0.001  13.231   0.747  1.00  0.00    -0.370 N 
ATOM     78  H   UNL     1      -1.830  15.552  -0.334  1.00  0.00     0.159 HD
ATOM     79  H   UNL     1      -0.921  14.361  -1.207  1.00  0.00     0.159 HD
ATOM     80  H   UNL     1       0.418  12.810   1.563  1.00  0.00     0.159 HD
ATOM     81  H   UNL     1       0.087  12.734  -0.125  1.00  0.00     0.159 HD
ENDBRANCH  73  74
ENDBRANCH  72  73
ENDBRANCH  71  72
ENDBRANCH  45  71
ENDBRANCH   3  45
TORSDOF 20
ENDMDL
MODEL 10
REMARK VINA RESULT:    -5.257     10.577     15.389
REMARK INTER + INTRA:         -21.737
REMARK INTER:                 -13.924
REMARK INTRA:                  -7.813
REMARK UNBOUND:                -6.644
REMARK SMILES CCCCCC(=O)N[C@H](CC(=O)O)C(=O)N[C@H]1C(=O)N[C@H](CCCN=C(N)N)C(=O)N[C@@H]2CC[C@H](O)N(C2=O)[C@@H](CC(C)C)C(=O)N(C)[C@@H](Cc2ccccc2)C(=O)N[C@H](C(C)C)C(=O)O[C@@H]1C
REMARK SMILES IDX 30 1 31 2 29 3 32 5 35 6 37 7 34 8 38 9 33 10 39 11 36 12
REMARK SMILES IDX 40 14 41 15 42 16 43 17 44 18 45 19 46 20 47 21 48 22 49 23
REMARK SMILES IDX 50 24 51 25 52 26 56 27 53 28 55 29 54 30 57 31 58 32 59 33
REMARK SMILES IDX 60 35 61 36 62 37 63 38 64 39 65 40 66 41 67 42 68 43 21 45
REMARK SMILES IDX 20 46 18 47 19 48 17 50 16 52 14 53 15 54 9 56 8 57 6 58
REMARK SMILES IDX 7 59 5 61 4 62 3 63 2 64 1 65 10 66 11 67 12 68 13 69 22 71
REMARK SMILES IDX 23 72 24 73 25 74 26 75 27 76 28 77
REMARK H PARENT 31 4 36 13 59 34 20 49 16 55 8 60 13 70 27 78 27 79 28 80
REMARK H PARENT 28 81
REMARK Flexibility Score:  259.900
ROOT
ATOM      1  O   UNL     1      -7.400   6.666  -3.103  1.00  0.00    -0.273 OA
ATOM      2  N   UNL     1      -5.592   7.218  -1.815  1.00  0.00    -0.343 N 
ATOM      3  C   UNL     1      -6.893   6.797  -1.988  1.00  0.00     0.243 C 
ATOM      4  H   UNL     1      -5.204   7.301  -0.884  1.00  0.00     0.164 HD
ENDROOT
BRANCH   2   5
ATOM      5  C   UNL     1      -4.791   7.643  -2.958  1.00  0.00     0.171 C 
ATOM      6  C   UNL     1      -1.949   7.526  -3.518  1.00  0.00     0.214 C 
ATOM      7  N   UNL     1      -2.499   8.697  -2.876  1.00  0.00    -0.303 N 
ATOM      8  C   UNL     1      -2.933   6.830  -4.445  1.00  0.00     0.057 C 
ATOM      9  C   UNL     1      -3.838   8.797  -2.535  1.00  0.00     0.247 C 
ATOM     10  C   UNL     1      -4.176   6.442  -3.674  1.00  0.00     0.040 C 
ATOM     11  O   UNL     1      -4.284   9.767  -1.908  1.00  0.00    -0.272 OA
BRANCH   6  12
ATOM     12  O   UNL     1      -1.517   6.644  -2.508  1.00  0.00    -0.373 OA
ATOM     13  H   UNL     1      -0.553   6.513  -2.634  1.00  0.00     0.213 HD
ENDBRANCH   6  12
BRANCH   7  14
ATOM     14  C   UNL     1      -1.542   9.743  -2.457  1.00  0.00     0.177 C 
BRANCH  14  15
ATOM     15  C   UNL     1      -0.797   9.461  -1.138  1.00  0.00     0.038 C 
BRANCH  15  16
ATOM     16  C   UNL     1      -1.168  10.259   0.131  1.00  0.00    -0.015 C 
ATOM     17  C   UNL     1      -2.169   9.513   1.019  1.00  0.00     0.007 C 
ATOM     18  C   UNL     1      -1.789  11.605  -0.265  1.00  0.00     0.007 C 
ENDBRANCH  15  16
ENDBRANCH  14  15
BRANCH  14  19
ATOM     19  C   UNL     1      -0.926  10.451  -3.713  1.00  0.00     0.245 C 
ATOM     20  O   UNL     1       0.307  10.605  -3.720  1.00  0.00    -0.272 OA
BRANCH  19  21
ATOM     21  N   UNL     1      -1.679  10.999  -4.736  1.00  0.00    -0.332 N 
ATOM     22  C   UNL     1      -2.809  11.895  -4.564  1.00  0.00     0.147 C 
BRANCH  21  23
ATOM     23  C   UNL     1      -1.318  10.641  -6.135  1.00  0.00     0.178 C 
BRANCH  23  24
ATOM     24  C   UNL     1      -1.960   9.339  -6.655  1.00  0.00     0.070 C 
BRANCH  24  25
ATOM     25  C   UNL     1      -3.367   9.435  -7.199  1.00  0.00    -0.045 A 
ATOM     26  C   UNL     1      -3.602   9.455  -8.580  1.00  0.00     0.004 A 
ATOM     27  C   UNL     1      -4.461   9.511  -6.324  1.00  0.00     0.004 A 
ATOM     28  C   UNL     1      -4.903   9.561  -9.075  1.00  0.00     0.000 A 
ATOM     29  C   UNL     1      -5.761   9.616  -6.820  1.00  0.00     0.000 A 
ATOM     30  C   UNL     1      -5.981   9.644  -8.196  1.00  0.00     0.000 A 
ENDBRANCH  24  25
ENDBRANCH  23  24
BRANCH  23  31
ATOM     31  C   UNL     1      -1.403  11.842  -7.107  1.00  0.00     0.243 C 
ATOM     32  O   UNL     1      -2.085  12.843  -6.904  1.00  0.00    -0.273 OA
ATOM     33  N   UNL     1      -0.784  11.613  -8.325  1.00  0.00    -0.341 N 
ATOM     34  H   UNL     1      -0.234  10.758  -8.437  1.00  0.00     0.164 HD
BRANCH  33  35
ATOM     35  C   UNL     1      -0.839  12.563  -9.440  1.00  0.00     0.194 C 
BRANCH  35  36
ATOM     36  C   UNL     1      -1.918  12.226 -10.508  1.00  0.00     0.017 C 
ATOM     37  C   UNL     1      -1.526  12.775 -11.890  1.00  0.00     0.010 C 
ATOM     38  C   UNL     1      -3.303  12.788 -10.166  1.00  0.00     0.010 C 
ENDBRANCH  35  36
BRANCH  35  39
ATOM     39  C   UNL     1       0.554  12.814 -10.081  1.00  0.00     0.329 C 
ATOM     40  O   UNL     1       1.311  11.923 -10.448  1.00  0.00    -0.250 OA
BRANCH  39  41
ATOM     41  O   UNL     1       0.808  14.144 -10.271  1.00  0.00    -0.458 OA
BRANCH  41  42
ATOM     42  C   UNL     1       2.009  14.469 -11.010  1.00  0.00     0.205 CG0
ATOM     43  C   UNL     1       3.019  15.031 -10.012  1.00  0.00     0.056 C 
ATOM     44  G   UNL     1       1.647  15.481 -12.116  1.00  0.00     0.000 G0
ENDBRANCH  41  42
ENDBRANCH  39  41
ENDBRANCH  35  39
ENDBRANCH  33  35
ENDBRANCH  23  31
ENDBRANCH  21  23
ENDBRANCH  19  21
ENDBRANCH  14  19
ENDBRANCH   7  14
ENDBRANCH   2   5
BRANCH   3  45
ATOM     45  C   UNL     1      -7.659   6.484  -0.696  1.00  0.00     0.171 C 
BRANCH  45  46
ATOM     46  N   UNL     1      -7.861   5.041  -0.698  1.00  0.00    -0.342 N 
ATOM     47  C   UNL     1      -7.757   4.282   0.441  1.00  0.00     0.247 C 
ATOM     48  O   UNL     1      -7.560   4.770   1.554  1.00  0.00    -0.273 OA
ATOM     49  H   UNL     1      -8.082   4.603  -1.590  1.00  0.00     0.164 HD
BRANCH  47  50
ATOM     50  C   UNL     1      -7.878   2.767   0.225  1.00  0.00     0.212 CG0
ATOM     51  G   UNL     1      -8.703   2.192   1.394  1.00  0.00     0.000 G0
BRANCH  50  52
ATOM     52  N   UNL     1      -8.529   2.609  -1.073  1.00  0.00    -0.339 N 
ATOM     53  C   UNL     1      -8.105   1.717  -2.028  1.00  0.00     0.243 C 
ATOM     54  O   UNL     1      -7.106   1.017  -1.883  1.00  0.00    -0.273 OA
ATOM     55  H   UNL     1      -9.296   3.240  -1.297  1.00  0.00     0.164 HD
BRANCH  53  56
ATOM     56  C   UNL     1      -8.895   1.791  -3.351  1.00  0.00     0.182 C 
BRANCH  56  57
ATOM     57  N   UNL     1      -8.046   2.273  -4.445  1.00  0.00    -0.344 N 
ATOM     58  C   UNL     1      -7.618   1.453  -5.460  1.00  0.00     0.220 C 
ATOM     59  O   UNL     1      -7.854   0.250  -5.486  1.00  0.00    -0.275 OA
ATOM     60  H   UNL     1      -7.913   3.278  -4.516  1.00  0.00     0.164 HD
BRANCH  58  61
ATOM     61  C   UNL     1      -6.800   2.176  -6.514  1.00  0.00     0.100 C 
BRANCH  61  62
ATOM     62  C   UNL     1      -7.085   3.676  -6.592  1.00  0.00     0.010 C 
BRANCH  62  63
ATOM     63  C   UNL     1      -5.864   4.562  -6.314  1.00  0.00     0.000 C 
BRANCH  63  64
ATOM     64  C   UNL     1      -5.886   5.906  -7.041  1.00  0.00    -0.003 C 
ATOM     65  C   UNL     1      -4.863   5.946  -8.166  1.00  0.00     0.004 C 
ENDBRANCH  63  64
ENDBRANCH  62  63
ENDBRANCH  61  62
ENDBRANCH  58  61
ENDBRANCH  56  57
BRANCH  56  66
ATOM     66  C   UNL     1     -10.166   2.624  -3.198  1.00  0.00     0.157 C 
BRANCH  66  67
ATOM     67  C   UNL     1     -10.096   3.879  -4.019  1.00  0.00     0.305 C 
ATOM     68  O   UNL     1     -10.464   4.020  -5.175  1.00  0.00    -0.252 OA
BRANCH  67  69
ATOM     69  O   UNL     1      -9.608   4.921  -3.320  1.00  0.00    -0.481 OA
ATOM     70  H   UNL     1      -9.133   5.467  -3.982  1.00  0.00     0.296 HD
ENDBRANCH  67  69
ENDBRANCH  66  67
ENDBRANCH  56  66
ENDBRANCH  53  56
ENDBRANCH  50  52
ENDBRANCH  47  50
ENDBRANCH  45  46
BRANCH  45  71
ATOM     71  C   UNL     1      -8.992   7.241  -0.668  1.00  0.00     0.037 C 
BRANCH  71  72
ATOM     72  C   UNL     1      -9.291   7.829   0.713  1.00  0.00     0.026 C 
BRANCH  72  73
ATOM     73  C   UNL     1      -9.122   9.347   0.724  1.00  0.00     0.146 C 
BRANCH  73  74
ATOM     74  N   UNL     1      -7.767   9.643   1.178  1.00  0.00    -0.254 NA
ATOM     75  C   UNL     1      -6.937  10.111   0.321  1.00  0.00     0.185 C 
ATOM     76  N   UNL     1      -5.683  10.395   0.709  1.00  0.00    -0.370 N 
ATOM     77  N   UNL     1      -7.130  10.382  -0.982  1.00  0.00    -0.370 N 
ATOM     78  H   UNL     1      -5.451  10.213   1.675  1.00  0.00     0.159 HD
ATOM     79  H   UNL     1      -4.943  10.624   0.069  1.00  0.00     0.159 HD
ATOM     80  H   UNL     1      -8.028  10.222  -1.412  1.00  0.00     0.159 HD
ATOM     81  H   UNL     1      -6.433  10.858  -1.531  1.00  0.00     0.159 HD
ENDBRANCH  73  74
ENDBRANCH  72  73
ENDBRANCH  71  72
ENDBRANCH  45  71
ENDBRANCH   3  45
TORSDOF 20
ENDMDL
MODEL 11
REMARK VINA RESULT:    -5.251      3.083      6.765
REMARK INTER + INTRA:         -21.718
REMARK INTER:                 -14.591
REMARK INTRA:                  -7.127
REMARK UNBOUND:                -6.644
REMARK SMILES CCCCCC(=O)N[C@H](CC(=O)O)C(=O)N[C@H]1C(=O)N[C@H](CCCN=C(N)N)C(=O)N[C@@H]2CC[C@H](O)N(C2=O)[C@@H](CC(C)C)C(=O)N(C)[C@@H](Cc2ccccc2)C(=O)N[C@H](C(C)C)C(=O)O[C@@H]1C
REMARK SMILES IDX 30 1 31 2 29 3 32 5 35 6 37 7 34 8 38 9 33 10 39 11 36 12
REMARK SMILES IDX 40 14 41 15 42 16 43 17 44 18 45 19 46 20 47 21 48 22 49 23
REMARK SMILES IDX 50 24 51 25 52 26 56 27 53 28 55 29 54 30 57 31 58 32 59 33
REMARK SMILES IDX 60 35 61 36 62 37 63 38 64 39 65 40 66 41 67 42 68 43 21 45
REMARK SMILES IDX 20 46 18 47 19 48 17 50 16 52 14 53 15 54 9 56 8 57 6 58
REMARK SMILES IDX 7 59 5 61 4 62 3 63 2 64 1 65 10 66 11 67 12 68 13 69 22 71
REMARK SMILES IDX 23 72 24 73 25 74 26 75 27 76 28 77
REMARK H PARENT 31 4 36 13 59 34 20 49 16 55 8 60 13 70 27 78 27 79 28 80
REMARK H PARENT 28 81
REMARK Flexibility Score:  259.900
ROOT
ATOM      1  O   UNL     1      -4.396   8.313  12.132  1.00  0.00    -0.273 OA
ATOM      2  N   UNL     1      -3.375  10.342  12.397  1.00  0.00    -0.343 N 
ATOM      3  C   UNL     1      -4.444   9.541  12.058  1.00  0.00     0.243 C 
ATOM      4  H   UNL     1      -3.455  11.350  12.338  1.00  0.00     0.164 HD
ENDROOT
BRANCH   2   5
ATOM      5  C   UNL     1      -2.088   9.752  12.749  1.00  0.00     0.171 C 
ATOM      6  C   UNL     1       0.586  10.854  12.960  1.00  0.00     0.214 C 
ATOM      7  N   UNL     1       0.146  10.291  11.704  1.00  0.00    -0.303 N 
ATOM      8  C   UNL     1      -0.063  10.203  14.171  1.00  0.00     0.057 C 
ATOM      9  C   UNL     1      -1.134   9.795  11.521  1.00  0.00     0.247 C 
ATOM     10  C   UNL     1      -1.568  10.318  14.070  1.00  0.00     0.040 C 
ATOM     11  O   UNL     1      -1.531   9.394  10.419  1.00  0.00    -0.272 OA
BRANCH   6  12
ATOM     12  O   UNL     1       0.306  12.234  12.934  1.00  0.00    -0.373 OA
ATOM     13  H   UNL     1      -0.469  12.381  13.516  1.00  0.00     0.213 HD
ENDBRANCH   6  12
BRANCH   7  14
ATOM     14  C   UNL     1       1.076  10.396  10.560  1.00  0.00     0.177 C 
BRANCH  14  15
ATOM     15  C   UNL     1       1.949  11.666  10.538  1.00  0.00     0.038 C 
BRANCH  15  16
ATOM     16  C   UNL     1       3.485  11.533  10.441  1.00  0.00    -0.015 C 
ATOM     17  C   UNL     1       4.099  10.923  11.705  1.00  0.00     0.007 C 
ATOM     18  C   UNL     1       4.113  12.915  10.221  1.00  0.00     0.007 C 
ENDBRANCH  15  16
ENDBRANCH  14  15
BRANCH  14  19
ATOM     19  C   UNL     1       1.539   8.970  10.102  1.00  0.00     0.245 C 
ATOM     20  O   UNL     1       1.676   8.114  10.992  1.00  0.00    -0.272 OA
BRANCH  19  21
ATOM     21  N   UNL     1       1.902   8.657   8.805  1.00  0.00    -0.332 N 
ATOM     22  C   UNL     1       1.548   9.421   7.622  1.00  0.00     0.147 C 
BRANCH  21  23
ATOM     23  C   UNL     1       2.715   7.428   8.587  1.00  0.00     0.178 C 
BRANCH  23  24
ATOM     24  C   UNL     1       2.342   6.622   7.326  1.00  0.00     0.070 C 
BRANCH  24  25
ATOM     25  C   UNL     1       1.075   5.799   7.386  1.00  0.00    -0.045 A 
ATOM     26  C   UNL     1       0.964   4.717   8.268  1.00  0.00     0.004 A 
ATOM     27  C   UNL     1      -0.009   6.108   6.551  1.00  0.00     0.004 A 
ATOM     28  C   UNL     1      -0.204   3.951   8.304  1.00  0.00     0.000 A 
ATOM     29  C   UNL     1      -1.175   5.343   6.590  1.00  0.00     0.000 A 
ATOM     30  C   UNL     1      -1.271   4.263   7.465  1.00  0.00     0.000 A 
ENDBRANCH  24  25
ENDBRANCH  23  24
BRANCH  23  31
ATOM     31  C   UNL     1       4.232   7.666   8.783  1.00  0.00     0.243 C 
ATOM     32  O   UNL     1       4.790   7.674   9.877  1.00  0.00    -0.273 OA
ATOM     33  N   UNL     1       4.884   8.056   7.625  1.00  0.00    -0.341 N 
ATOM     34  H   UNL     1       4.364   8.035   6.745  1.00  0.00     0.164 HD
BRANCH  33  35
ATOM     35  C   UNL     1       6.296   8.448   7.598  1.00  0.00     0.194 C 
BRANCH  35  36
ATOM     36  C   UNL     1       6.531   9.982   7.698  1.00  0.00     0.017 C 
ATOM     37  C   UNL     1       6.924  10.396   9.126  1.00  0.00     0.010 C 
ATOM     38  C   UNL     1       5.301  10.808   7.302  1.00  0.00     0.010 C 
ENDBRANCH  35  36
BRANCH  35  39
ATOM     39  C   UNL     1       7.068   7.819   6.405  1.00  0.00     0.329 C 
ATOM     40  O   UNL     1       6.533   7.399   5.386  1.00  0.00    -0.250 OA
BRANCH  39  41
ATOM     41  O   UNL     1       8.424   7.865   6.581  1.00  0.00    -0.458 OA
BRANCH  41  42
ATOM     42  C   UNL     1       9.208   8.241   5.423  1.00  0.00     0.205 CG0
ATOM     43  C   UNL     1       9.926   6.985   4.934  1.00  0.00     0.056 C 
ATOM     44  G   UNL     1      10.187   9.358   5.835  1.00  0.00     0.000 G0
ENDBRANCH  41  42
ENDBRANCH  39  41
ENDBRANCH  35  39
ENDBRANCH  33  35
ENDBRANCH  23  31
ENDBRANCH  21  23
ENDBRANCH  19  21
ENDBRANCH  14  19
ENDBRANCH   7  14
ENDBRANCH   2   5
BRANCH   3  45
ATOM     45  C   UNL     1      -5.705  10.287  11.602  1.00  0.00     0.171 C 
BRANCH  45  46
ATOM     46  N   UNL     1      -6.791   9.320  11.698  1.00  0.00    -0.342 N 
ATOM     47  C   UNL     1      -7.538   9.164  12.839  1.00  0.00     0.247 C 
ATOM     48  O   UNL     1      -7.395   9.874  13.834  1.00  0.00    -0.273 OA
ATOM     49  H   UNL     1      -6.980   8.750  10.876  1.00  0.00     0.164 HD
BRANCH  47  50
ATOM     50  C   UNL     1      -8.554   8.013  12.797  1.00  0.00     0.212 CG0
ATOM     51  G   UNL     1      -9.932   8.619  12.463  1.00  0.00     0.000 G0
BRANCH  50  52
ATOM     52  N   UNL     1      -8.062   7.096  11.772  1.00  0.00    -0.339 N 
ATOM     53  C   UNL     1      -7.189   6.069  12.033  1.00  0.00     0.243 C 
ATOM     54  O   UNL     1      -6.709   5.875  13.147  1.00  0.00    -0.273 OA
ATOM     55  H   UNL     1      -8.337   7.274  10.808  1.00  0.00     0.164 HD
BRANCH  53  56
ATOM     56  C   UNL     1      -6.744   5.289  10.779  1.00  0.00     0.182 C 
BRANCH  56  57
ATOM     57  N   UNL     1      -5.662   4.352  11.097  1.00  0.00    -0.344 N 
ATOM     58  C   UNL     1      -5.886   3.012  11.301  1.00  0.00     0.220 C 
ATOM     59  O   UNL     1      -7.009   2.520  11.304  1.00  0.00    -0.275 OA
ATOM     60  H   UNL     1      -4.711   4.698  11.005  1.00  0.00     0.164 HD
BRANCH  58  61
ATOM     61  C   UNL     1      -4.615   2.223  11.559  1.00  0.00     0.100 C 
BRANCH  61  62
ATOM     62  C   UNL     1      -3.457   2.601  10.635  1.00  0.00     0.010 C 
BRANCH  62  63
ATOM     63  C   UNL     1      -2.452   1.468  10.393  1.00  0.00     0.000 C 
BRANCH  63  64
ATOM     64  C   UNL     1      -2.600   0.777   9.038  1.00  0.00    -0.003 C 
ATOM     65  C   UNL     1      -3.561   1.533   8.132  1.00  0.00     0.004 C 
ENDBRANCH  63  64
ENDBRANCH  62  63
ENDBRANCH  61  62
ENDBRANCH  58  61
ENDBRANCH  56  57
BRANCH  56  66
ATOM     66  C   UNL     1      -6.373   6.232   9.636  1.00  0.00     0.157 C 
BRANCH  66  67
ATOM     67  C   UNL     1      -4.966   5.993   9.169  1.00  0.00     0.305 C 
ATOM     68  O   UNL     1      -4.589   5.134   8.386  1.00  0.00    -0.252 OA
BRANCH  67  69
ATOM     69  O   UNL     1      -4.098   6.889   9.677  1.00  0.00    -0.481 OA
ATOM     70  H   UNL     1      -3.862   6.535  10.560  1.00  0.00     0.296 HD
ENDBRANCH  67  69
ENDBRANCH  66  67
ENDBRANCH  56  66
ENDBRANCH  53  56
ENDBRANCH  50  52
ENDBRANCH  47  50
ENDBRANCH  45  46
BRANCH  45  71
ATOM     71  C   UNL     1      -5.532  10.802  10.169  1.00  0.00     0.037 C 
BRANCH  71  72
ATOM     72  C   UNL     1      -6.183   9.873   9.141  1.00  0.00     0.026 C 
BRANCH  72  73
ATOM     73  C   UNL     1      -5.590  10.075   7.748  1.00  0.00     0.146 C 
BRANCH  73  74
ATOM     74  N   UNL     1      -5.183   8.768   7.242  1.00  0.00    -0.254 NA
ATOM     75  C   UNL     1      -5.996   8.144   6.473  1.00  0.00     0.185 C 
ATOM     76  N   UNL     1      -5.650   6.939   5.990  1.00  0.00    -0.370 N 
ATOM     77  N   UNL     1      -7.213   8.522   6.045  1.00  0.00    -0.370 N 
ATOM     78  H   UNL     1      -4.750   6.576   6.270  1.00  0.00     0.159 HD
ATOM     79  H   UNL     1      -6.287   6.333   5.505  1.00  0.00     0.159 HD
ATOM     80  H   UNL     1      -7.603   9.409   6.325  1.00  0.00     0.159 HD
ATOM     81  H   UNL     1      -7.715   7.997   5.347  1.00  0.00     0.159 HD
ENDBRANCH  73  74
ENDBRANCH  72  73
ENDBRANCH  71  72
ENDBRANCH  45  71
ENDBRANCH   3  45
TORSDOF 20
ENDMDL
MODEL 12
REMARK VINA RESULT:    -5.169      2.894      6.412
REMARK INTER + INTRA:         -21.482
REMARK INTER:                 -16.154
REMARK INTRA:                  -5.327
REMARK UNBOUND:                -6.644
REMARK SMILES CCCCCC(=O)N[C@H](CC(=O)O)C(=O)N[C@H]1C(=O)N[C@H](CCCN=C(N)N)C(=O)N[C@@H]2CC[C@H](O)N(C2=O)[C@@H](CC(C)C)C(=O)N(C)[C@@H](Cc2ccccc2)C(=O)N[C@H](C(C)C)C(=O)O[C@@H]1C
REMARK SMILES IDX 30 1 31 2 29 3 32 5 35 6 37 7 34 8 38 9 33 10 39 11 36 12
REMARK SMILES IDX 40 14 41 15 42 16 43 17 44 18 45 19 46 20 47 21 48 22 49 23
REMARK SMILES IDX 50 24 51 25 52 26 56 27 53 28 55 29 54 30 57 31 58 32 59 33
REMARK SMILES IDX 60 35 61 36 62 37 63 38 64 39 65 40 66 41 67 42 68 43 21 45
REMARK SMILES IDX 20 46 18 47 19 48 17 50 16 52 14 53 15 54 9 56 8 57 6 58
REMARK SMILES IDX 7 59 5 61 4 62 3 63 2 64 1 65 10 66 11 67 12 68 13 69 22 71
REMARK SMILES IDX 23 72 24 73 25 74 26 75 27 76 28 77
REMARK H PARENT 31 4 36 13 59 34 20 49 16 55 8 60 13 70 27 78 27 79 28 80
REMARK H PARENT 28 81
REMARK Flexibility Score:  259.900
ROOT
ATOM      1  O   UNL     1      -3.956   7.605  11.825  1.00  0.00    -0.273 OA
ATOM      2  N   UNL     1      -3.190   9.752  11.639  1.00  0.00    -0.343 N 
ATOM      3  C   UNL     1      -4.175   8.790  11.569  1.00  0.00     0.243 C 
ATOM      4  H   UNL     1      -3.410  10.719  11.435  1.00  0.00     0.164 HD
ENDROOT
BRANCH   2   5
ATOM      5  C   UNL     1      -1.806   9.380  11.907  1.00  0.00     0.171 C 
ATOM      6  C   UNL     1       0.680  10.871  11.829  1.00  0.00     0.214 C 
ATOM      7  N   UNL     1       0.233  10.172  10.646  1.00  0.00    -0.303 N 
ATOM      8  C   UNL     1       0.233  10.209  13.123  1.00  0.00     0.057 C 
ATOM      9  C   UNL     1      -0.969   9.484  10.600  1.00  0.00     0.247 C 
ATOM     10  C   UNL     1      -1.276  10.097  13.148  1.00  0.00     0.040 C 
ATOM     11  O   UNL     1      -1.385   8.961   9.558  1.00  0.00    -0.272 OA
BRANCH   6  12
ATOM     12  O   UNL     1       0.194  12.191  11.758  1.00  0.00    -0.373 OA
ATOM     13  H   UNL     1      -0.162  12.415  12.644  1.00  0.00     0.213 HD
ENDBRANCH   6  12
BRANCH   7  14
ATOM     14  C   UNL     1       1.044  10.340   9.422  1.00  0.00     0.177 C 
BRANCH  14  15
ATOM     15  C   UNL     1       1.361  11.799   9.040  1.00  0.00     0.038 C 
BRANCH  15  16
ATOM     16  C   UNL     1       0.478  12.523   7.999  1.00  0.00    -0.015 C 
ATOM     17  C   UNL     1      -0.303  13.692   8.607  1.00  0.00     0.007 C 
ATOM     18  C   UNL     1      -0.529  11.535   7.397  1.00  0.00     0.007 C 
ENDBRANCH  15  16
ENDBRANCH  14  15
BRANCH  14  19
ATOM     19  C   UNL     1       2.016   9.124   9.243  1.00  0.00     0.245 C 
ATOM     20  O   UNL     1       2.362   8.528  10.276  1.00  0.00    -0.272 OA
BRANCH  19  21
ATOM     21  N   UNL     1       2.584   8.762   8.034  1.00  0.00    -0.332 N 
ATOM     22  C   UNL     1       2.458   9.499   6.789  1.00  0.00     0.147 C 
BRANCH  21  23
ATOM     23  C   UNL     1       3.384   7.507   7.989  1.00  0.00     0.178 C 
BRANCH  23  24
ATOM     24  C   UNL     1       3.004   6.539   6.850  1.00  0.00     0.070 C 
BRANCH  24  25
ATOM     25  C   UNL     1       1.634   5.904   6.916  1.00  0.00    -0.045 A 
ATOM     26  C   UNL     1       1.313   4.993   7.931  1.00  0.00     0.004 A 
ATOM     27  C   UNL     1       0.663   6.215   5.953  1.00  0.00     0.004 A 
ATOM     28  C   UNL     1       0.051   4.398   7.975  1.00  0.00     0.000 A 
ATOM     29  C   UNL     1      -0.599   5.620   5.999  1.00  0.00     0.000 A 
ATOM     30  C   UNL     1      -0.903   4.709   7.009  1.00  0.00     0.000 A 
ENDBRANCH  24  25
ENDBRANCH  23  24
BRANCH  23  31
ATOM     31  C   UNL     1       4.903   7.754   8.154  1.00  0.00     0.243 C 
ATOM     32  O   UNL     1       5.471   7.836   9.240  1.00  0.00    -0.273 OA
ATOM     33  N   UNL     1       5.546   8.060   6.967  1.00  0.00    -0.341 N 
ATOM     34  H   UNL     1       5.018   7.980   6.094  1.00  0.00     0.164 HD
BRANCH  33  35
ATOM     35  C   UNL     1       6.958   8.446   6.900  1.00  0.00     0.194 C 
BRANCH  35  36
ATOM     36  C   UNL     1       7.200   9.981   6.941  1.00  0.00     0.017 C 
ATOM     37  C   UNL     1       8.196  10.361   8.050  1.00  0.00     0.010 C 
ATOM     38  C   UNL     1       5.918  10.789   7.180  1.00  0.00     0.010 C 
ENDBRANCH  35  36
BRANCH  35  39
ATOM     39  C   UNL     1       7.706   7.773   5.715  1.00  0.00     0.329 C 
ATOM     40  O   UNL     1       7.300   7.773   4.559  1.00  0.00    -0.250 OA
BRANCH  39  41
ATOM     41  O   UNL     1       8.914   7.254   6.091  1.00  0.00    -0.458 OA
BRANCH  41  42
ATOM     42  C   UNL     1      10.050   7.614   5.269  1.00  0.00     0.205 CG0
ATOM     43  C   UNL     1      10.794   6.324   4.932  1.00  0.00     0.056 C 
ATOM     44  G   UNL     1      10.926   8.613   6.052  1.00  0.00     0.000 G0
ENDBRANCH  41  42
ENDBRANCH  39  41
ENDBRANCH  35  39
ENDBRANCH  33  35
ENDBRANCH  23  31
ENDBRANCH  21  23
ENDBRANCH  19  21
ENDBRANCH  14  19
ENDBRANCH   7  14
ENDBRANCH   2   5
BRANCH   3  45
ATOM     45  C   UNL     1      -5.566   9.300  11.171  1.00  0.00     0.171 C 
BRANCH  45  46
ATOM     46  N   UNL     1      -6.433   8.129  11.180  1.00  0.00    -0.342 N 
ATOM     47  C   UNL     1      -7.462   7.982  12.075  1.00  0.00     0.247 C 
ATOM     48  O   UNL     1      -7.775   8.857  12.884  1.00  0.00    -0.273 OA
ATOM     49  H   UNL     1      -6.244   7.405  10.489  1.00  0.00     0.164 HD
BRANCH  47  50
ATOM     50  C   UNL     1      -8.187   6.630  12.016  1.00  0.00     0.212 CG0
ATOM     51  G   UNL     1      -9.359   6.771  11.025  1.00  0.00     0.000 G0
BRANCH  50  52
ATOM     52  N   UNL     1      -7.179   5.666  11.584  1.00  0.00    -0.339 N 
ATOM     53  C   UNL     1      -7.023   5.269  10.278  1.00  0.00     0.243 C 
ATOM     54  O   UNL     1      -7.760   5.658   9.376  1.00  0.00    -0.273 OA
ATOM     55  H   UNL     1      -6.609   5.224  12.303  1.00  0.00     0.164 HD
BRANCH  53  56
ATOM     56  C   UNL     1      -5.951   4.179  10.077  1.00  0.00     0.182 C 
BRANCH  56  57
ATOM     57  N   UNL     1      -5.975   3.664   8.705  1.00  0.00    -0.344 N 
ATOM     58  C   UNL     1      -5.109   4.110   7.736  1.00  0.00     0.220 C 
ATOM     59  O   UNL     1      -4.307   5.017   7.930  1.00  0.00    -0.275 OA
ATOM     60  H   UNL     1      -6.551   2.845   8.530  1.00  0.00     0.164 HD
BRANCH  58  61
ATOM     61  C   UNL     1      -5.274   3.397   6.407  1.00  0.00     0.100 C 
BRANCH  61  62
ATOM     62  C   UNL     1      -4.782   1.949   6.419  1.00  0.00     0.010 C 
BRANCH  62  63
ATOM     63  C   UNL     1      -3.255   1.805   6.405  1.00  0.00     0.000 C 
BRANCH  63  64
ATOM     64  C   UNL     1      -2.693   0.973   7.557  1.00  0.00    -0.003 C 
ATOM     65  C   UNL     1      -2.505   1.815   8.811  1.00  0.00     0.004 C 
ENDBRANCH  63  64
ENDBRANCH  62  63
ENDBRANCH  61  62
ENDBRANCH  58  61
ENDBRANCH  56  57
BRANCH  56  66
ATOM     66  C   UNL     1      -6.085   3.064  11.114  1.00  0.00     0.157 C 
BRANCH  66  67
ATOM     67  C   UNL     1      -4.750   2.695  11.692  1.00  0.00     0.305 C 
ATOM     68  O   UNL     1      -3.732   3.371  11.676  1.00  0.00    -0.252 OA
BRANCH  67  69
ATOM     69  O   UNL     1      -4.773   1.502  12.315  1.00  0.00    -0.481 OA
ATOM     70  H   UNL     1      -5.665   1.448  12.719  1.00  0.00     0.296 HD
ENDBRANCH  67  69
ENDBRANCH  66  67
ENDBRANCH  56  66
ENDBRANCH  53  56
ENDBRANCH  50  52
ENDBRANCH  47  50
ENDBRANCH  45  46
BRANCH  45  71
ATOM     71  C   UNL     1      -5.518   9.958   9.788  1.00  0.00     0.037 C 
BRANCH  71  72
ATOM     72  C   UNL     1      -6.500  11.127   9.671  1.00  0.00     0.026 C 
BRANCH  72  73
ATOM     73  C   UNL     1      -7.430  10.960   8.471  1.00  0.00     0.146 C 
BRANCH  73  74
ATOM     74  N   UNL     1      -7.506   9.536   8.160  1.00  0.00    -0.254 NA
ATOM     75  C   UNL     1      -8.664   9.034   7.931  1.00  0.00     0.185 C 
ATOM     76  N   UNL     1      -8.767   7.727   7.640  1.00  0.00    -0.370 N 
ATOM     77  N   UNL     1      -9.863   9.641   7.934  1.00  0.00    -0.370 N 
ATOM     78  H   UNL     1      -7.909   7.193   7.624  1.00  0.00     0.159 HD
ATOM     79  H   UNL     1      -9.643   7.238   7.593  1.00  0.00     0.159 HD
ATOM     80  H   UNL     1      -9.939  10.628   8.133  1.00  0.00     0.159 HD
ATOM     81  H   UNL     1     -10.696   9.168   7.625  1.00  0.00     0.159 HD
ENDBRANCH  73  74
ENDBRANCH  72  73
ENDBRANCH  71  72
ENDBRANCH  45  71
ENDBRANCH   3  45
TORSDOF 20
ENDMDL
MODEL 13
REMARK VINA RESULT:    -5.165     10.210     14.983
REMARK INTER + INTRA:         -21.471
REMARK INTER:                 -15.524
REMARK INTRA:                  -5.946
REMARK UNBOUND:                -6.644
REMARK SMILES CCCCCC(=O)N[C@H](CC(=O)O)C(=O)N[C@H]1C(=O)N[C@H](CCCN=C(N)N)C(=O)N[C@@H]2CC[C@H](O)N(C2=O)[C@@H](CC(C)C)C(=O)N(C)[C@@H](Cc2ccccc2)C(=O)N[C@H](C(C)C)C(=O)O[C@@H]1C
REMARK SMILES IDX 30 1 31 2 29 3 32 5 35 6 37 7 34 8 38 9 33 10 39 11 36 12
REMARK SMILES IDX 40 14 41 15 42 16 43 17 44 18 45 19 46 20 47 21 48 22 49 23
REMARK SMILES IDX 50 24 51 25 52 26 56 27 53 28 55 29 54 30 57 31 58 32 59 33
REMARK SMILES IDX 60 35 61 36 62 37 63 38 64 39 65 40 66 41 67 42 68 43 21 45
REMARK SMILES IDX 20 46 18 47 19 48 17 50 16 52 14 53 15 54 9 56 8 57 6 58
REMARK SMILES IDX 7 59 5 61 4 62 3 63 2 64 1 65 10 66 11 67 12 68 13 69 22 71
REMARK SMILES IDX 23 72 24 73 25 74 26 75 27 76 28 77
REMARK H PARENT 31 4 36 13 59 34 20 49 16 55 8 60 13 70 27 78 27 79 28 80
REMARK H PARENT 28 81
REMARK Flexibility Score:  259.900
ROOT
ATOM      1  O   UNL     1      -8.990   7.297  -1.826  1.00  0.00    -0.273 OA
ATOM      2  N   UNL     1      -6.881   7.146  -0.953  1.00  0.00    -0.343 N 
ATOM      3  C   UNL     1      -8.255   7.085  -0.860  1.00  0.00     0.243 C 
ATOM      4  H   UNL     1      -6.308   6.952  -0.142  1.00  0.00     0.164 HD
ENDROOT
BRANCH   2   5
ATOM      5  C   UNL     1      -6.239   7.586  -2.187  1.00  0.00     0.171 C 
ATOM      6  C   UNL     1      -3.917   6.637  -3.640  1.00  0.00     0.214 C 
ATOM      7  N   UNL     1      -3.757   7.667  -2.641  1.00  0.00    -0.303 N 
ATOM      8  C   UNL     1      -5.277   6.662  -4.319  1.00  0.00     0.057 C 
ATOM      9  C   UNL     1      -4.815   8.130  -1.876  1.00  0.00     0.247 C 
ATOM     10  C   UNL     1      -6.371   6.528  -3.281  1.00  0.00     0.040 C 
ATOM     11  O   UNL     1      -4.655   8.951  -0.963  1.00  0.00    -0.272 OA
BRANCH   6  12
ATOM     12  O   UNL     1      -3.703   5.393  -3.014  1.00  0.00    -0.373 OA
ATOM     13  H   UNL     1      -2.907   5.489  -2.449  1.00  0.00     0.213 HD
ENDBRANCH   6  12
BRANCH   7  14
ATOM     14  C   UNL     1      -2.378   8.116  -2.356  1.00  0.00     0.177 C 
BRANCH  14  15
ATOM     15  C   UNL     1      -1.633   7.305  -1.278  1.00  0.00     0.038 C 
BRANCH  15  16
ATOM     16  C   UNL     1      -0.777   8.044  -0.226  1.00  0.00    -0.015 C 
ATOM     17  C   UNL     1       0.676   8.225  -0.678  1.00  0.00     0.007 C 
ATOM     18  C   UNL     1      -0.775   7.254   1.089  1.00  0.00     0.007 C 
ENDBRANCH  15  16
ENDBRANCH  14  15
BRANCH  14  19
ATOM     19  C   UNL     1      -1.726   8.723  -3.646  1.00  0.00     0.245 C 
ATOM     20  O   UNL     1      -0.746   8.121  -4.114  1.00  0.00    -0.272 OA
BRANCH  19  21
ATOM     21  N   UNL     1      -2.108   9.928  -4.210  1.00  0.00    -0.332 N 
ATOM     22  C   UNL     1      -2.718  11.036  -3.497  1.00  0.00     0.147 C 
BRANCH  21  23
ATOM     23  C   UNL     1      -1.892  10.112  -5.672  1.00  0.00     0.178 C 
BRANCH  23  24
ATOM     24  C   UNL     1      -3.174  10.387  -6.484  1.00  0.00     0.070 C 
BRANCH  24  25
ATOM     25  C   UNL     1      -3.859   9.196  -7.113  1.00  0.00    -0.045 A 
ATOM     26  C   UNL     1      -5.256   9.119  -7.169  1.00  0.00     0.004 A 
ATOM     27  C   UNL     1      -3.100   8.144  -7.647  1.00  0.00     0.004 A 
ATOM     28  C   UNL     1      -5.882   8.007  -7.736  1.00  0.00     0.000 A 
ATOM     29  C   UNL     1      -3.727   7.033  -8.215  1.00  0.00     0.000 A 
ATOM     30  C   UNL     1      -5.118   6.965  -8.256  1.00  0.00     0.000 A 
ENDBRANCH  24  25
ENDBRANCH  23  24
BRANCH  23  31
ATOM     31  C   UNL     1      -0.703  11.049  -5.993  1.00  0.00     0.243 C 
ATOM     32  O   UNL     1       0.182  11.335  -5.190  1.00  0.00    -0.273 OA
ATOM     33  N   UNL     1      -0.819  11.691  -7.214  1.00  0.00    -0.341 N 
ATOM     34  H   UNL     1      -1.581  11.414  -7.837  1.00  0.00     0.164 HD
BRANCH  33  35
ATOM     35  C   UNL     1       0.128  12.711  -7.673  1.00  0.00     0.194 C 
BRANCH  35  36
ATOM     36  C   UNL     1      -0.311  14.170  -7.361  1.00  0.00     0.017 C 
ATOM     37  C   UNL     1       0.501  14.761  -6.196  1.00  0.00     0.010 C 
ATOM     38  C   UNL     1      -1.795  14.290  -6.994  1.00  0.00     0.010 C 
ENDBRANCH  35  36
BRANCH  35  39
ATOM     39  C   UNL     1       0.524  12.530  -9.165  1.00  0.00     0.329 C 
ATOM     40  O   UNL     1       0.723  11.444  -9.695  1.00  0.00    -0.250 OA
BRANCH  39  41
ATOM     41  O   UNL     1       0.543  13.717  -9.845  1.00  0.00    -0.458 OA
BRANCH  41  42
ATOM     42  C   UNL     1       1.745  14.004 -10.599  1.00  0.00     0.205 CG0
ATOM     43  C   UNL     1       2.785  14.529  -9.611  1.00  0.00     0.056 C 
ATOM     44  G   UNL     1       1.403  15.032 -11.696  1.00  0.00     0.000 G0
ENDBRANCH  41  42
ENDBRANCH  39  41
ENDBRANCH  35  39
ENDBRANCH  33  35
ENDBRANCH  23  31
ENDBRANCH  21  23
ENDBRANCH  19  21
ENDBRANCH  14  19
ENDBRANCH   7  14
ENDBRANCH   2   5
BRANCH   3  45
ATOM     45  C   UNL     1      -8.804   6.714   0.523  1.00  0.00     0.171 C 
BRANCH  45  46
ATOM     46  N   UNL     1      -9.047   5.278   0.478  1.00  0.00    -0.342 N 
ATOM     47  C   UNL     1      -8.150   4.364   0.970  1.00  0.00     0.247 C 
ATOM     48  O   UNL     1      -7.113   4.690   1.549  1.00  0.00    -0.273 OA
ATOM     49  H   UNL     1      -9.921   4.966   0.058  1.00  0.00     0.164 HD
BRANCH  47  50
ATOM     50  C   UNL     1      -8.518   2.894   0.724  1.00  0.00     0.212 CG0
ATOM     51  G   UNL     1      -9.807   2.596   1.515  1.00  0.00     0.000 G0
BRANCH  50  52
ATOM     52  N   UNL     1      -8.687   2.772  -0.722  1.00  0.00    -0.339 N 
ATOM     53  C   UNL     1      -8.228   1.701  -1.449  1.00  0.00     0.243 C 
ATOM     54  O   UNL     1      -7.590   0.782  -0.943  1.00  0.00    -0.273 OA
ATOM     55  H   UNL     1      -9.111   3.555  -1.216  1.00  0.00     0.164 HD
BRANCH  53  56
ATOM     56  C   UNL     1      -8.446   1.835  -2.970  1.00  0.00     0.182 C 
BRANCH  56  57
ATOM     57  N   UNL     1      -7.175   1.738  -3.694  1.00  0.00    -0.344 N 
ATOM     58  C   UNL     1      -6.997   0.888  -4.758  1.00  0.00     0.220 C 
ATOM     59  O   UNL     1      -7.860   0.100  -5.130  1.00  0.00    -0.275 OA
ATOM     60  H   UNL     1      -6.471   2.441  -3.485  1.00  0.00     0.164 HD
BRANCH  58  61
ATOM     61  C   UNL     1      -5.622   0.997  -5.392  1.00  0.00     0.100 C 
BRANCH  61  62
ATOM     62  C   UNL     1      -5.620   1.721  -6.738  1.00  0.00     0.010 C 
BRANCH  62  63
ATOM     63  C   UNL     1      -5.830   3.237  -6.636  1.00  0.00     0.000 C 
BRANCH  63  64
ATOM     64  C   UNL     1      -6.262   3.900  -7.943  1.00  0.00    -0.003 C 
ATOM     65  C   UNL     1      -7.754   4.197  -7.948  1.00  0.00     0.004 C 
ENDBRANCH  63  64
ENDBRANCH  62  63
ENDBRANCH  61  62
ENDBRANCH  58  61
ENDBRANCH  56  57
BRANCH  56  66
ATOM     66  C   UNL     1      -9.211   3.111  -3.315  1.00  0.00     0.157 C 
BRANCH  66  67
ATOM     67  C   UNL     1      -9.948   2.967  -4.616  1.00  0.00     0.305 C 
ATOM     68  O   UNL     1     -10.124   3.835  -5.458  1.00  0.00    -0.252 OA
BRANCH  67  69
ATOM     69  O   UNL     1     -10.386   1.711  -4.820  1.00  0.00    -0.481 OA
ATOM     70  H   UNL     1     -10.152   1.228  -4.000  1.00  0.00     0.296 HD
ENDBRANCH  67  69
ENDBRANCH  66  67
ENDBRANCH  56  66
ENDBRANCH  53  56
ENDBRANCH  50  52
ENDBRANCH  47  50
ENDBRANCH  45  46
BRANCH  45  71
ATOM     71  C   UNL     1     -10.090   7.496   0.815  1.00  0.00     0.037 C 
BRANCH  71  72
ATOM     72  C   UNL     1      -9.821   8.988   1.025  1.00  0.00     0.026 C 
BRANCH  72  73
ATOM     73  C   UNL     1      -9.300   9.271   2.432  1.00  0.00     0.146 C 
BRANCH  73  74
ATOM     74  N   UNL     1      -7.941   9.791   2.309  1.00  0.00    -0.254 NA
ATOM     75  C   UNL     1      -7.758  11.043   2.517  1.00  0.00     0.185 C 
ATOM     76  N   UNL     1      -6.519  11.551   2.413  1.00  0.00    -0.370 N 
ATOM     77  N   UNL     1      -8.659  11.986   2.842  1.00  0.00    -0.370 N 
ATOM     78  H   UNL     1      -5.781  10.908   2.163  1.00  0.00     0.159 HD
ATOM     79  H   UNL     1      -6.322  12.536   2.418  1.00  0.00     0.159 HD
ATOM     80  H   UNL     1      -9.632  11.748   2.958  1.00  0.00     0.159 HD
ATOM     81  H   UNL     1      -8.379  12.920   3.094  1.00  0.00     0.159 HD
ENDBRANCH  73  74
ENDBRANCH  72  73
ENDBRANCH  71  72
ENDBRANCH  45  71
ENDBRANCH   3  45
TORSDOF 20
ENDMDL
MODEL 14
REMARK VINA RESULT:    -5.134      4.493     10.362
REMARK INTER + INTRA:         -21.381
REMARK INTER:                 -14.946
REMARK INTRA:                  -6.436
REMARK UNBOUND:                -6.644
REMARK SMILES CCCCCC(=O)N[C@H](CC(=O)O)C(=O)N[C@H]1C(=O)N[C@H](CCCN=C(N)N)C(=O)N[C@@H]2CC[C@H](O)N(C2=O)[C@@H](CC(C)C)C(=O)N(C)[C@@H](Cc2ccccc2)C(=O)N[C@H](C(C)C)C(=O)O[C@@H]1C
REMARK SMILES IDX 30 1 31 2 29 3 32 5 35 6 37 7 34 8 38 9 33 10 39 11 36 12
REMARK SMILES IDX 40 14 41 15 42 16 43 17 44 18 45 19 46 20 47 21 48 22 49 23
REMARK SMILES IDX 50 24 51 25 52 26 56 27 53 28 55 29 54 30 57 31 58 32 59 33
REMARK SMILES IDX 60 35 61 36 62 37 63 38 64 39 65 40 66 41 67 42 68 43 21 45
REMARK SMILES IDX 20 46 18 47 19 48 17 50 16 52 14 53 15 54 9 56 8 57 6 58
REMARK SMILES IDX 7 59 5 61 4 62 3 63 2 64 1 65 10 66 11 67 12 68 13 69 22 71
REMARK SMILES IDX 23 72 24 73 25 74 26 75 27 76 28 77
REMARK H PARENT 31 4 36 13 59 34 20 49 16 55 8 60 13 70 27 78 27 79 28 80
REMARK H PARENT 28 81
REMARK Flexibility Score:  259.900
ROOT
ATOM      1  O   UNL     1      -5.183   8.513   8.976  1.00  0.00    -0.273 OA
ATOM      2  N   UNL     1      -5.211   8.741   6.700  1.00  0.00    -0.343 N 
ATOM      3  C   UNL     1      -4.810   9.111   7.966  1.00  0.00     0.243 C 
ATOM      4  H   UNL     1      -4.873   9.248   5.891  1.00  0.00     0.164 HD
ENDROOT
BRANCH   2   5
ATOM      5  C   UNL     1      -6.201   7.686   6.513  1.00  0.00     0.171 C 
ATOM      6  C   UNL     1      -7.444   5.813   8.344  1.00  0.00     0.214 C 
ATOM      7  N   UNL     1      -6.230   5.436   7.659  1.00  0.00    -0.303 N 
ATOM      8  C   UNL     1      -8.306   6.784   7.552  1.00  0.00     0.057 C 
ATOM      9  C   UNL     1      -5.557   6.301   6.810  1.00  0.00     0.247 C 
ATOM     10  C   UNL     1      -7.508   8.028   7.226  1.00  0.00     0.040 C 
ATOM     11  O   UNL     1      -4.472   6.002   6.295  1.00  0.00    -0.272 OA
BRANCH   6  12
ATOM     12  O   UNL     1      -7.082   6.375   9.584  1.00  0.00    -0.373 OA
ATOM     13  H   UNL     1      -7.708   6.023  10.253  1.00  0.00     0.213 HD
ENDBRANCH   6  12
BRANCH   7  14
ATOM     14  C   UNL     1      -5.639   4.127   8.011  1.00  0.00     0.177 C 
BRANCH  14  15
ATOM     15  C   UNL     1      -5.855   3.682   9.470  1.00  0.00     0.038 C 
BRANCH  15  16
ATOM     16  C   UNL     1      -4.675   3.743  10.466  1.00  0.00    -0.015 C 
ATOM     17  C   UNL     1      -5.109   3.442  11.904  1.00  0.00     0.007 C 
ATOM     18  C   UNL     1      -4.043   5.140  10.437  1.00  0.00     0.007 C 
ENDBRANCH  15  16
ENDBRANCH  14  15
BRANCH  14  19
ATOM     19  C   UNL     1      -5.639   3.178   6.763  1.00  0.00     0.245 C 
ATOM     20  O   UNL     1      -6.735   2.974   6.215  1.00  0.00    -0.272 OA
BRANCH  19  21
ATOM     21  N   UNL     1      -4.526   2.485   6.322  1.00  0.00    -0.332 N 
ATOM     22  C   UNL     1      -4.481   1.613   5.162  1.00  0.00     0.147 C 
BRANCH  21  23
ATOM     23  C   UNL     1      -3.264   2.626   7.101  1.00  0.00     0.178 C 
BRANCH  23  24
ATOM     24  C   UNL     1      -2.699   1.305   7.660  1.00  0.00     0.070 C 
BRANCH  24  25
ATOM     25  C   UNL     1      -2.495   1.222   9.155  1.00  0.00    -0.045 A 
ATOM     26  C   UNL     1      -1.587   2.069   9.804  1.00  0.00     0.004 A 
ATOM     27  C   UNL     1      -3.213   0.287   9.917  1.00  0.00     0.004 A 
ATOM     28  C   UNL     1      -1.392   1.974  11.184  1.00  0.00     0.000 A 
ATOM     29  C   UNL     1      -3.018   0.195  11.296  1.00  0.00     0.000 A 
ATOM     30  C   UNL     1      -2.105   1.037  11.927  1.00  0.00     0.000 A 
ENDBRANCH  24  25
ENDBRANCH  23  24
BRANCH  23  31
ATOM     31  C   UNL     1      -2.224   3.536   6.404  1.00  0.00     0.243 C 
ATOM     32  O   UNL     1      -1.686   3.269   5.333  1.00  0.00    -0.273 OA
ATOM     33  N   UNL     1      -1.810   4.601   7.186  1.00  0.00    -0.341 N 
ATOM     34  H   UNL     1      -2.293   4.770   8.072  1.00  0.00     0.164 HD
BRANCH  33  35
ATOM     35  C   UNL     1      -0.746   5.524   6.780  1.00  0.00     0.194 C 
BRANCH  35  36
ATOM     36  C   UNL     1       0.680   5.080   7.212  1.00  0.00     0.017 C 
ATOM     37  C   UNL     1       0.716   4.685   8.698  1.00  0.00     0.010 C 
ATOM     38  C   UNL     1       1.741   6.167   7.001  1.00  0.00     0.010 C 
ENDBRANCH  35  36
BRANCH  35  39
ATOM     39  C   UNL     1      -1.044   6.995   7.185  1.00  0.00     0.329 C 
ATOM     40  O   UNL     1      -1.561   7.323   8.247  1.00  0.00    -0.250 OA
BRANCH  39  41
ATOM     41  O   UNL     1      -0.586   7.892   6.261  1.00  0.00    -0.458 OA
BRANCH  41  42
ATOM     42  C   UNL     1      -1.499   8.234   5.191  1.00  0.00     0.205 CG0
ATOM     43  C   UNL     1      -1.020   7.509   3.935  1.00  0.00     0.056 C 
ATOM     44  G   UNL     1      -1.505   9.766   5.021  1.00  0.00     0.000 G0
ENDBRANCH  41  42
ENDBRANCH  39  41
ENDBRANCH  35  39
ENDBRANCH  33  35
ENDBRANCH  23  31
ENDBRANCH  21  23
ENDBRANCH  19  21
ENDBRANCH  14  19
ENDBRANCH   7  14
ENDBRANCH   2   5
BRANCH   3  45
ATOM     45  C   UNL     1      -3.850  10.306   8.028  1.00  0.00     0.171 C 
BRANCH  45  46
ATOM     46  N   UNL     1      -2.736   9.963   7.153  1.00  0.00    -0.342 N 
ATOM     47  C   UNL     1      -2.695  10.335   5.833  1.00  0.00     0.247 C 
ATOM     48  O   UNL     1      -3.555  11.045   5.312  1.00  0.00    -0.273 OA
ATOM     49  H   UNL     1      -1.975   9.422   7.560  1.00  0.00     0.164 HD
BRANCH  47  50
ATOM     50  C   UNL     1      -1.506   9.777   5.038  1.00  0.00     0.212 CG0
ATOM     51  G   UNL     1      -1.508   8.245   5.206  1.00  0.00     0.000 G0
BRANCH  50  52
ATOM     52  N   UNL     1      -1.724  10.207   3.659  1.00  0.00    -0.339 N 
ATOM     53  C   UNL     1      -0.838  10.994   2.964  1.00  0.00     0.243 C 
ATOM     54  O   UNL     1       0.187  11.442   3.469  1.00  0.00    -0.273 OA
ATOM     55  H   UNL     1      -2.609   9.959   3.221  1.00  0.00     0.164 HD
BRANCH  53  56
ATOM     56  C   UNL     1      -1.323  11.390   1.554  1.00  0.00     0.182 C 
BRANCH  56  57
ATOM     57  N   UNL     1      -1.812  10.220   0.818  1.00  0.00    -0.344 N 
ATOM     58  C   UNL     1      -1.009   9.144   0.528  1.00  0.00     0.220 C 
ATOM     59  O   UNL     1       0.187   9.117   0.798  1.00  0.00    -0.275 OA
ATOM     60  H   UNL     1      -2.816  10.158   0.665  1.00  0.00     0.164 HD
BRANCH  58  61
ATOM     61  C   UNL     1      -1.740   8.024  -0.190  1.00  0.00     0.100 C 
BRANCH  61  62
ATOM     62  C   UNL     1      -2.136   8.367  -1.626  1.00  0.00     0.010 C 
BRANCH  62  63
ATOM     63  C   UNL     1      -1.023   9.040  -2.440  1.00  0.00     0.000 C 
BRANCH  63  64
ATOM     64  C   UNL     1      -1.359   9.237  -3.917  1.00  0.00    -0.003 C 
ATOM     65  C   UNL     1      -0.361   8.520  -4.814  1.00  0.00     0.004 C 
ENDBRANCH  63  64
ENDBRANCH  62  63
ENDBRANCH  61  62
ENDBRANCH  58  61
ENDBRANCH  56  57
BRANCH  56  66
ATOM     66  C   UNL     1      -0.244  12.148   0.783  1.00  0.00     0.157 C 
BRANCH  66  67
ATOM     67  C   UNL     1      -0.834  12.914  -0.366  1.00  0.00     0.305 C 
ATOM     68  O   UNL     1      -1.793  13.671  -0.327  1.00  0.00    -0.252 OA
BRANCH  67  69
ATOM     69  O   UNL     1      -0.148  12.730  -1.510  1.00  0.00    -0.481 OA
ATOM     70  H   UNL     1      -0.326  11.799  -1.760  1.00  0.00     0.296 HD
ENDBRANCH  67  69
ENDBRANCH  66  67
ENDBRANCH  56  66
ENDBRANCH  53  56
ENDBRANCH  50  52
ENDBRANCH  47  50
ENDBRANCH  45  46
BRANCH  45  71
ATOM     71  C   UNL     1      -3.385  10.543   9.469  1.00  0.00     0.037 C 
BRANCH  71  72
ATOM     72  C   UNL     1      -2.118  11.400   9.532  1.00  0.00     0.026 C 
BRANCH  72  73
ATOM     73  C   UNL     1      -0.887  10.556   9.857  1.00  0.00     0.146 C 
BRANCH  73  74
ATOM     74  N   UNL     1      -0.075  10.465   8.647  1.00  0.00    -0.254 NA
ATOM     75  C   UNL     1       0.994   9.759   8.695  1.00  0.00     0.185 C 
ATOM     76  N   UNL     1       1.761   9.655   7.598  1.00  0.00    -0.370 N 
ATOM     77  N   UNL     1       1.501   9.063   9.727  1.00  0.00    -0.370 N 
ATOM     78  H   UNL     1       1.454  10.155   6.776  1.00  0.00     0.159 HD
ATOM     79  H   UNL     1       2.677   9.243   7.600  1.00  0.00     0.159 HD
ATOM     80  H   UNL     1       1.028   9.046  10.618  1.00  0.00     0.159 HD
ATOM     81  H   UNL     1       2.291   8.449   9.613  1.00  0.00     0.159 HD
ENDBRANCH  73  74
ENDBRANCH  72  73
ENDBRANCH  71  72
ENDBRANCH  45  71
ENDBRANCH   3  45
TORSDOF 20
ENDMDL
MODEL 15
REMARK VINA RESULT:    -5.119      3.216      6.461
REMARK INTER + INTRA:         -21.338
REMARK INTER:                 -16.034
REMARK INTRA:                  -5.304
REMARK UNBOUND:                -6.644
REMARK SMILES CCCCCC(=O)N[C@H](CC(=O)O)C(=O)N[C@H]1C(=O)N[C@H](CCCN=C(N)N)C(=O)N[C@@H]2CC[C@H](O)N(C2=O)[C@@H](CC(C)C)C(=O)N(C)[C@@H](Cc2ccccc2)C(=O)N[C@H](C(C)C)C(=O)O[C@@H]1C
REMARK SMILES IDX 30 1 31 2 29 3 32 5 35 6 37 7 34 8 38 9 33 10 39 11 36 12
REMARK SMILES IDX 40 14 41 15 42 16 43 17 44 18 45 19 46 20 47 21 48 22 49 23
REMARK SMILES IDX 50 24 51 25 52 26 56 27 53 28 55 29 54 30 57 31 58 32 59 33
REMARK SMILES IDX 60 35 61 36 62 37 63 38 64 39 65 40 66 41 67 42 68 43 21 45
REMARK SMILES IDX 20 46 18 47 19 48 17 50 16 52 14 53 15 54 9 56 8 57 6 58
REMARK SMILES IDX 7 59 5 61 4 62 3 63 2 64 1 65 10 66 11 67 12 68 13 69 22 71
REMARK SMILES IDX 23 72 24 73 25 74 26 75 27 76 28 77
REMARK H PARENT 31 4 36 13 59 34 20 49 16 55 8 60 13 70 27 78 27 79 28 80
REMARK H PARENT 28 81
REMARK Flexibility Score:  259.900
ROOT
ATOM      1  O   UNL     1      -3.521   8.117  10.946  1.00  0.00    -0.273 OA
ATOM      2  N   UNL     1      -2.283   9.963  10.405  1.00  0.00    -0.343 N 
ATOM      3  C   UNL     1      -3.432   9.202  10.370  1.00  0.00     0.243 C 
ATOM      4  H   UNL     1      -2.251  10.857   9.932  1.00  0.00     0.164 HD
ENDROOT
BRANCH   2   5
ATOM      5  C   UNL     1      -1.072   9.450  11.037  1.00  0.00     0.171 C 
ATOM      6  C   UNL     1       1.350  10.737  11.974  1.00  0.00     0.214 C 
ATOM      7  N   UNL     1       1.288  10.241  10.619  1.00  0.00    -0.303 N 
ATOM      8  C   UNL     1       0.489   9.945  12.945  1.00  0.00     0.057 C 
ATOM      9  C   UNL     1       0.145   9.662  10.092  1.00  0.00     0.247 C 
ATOM     10  C   UNL     1      -0.950   9.950  12.475  1.00  0.00     0.040 C 
ATOM     11  O   UNL     1       0.072   9.318   8.905  1.00  0.00    -0.272 OA
BRANCH   6  12
ATOM     12  O   UNL     1       0.956  12.089  11.956  1.00  0.00    -0.373 OA
ATOM     13  H   UNL     1       0.758  12.343  12.883  1.00  0.00     0.213 HD
ENDBRANCH   6  12
BRANCH   7  14
ATOM     14  C   UNL     1       2.457  10.507   9.754  1.00  0.00     0.177 C 
BRANCH  14  15
ATOM     15  C   UNL     1       3.156  11.859   9.993  1.00  0.00     0.038 C 
BRANCH  15  16
ATOM     16  C   UNL     1       2.761  13.083   9.137  1.00  0.00    -0.015 C 
ATOM     17  C   UNL     1       3.435  13.076   7.762  1.00  0.00     0.007 C 
ATOM     18  C   UNL     1       3.160  14.374   9.861  1.00  0.00     0.007 C 
ENDBRANCH  15  16
ENDBRANCH  14  15
BRANCH  14  19
ATOM     19  C   UNL     1       3.179   9.165   9.387  1.00  0.00     0.245 C 
ATOM     20  O   UNL     1       3.543   8.449  10.335  1.00  0.00    -0.272 OA
BRANCH  19  21
ATOM     21  N   UNL     1       3.524   8.802   8.097  1.00  0.00    -0.332 N 
ATOM     22  C   UNL     1       3.208   9.556   6.897  1.00  0.00     0.147 C 
BRANCH  21  23
ATOM     23  C   UNL     1       4.273   7.529   7.909  1.00  0.00     0.178 C 
BRANCH  23  24
ATOM     24  C   UNL     1       3.718   6.611   6.801  1.00  0.00     0.070 C 
BRANCH  24  25
ATOM     25  C   UNL     1       2.353   6.005   7.030  1.00  0.00    -0.045 A 
ATOM     26  C   UNL     1       2.123   5.142   8.109  1.00  0.00     0.004 A 
ATOM     27  C   UNL     1       1.294   6.296   6.157  1.00  0.00     0.004 A 
ATOM     28  C   UNL     1       0.863   4.572   8.303  1.00  0.00     0.000 A 
ATOM     29  C   UNL     1       0.035   5.727   6.353  1.00  0.00     0.000 A 
ATOM     30  C   UNL     1      -0.179   4.863   7.425  1.00  0.00     0.000 A 
ENDBRANCH  24  25
ENDBRANCH  23  24
BRANCH  23  31
ATOM     31  C   UNL     1       5.807   7.730   7.881  1.00  0.00     0.243 C 
ATOM     32  O   UNL     1       6.512   7.780   8.886  1.00  0.00    -0.273 OA
ATOM     33  N   UNL     1       6.302   8.037   6.625  1.00  0.00    -0.341 N 
ATOM     34  H   UNL     1       5.665   7.985   5.826  1.00  0.00     0.164 HD
BRANCH  33  35
ATOM     35  C   UNL     1       7.705   8.384   6.382  1.00  0.00     0.194 C 
BRANCH  35  36
ATOM     36  C   UNL     1       8.020   9.899   6.532  1.00  0.00     0.017 C 
ATOM     37  C   UNL     1       8.905  10.166   7.762  1.00  0.00     0.010 C 
ATOM     38  C   UNL     1       6.764  10.766   6.673  1.00  0.00     0.010 C 
ENDBRANCH  35  36
BRANCH  35  39
ATOM     39  C   UNL     1       8.238   7.811   5.038  1.00  0.00     0.329 C 
ATOM     40  O   UNL     1       7.520   7.398   4.135  1.00  0.00    -0.250 OA
BRANCH  39  41
ATOM     41  O   UNL     1       9.599   7.899   4.939  1.00  0.00    -0.458 OA
BRANCH  41  42
ATOM     42  C   UNL     1      10.324   6.645   4.932  1.00  0.00     0.205 CG0
ATOM     43  C   UNL     1      11.218   6.631   6.170  1.00  0.00     0.056 C 
ATOM     44  G   UNL     1      11.130   6.551   3.621  1.00  0.00     0.000 G0
ENDBRANCH  41  42
ENDBRANCH  39  41
ENDBRANCH  35  39
ENDBRANCH  33  35
ENDBRANCH  23  31
ENDBRANCH  21  23
ENDBRANCH  19  21
ENDBRANCH  14  19
ENDBRANCH   7  14
ENDBRANCH   2   5
BRANCH   3  45
ATOM     45  C   UNL     1      -4.599   9.811   9.581  1.00  0.00     0.171 C 
BRANCH  45  46
ATOM     46  N   UNL     1      -5.803   9.184  10.112  1.00  0.00    -0.342 N 
ATOM     47  C   UNL     1      -6.630   9.818  11.006  1.00  0.00     0.247 C 
ATOM     48  O   UNL     1      -6.457  10.983  11.366  1.00  0.00    -0.273 OA
ATOM     49  H   UNL     1      -6.014   8.240   9.796  1.00  0.00     0.164 HD
BRANCH  47  50
ATOM     50  C   UNL     1      -7.779   8.958  11.550  1.00  0.00     0.212 CG0
ATOM     51  G   UNL     1      -9.089   9.742  11.341  1.00  0.00     0.000 G0
BRANCH  50  52
ATOM     52  N   UNL     1      -7.726   7.711  10.791  1.00  0.00    -0.339 N 
ATOM     53  C   UNL     1      -7.424   6.495  11.355  1.00  0.00     0.243 C 
ATOM     54  O   UNL     1      -7.122   6.371  12.539  1.00  0.00    -0.273 OA
ATOM     55  H   UNL     1      -7.858   7.765   9.783  1.00  0.00     0.164 HD
BRANCH  53  56
ATOM     56  C   UNL     1      -7.343   5.336  10.341  1.00  0.00     0.182 C 
BRANCH  56  57
ATOM     57  N   UNL     1      -5.985   4.785  10.280  1.00  0.00    -0.344 N 
ATOM     58  C   UNL     1      -5.655   3.578  10.848  1.00  0.00     0.220 C 
ATOM     59  O   UNL     1      -6.449   2.915  11.506  1.00  0.00    -0.275 OA
ATOM     60  H   UNL     1      -5.327   5.250   9.661  1.00  0.00     0.164 HD
BRANCH  58  61
ATOM     61  C   UNL     1      -4.210   3.178  10.611  1.00  0.00     0.100 C 
BRANCH  61  62
ATOM     62  C   UNL     1      -4.040   1.732  10.143  1.00  0.00     0.010 C 
BRANCH  62  63
ATOM     63  C   UNL     1      -3.678   0.749  11.264  1.00  0.00     0.000 C 
BRANCH  63  64
ATOM     64  C   UNL     1      -2.765   1.335  12.340  1.00  0.00    -0.003 C 
ATOM     65  C   UNL     1      -1.303   1.020  12.060  1.00  0.00     0.004 C 
ENDBRANCH  63  64
ENDBRANCH  62  63
ENDBRANCH  61  62
ENDBRANCH  58  61
ENDBRANCH  56  57
BRANCH  56  66
ATOM     66  C   UNL     1      -7.857   5.758   8.966  1.00  0.00     0.157 C 
BRANCH  66  67
ATOM     67  C   UNL     1      -7.425   4.788   7.903  1.00  0.00     0.305 C 
ATOM     68  O   UNL     1      -6.511   4.934   7.106  1.00  0.00    -0.252 OA
BRANCH  67  69
ATOM     69  O   UNL     1      -8.140   3.647   7.931  1.00  0.00    -0.481 OA
ATOM     70  H   UNL     1      -7.475   2.933   7.840  1.00  0.00     0.296 HD
ENDBRANCH  67  69
ENDBRANCH  66  67
ENDBRANCH  56  66
ENDBRANCH  53  56
ENDBRANCH  50  52
ENDBRANCH  47  50
ENDBRANCH  45  46
BRANCH  45  71
ATOM     71  C   UNL     1      -4.432   9.536   8.083  1.00  0.00     0.037 C 
BRANCH  71  72
ATOM     72  C   UNL     1      -5.089   8.218   7.663  1.00  0.00     0.026 C 
BRANCH  72  73
ATOM     73  C   UNL     1      -6.293   8.457   6.754  1.00  0.00     0.146 C 
BRANCH  73  74
ATOM     74  N   UNL     1      -7.455   8.696   7.606  1.00  0.00    -0.254 NA
ATOM     75  C   UNL     1      -8.553   9.035   7.038  1.00  0.00     0.185 C 
ATOM     76  N   UNL     1      -9.640   9.260   7.795  1.00  0.00    -0.370 N 
ATOM     77  N   UNL     1      -8.810   9.212   5.731  1.00  0.00    -0.370 N 
ATOM     78  H   UNL     1      -9.532   9.156   8.794  1.00  0.00     0.159 HD
ATOM     79  H   UNL     1     -10.488   9.666   7.439  1.00  0.00     0.159 HD
ATOM     80  H   UNL     1      -8.086   9.074   5.042  1.00  0.00     0.159 HD
ATOM     81  H   UNL     1      -9.745   9.368   5.392  1.00  0.00     0.159 HD
ENDBRANCH  73  74
ENDBRANCH  72  73
ENDBRANCH  71  72
ENDBRANCH  45  71
ENDBRANCH   3  45
TORSDOF 20
ENDMDL
MODEL 16
REMARK VINA RESULT:    -5.058      4.265      7.708
REMARK INTER + INTRA:         -21.165
REMARK INTER:                 -15.631
REMARK INTRA:                  -5.534
REMARK UNBOUND:                -6.644
REMARK SMILES CCCCCC(=O)N[C@H](CC(=O)O)C(=O)N[C@H]1C(=O)N[C@H](CCCN=C(N)N)C(=O)N[C@@H]2CC[C@H](O)N(C2=O)[C@@H](CC(C)C)C(=O)N(C)[C@@H](Cc2ccccc2)C(=O)N[C@H](C(C)C)C(=O)O[C@@H]1C
REMARK SMILES IDX 30 1 31 2 29 3 32 5 35 6 37 7 34 8 38 9 33 10 39 11 36 12
REMARK SMILES IDX 40 14 41 15 42 16 43 17 44 18 45 19 46 20 47 21 48 22 49 23
REMARK SMILES IDX 50 24 51 25 52 26 56 27 53 28 55 29 54 30 57 31 58 32 59 33
REMARK SMILES IDX 60 35 61 36 62 37 63 38 64 39 65 40 66 41 67 42 68 43 21 45
REMARK SMILES IDX 20 46 18 47 19 48 17 50 16 52 14 53 15 54 9 56 8 57 6 58
REMARK SMILES IDX 7 59 5 61 4 62 3 63 2 64 1 65 10 66 11 67 12 68 13 69 22 71
REMARK SMILES IDX 23 72 24 73 25 74 26 75 27 76 28 77
REMARK H PARENT 31 4 36 13 59 34 20 49 16 55 8 60 13 70 27 78 27 79 28 80
REMARK H PARENT 28 81
REMARK Flexibility Score:  259.900
ROOT
ATOM      1  O   UNL     1      -6.949   3.655   7.477  1.00  0.00    -0.273 OA
ATOM      2  N   UNL     1      -4.866   4.293   8.173  1.00  0.00    -0.343 N 
ATOM      3  C   UNL     1      -6.212   4.071   8.371  1.00  0.00     0.243 C 
ATOM      4  H   UNL     1      -4.286   4.621   8.935  1.00  0.00     0.164 HD
ENDROOT
BRANCH   2   5
ATOM      5  C   UNL     1      -4.279   4.155   6.844  1.00  0.00     0.171 C 
ATOM      6  C   UNL     1      -1.547   3.835   5.927  1.00  0.00     0.214 C 
ATOM      7  N   UNL     1      -2.104   5.162   6.052  1.00  0.00    -0.303 N 
ATOM      8  C   UNL     1      -2.587   2.775   5.597  1.00  0.00     0.057 C 
ATOM      9  C   UNL     1      -3.384   5.388   6.532  1.00  0.00     0.247 C 
ATOM     10  C   UNL     1      -3.666   2.768   6.657  1.00  0.00     0.040 C 
ATOM     11  O   UNL     1      -3.822   6.531   6.718  1.00  0.00    -0.272 OA
BRANCH   6  12
ATOM     12  O   UNL     1      -0.896   3.525   7.137  1.00  0.00    -0.373 OA
ATOM     13  H   UNL     1      -1.592   3.271   7.781  1.00  0.00     0.213 HD
ENDBRANCH   6  12
BRANCH   7  14
ATOM     14  C   UNL     1      -1.196   6.297   5.784  1.00  0.00     0.177 C 
BRANCH  14  15
ATOM     15  C   UNL     1      -1.608   7.204   4.608  1.00  0.00     0.038 C 
BRANCH  15  16
ATOM     16  C   UNL     1      -0.718   7.267   3.347  1.00  0.00    -0.015 C 
ATOM     17  C   UNL     1       0.769   7.404   3.688  1.00  0.00     0.007 C 
ATOM     18  C   UNL     1      -1.125   8.468   2.484  1.00  0.00     0.007 C 
ENDBRANCH  15  16
ENDBRANCH  14  15
BRANCH  14  19
ATOM     19  C   UNL     1      -0.530   6.787   7.116  1.00  0.00     0.245 C 
ATOM     20  O   UNL     1      -0.060   5.911   7.861  1.00  0.00    -0.272 OA
BRANCH  19  21
ATOM     21  N   UNL     1      -0.541   8.102   7.546  1.00  0.00    -0.332 N 
ATOM     22  C   UNL     1      -0.145   9.251   6.751  1.00  0.00     0.147 C 
BRANCH  21  23
ATOM     23  C   UNL     1      -0.983   8.374   8.942  1.00  0.00     0.178 C 
BRANCH  23  24
ATOM     24  C   UNL     1      -0.173   9.464   9.674  1.00  0.00     0.070 C 
BRANCH  24  25
ATOM     25  C   UNL     1       1.078   9.023  10.397  1.00  0.00    -0.045 A 
ATOM     26  C   UNL     1       2.195   8.566   9.686  1.00  0.00     0.004 A 
ATOM     27  C   UNL     1       1.135   9.062  11.799  1.00  0.00     0.004 A 
ATOM     28  C   UNL     1       3.341   8.143  10.363  1.00  0.00     0.000 A 
ATOM     29  C   UNL     1       2.282   8.641  12.474  1.00  0.00     0.000 A 
ATOM     30  C   UNL     1       3.383   8.179  11.755  1.00  0.00     0.000 A 
ENDBRANCH  24  25
ENDBRANCH  23  24
BRANCH  23  31
ATOM     31  C   UNL     1      -2.519   8.504   9.074  1.00  0.00     0.243 C 
ATOM     32  O   UNL     1      -3.248   7.616   9.507  1.00  0.00    -0.273 OA
ATOM     33  N   UNL     1      -3.030   9.649   8.486  1.00  0.00    -0.341 N 
ATOM     34  H   UNL     1      -2.372  10.351   8.138  1.00  0.00     0.164 HD
BRANCH  33  35
ATOM     35  C   UNL     1      -4.466   9.922   8.387  1.00  0.00     0.194 C 
BRANCH  35  36
ATOM     36  C   UNL     1      -4.910  10.490   7.009  1.00  0.00     0.017 C 
ATOM     37  C   UNL     1      -6.149   9.751   6.473  1.00  0.00     0.010 C 
ATOM     38  C   UNL     1      -3.819  10.395   5.936  1.00  0.00     0.010 C 
ENDBRANCH  35  36
BRANCH  35  39
ATOM     39  C   UNL     1      -4.994  10.785   9.567  1.00  0.00     0.329 C 
ATOM     40  O   UNL     1      -4.575  11.904   9.840  1.00  0.00    -0.250 OA
BRANCH  39  41
ATOM     41  O   UNL     1      -6.041  10.193  10.217  1.00  0.00    -0.458 OA
BRANCH  41  42
ATOM     42  C   UNL     1      -6.333   8.824   9.847  1.00  0.00     0.205 CG0
ATOM     43  C   UNL     1      -7.787   8.780   9.379  1.00  0.00     0.056 C 
ATOM     44  G   UNL     1      -6.080   7.919  11.069  1.00  0.00     0.000 G0
ENDBRANCH  41  42
ENDBRANCH  39  41
ENDBRANCH  35  39
ENDBRANCH  33  35
ENDBRANCH  23  31
ENDBRANCH  21  23
ENDBRANCH  19  21
ENDBRANCH  14  19
ENDBRANCH   7  14
ENDBRANCH   2   5
BRANCH   3  45
ATOM     45  C   UNL     1      -6.722   4.357   9.790  1.00  0.00     0.171 C 
BRANCH  45  46
ATOM     46  N   UNL     1      -6.125   5.630  10.174  1.00  0.00    -0.342 N 
ATOM     47  C   UNL     1      -6.811   6.578  10.891  1.00  0.00     0.247 C 
ATOM     48  O   UNL     1      -7.949   6.395  11.322  1.00  0.00    -0.273 OA
ATOM     49  H   UNL     1      -5.163   5.799   9.885  1.00  0.00     0.164 HD
BRANCH  47  50
ATOM     50  C   UNL     1      -6.064   7.904  11.095  1.00  0.00     0.212 CG0
ATOM     51  G   UNL     1      -6.338   8.789   9.862  1.00  0.00     0.000 G0
BRANCH  50  52
ATOM     52  N   UNL     1      -6.594   8.462  12.336  1.00  0.00    -0.339 N 
ATOM     53  C   UNL     1      -6.049   8.211  13.571  1.00  0.00     0.243 C 
ATOM     54  O   UNL     1      -5.100   7.449  13.733  1.00  0.00    -0.273 OA
ATOM     55  H   UNL     1      -7.449   9.013  12.279  1.00  0.00     0.164 HD
BRANCH  53  56
ATOM     56  C   UNL     1      -6.831   8.839  14.742  1.00  0.00     0.182 C 
BRANCH  56  57
ATOM     57  N   UNL     1      -7.418  10.126  14.353  1.00  0.00    -0.344 N 
ATOM     58  C   UNL     1      -8.715  10.464  14.653  1.00  0.00     0.220 C 
ATOM     59  O   UNL     1      -9.493   9.689  15.200  1.00  0.00    -0.275 OA
ATOM     60  H   UNL     1      -6.782  10.831  13.991  1.00  0.00     0.164 HD
BRANCH  58  61
ATOM     61  C   UNL     1      -9.091  11.864  14.206  1.00  0.00     0.100 C 
BRANCH  61  62
ATOM     62  C   UNL     1     -10.566  12.204  14.416  1.00  0.00     0.010 C 
BRANCH  62  63
ATOM     63  C   UNL     1     -11.454  11.931  13.195  1.00  0.00     0.000 C 
BRANCH  63  64
ATOM     64  C   UNL     1     -12.743  11.177  13.513  1.00  0.00    -0.003 C 
ATOM     65  C   UNL     1     -12.907  10.965  15.011  1.00  0.00     0.004 C 
ENDBRANCH  63  64
ENDBRANCH  62  63
ENDBRANCH  61  62
ENDBRANCH  58  61
ENDBRANCH  56  57
BRANCH  56  66
ATOM     66  C   UNL     1      -5.966   8.956  15.995  1.00  0.00     0.157 C 
BRANCH  66  67
ATOM     67  C   UNL     1      -4.821   9.903  15.779  1.00  0.00     0.305 C 
ATOM     68  O   UNL     1      -4.889  11.113  15.625  1.00  0.00    -0.252 OA
BRANCH  67  69
ATOM     69  O   UNL     1      -3.627   9.280  15.820  1.00  0.00    -0.481 OA
ATOM     70  H   UNL     1      -3.301   9.305  14.895  1.00  0.00     0.296 HD
ENDBRANCH  67  69
ENDBRANCH  66  67
ENDBRANCH  56  66
ENDBRANCH  53  56
ENDBRANCH  50  52
ENDBRANCH  47  50
ENDBRANCH  45  46
BRANCH  45  71
ATOM     71  C   UNL     1      -6.311   3.229  10.743  1.00  0.00     0.037 C 
BRANCH  71  72
ATOM     72  C   UNL     1      -4.949   3.490  11.390  1.00  0.00     0.026 C 
BRANCH  72  73
ATOM     73  C   UNL     1      -4.089   2.228  11.414  1.00  0.00     0.146 C 
BRANCH  73  74
ATOM     74  N   UNL     1      -3.058   2.370  10.391  1.00  0.00    -0.254 NA
ATOM     75  C   UNL     1      -1.846   2.119  10.723  1.00  0.00     0.185 C 
ATOM     76  N   UNL     1      -0.875   2.239   9.804  1.00  0.00    -0.370 N 
ATOM     77  N   UNL     1      -1.359   1.730  11.915  1.00  0.00    -0.370 N 
ATOM     78  H   UNL     1      -1.154   2.536   8.880  1.00  0.00     0.159 HD
ATOM     79  H   UNL     1       0.105   2.201  10.024  1.00  0.00     0.159 HD
ATOM     80  H   UNL     1      -1.976   1.594  12.702  1.00  0.00     0.159 HD
ATOM     81  H   UNL     1      -0.399   1.449  12.028  1.00  0.00     0.159 HD
ENDBRANCH  73  74
ENDBRANCH  72  73
ENDBRANCH  71  72
ENDBRANCH  45  71
ENDBRANCH   3  45
TORSDOF 20
ENDMDL
MODEL 17
REMARK VINA RESULT:    -4.952      3.885      7.038
REMARK INTER + INTRA:         -20.859
REMARK INTER:                 -15.360
REMARK INTRA:                  -5.499
REMARK UNBOUND:                -6.644
REMARK SMILES CCCCCC(=O)N[C@H](CC(=O)O)C(=O)N[C@H]1C(=O)N[C@H](CCCN=C(N)N)C(=O)N[C@@H]2CC[C@H](O)N(C2=O)[C@@H](CC(C)C)C(=O)N(C)[C@@H](Cc2ccccc2)C(=O)N[C@H](C(C)C)C(=O)O[C@@H]1C
REMARK SMILES IDX 30 1 31 2 29 3 32 5 35 6 37 7 34 8 38 9 33 10 39 11 36 12
REMARK SMILES IDX 40 14 41 15 42 16 43 17 44 18 45 19 46 20 47 21 48 22 49 23
REMARK SMILES IDX 50 24 51 25 52 26 56 27 53 28 55 29 54 30 57 31 58 32 59 33
REMARK SMILES IDX 60 35 61 36 62 37 63 38 64 39 65 40 66 41 67 42 68 43 21 45
REMARK SMILES IDX 20 46 18 47 19 48 17 50 16 52 14 53 15 54 9 56 8 57 6 58
REMARK SMILES IDX 7 59 5 61 4 62 3 63 2 64 1 65 10 66 11 67 12 68 13 69 22 71
REMARK SMILES IDX 23 72 24 73 25 74 26 75 27 76 28 77
REMARK H PARENT 31 4 36 13 59 34 20 49 16 55 8 60 13 70 27 78 27 79 28 80
REMARK H PARENT 28 81
REMARK Flexibility Score:  259.900
ROOT
ATOM      1  O   UNL     1      -6.384   3.810   9.630  1.00  0.00    -0.273 OA
ATOM      2  N   UNL     1      -4.149   4.274   9.485  1.00  0.00    -0.343 N 
ATOM      3  C   UNL     1      -5.295   3.961  10.184  1.00  0.00     0.243 C 
ATOM      4  H   UNL     1      -3.268   4.376   9.973  1.00  0.00     0.164 HD
ENDROOT
BRANCH   2   5
ATOM      5  C   UNL     1      -4.206   4.558   8.055  1.00  0.00     0.171 C 
ATOM      6  C   UNL     1      -2.344   4.089   5.883  1.00  0.00     0.214 C 
ATOM      7  N   UNL     1      -2.295   5.340   6.603  1.00  0.00    -0.303 N 
ATOM      8  C   UNL     1      -3.735   3.477   5.834  1.00  0.00     0.057 C 
ATOM      9  C   UNL     1      -3.120   5.609   7.683  1.00  0.00     0.247 C 
ATOM     10  C   UNL     1      -4.252   3.267   7.241  1.00  0.00     0.040 C 
ATOM     11  O   UNL     1      -3.013   6.647   8.349  1.00  0.00    -0.272 OA
BRANCH   6  12
ATOM     12  O   UNL     1      -1.438   3.202   6.498  1.00  0.00    -0.373 OA
ATOM     13  H   UNL     1      -0.879   2.824   5.787  1.00  0.00     0.213 HD
ENDBRANCH   6  12
BRANCH   7  14
ATOM     14  C   UNL     1      -1.217   6.283   6.236  1.00  0.00     0.177 C 
BRANCH  14  15
ATOM     15  C   UNL     1      -1.682   7.565   5.519  1.00  0.00     0.038 C 
BRANCH  15  16
ATOM     16  C   UNL     1      -1.202   7.849   4.079  1.00  0.00    -0.015 C 
ATOM     17  C   UNL     1      -0.356   6.707   3.510  1.00  0.00     0.007 C 
ATOM     18  C   UNL     1      -0.358   9.130   4.057  1.00  0.00     0.007 C 
ENDBRANCH  15  16
ENDBRANCH  14  15
BRANCH  14  19
ATOM     19  C   UNL     1      -0.044   6.198   7.273  1.00  0.00     0.245 C 
ATOM     20  O   UNL     1      -0.144   5.335   8.161  1.00  0.00    -0.272 OA
BRANCH  19  21
ATOM     21  N   UNL     1       1.014   7.089   7.315  1.00  0.00    -0.332 N 
ATOM     22  C   UNL     1       1.993   7.284   6.261  1.00  0.00     0.147 C 
BRANCH  21  23
ATOM     23  C   UNL     1       1.180   7.915   8.543  1.00  0.00     0.178 C 
BRANCH  23  24
ATOM     24  C   UNL     1       2.554   8.603   8.677  1.00  0.00     0.070 C 
BRANCH  24  25
ATOM     25  C   UNL     1       3.072   8.837  10.077  1.00  0.00    -0.045 A 
ATOM     26  C   UNL     1       2.849   7.898  11.092  1.00  0.00     0.004 A 
ATOM     27  C   UNL     1       3.784  10.008  10.381  1.00  0.00     0.004 A 
ATOM     28  C   UNL     1       3.316   8.130  12.387  1.00  0.00     0.000 A 
ATOM     29  C   UNL     1       4.251  10.238  11.676  1.00  0.00     0.000 A 
ATOM     30  C   UNL     1       4.015   9.300  12.679  1.00  0.00     0.000 A 
ENDBRANCH  24  25
ENDBRANCH  23  24
BRANCH  23  31
ATOM     31  C   UNL     1      -0.037   8.828   8.826  1.00  0.00     0.243 C 
ATOM     32  O   UNL     1      -0.554   9.562   7.988  1.00  0.00    -0.273 OA
ATOM     33  N   UNL     1      -0.384   8.888  10.165  1.00  0.00    -0.341 N 
ATOM     34  H   UNL     1       0.086   8.256  10.817  1.00  0.00     0.164 HD
BRANCH  33  35
ATOM     35  C   UNL     1      -1.428   9.779  10.680  1.00  0.00     0.194 C 
BRANCH  35  36
ATOM     36  C   UNL     1      -0.987  11.264  10.811  1.00  0.00     0.017 C 
ATOM     37  C   UNL     1       0.425  11.377  11.412  1.00  0.00     0.010 C 
ATOM     38  C   UNL     1      -1.928  12.098  11.689  1.00  0.00     0.010 C 
ENDBRANCH  35  36
BRANCH  35  39
ATOM     39  C   UNL     1      -2.074   9.247  11.990  1.00  0.00     0.329 C 
ATOM     40  O   UNL     1      -1.438   8.927  12.988  1.00  0.00    -0.250 OA
BRANCH  39  41
ATOM     41  O   UNL     1      -3.440   9.259  11.938  1.00  0.00    -0.458 OA
BRANCH  41  42
ATOM     42  C   UNL     1      -4.080   8.001  11.616  1.00  0.00     0.205 CG0
ATOM     43  C   UNL     1      -5.130   8.286  10.544  1.00  0.00     0.056 C 
ATOM     44  G   UNL     1      -4.696   7.419  12.903  1.00  0.00     0.000 G0
ENDBRANCH  41  42
ENDBRANCH  39  41
ENDBRANCH  35  39
ENDBRANCH  33  35
ENDBRANCH  23  31
ENDBRANCH  21  23
ENDBRANCH  19  21
ENDBRANCH  14  19
ENDBRANCH   7  14
ENDBRANCH   2   5
BRANCH   3  45
ATOM     45  C   UNL     1      -5.115   3.793  11.699  1.00  0.00     0.171 C 
BRANCH  45  46
ATOM     46  N   UNL     1      -4.604   5.070  12.179  1.00  0.00    -0.342 N 
ATOM     47  C   UNL     1      -5.430   6.099  12.557  1.00  0.00     0.247 C 
ATOM     48  O   UNL     1      -6.657   5.993  12.588  1.00  0.00    -0.273 OA
ATOM     49  H   UNL     1      -3.593   5.180  12.223  1.00  0.00     0.164 HD
BRANCH  47  50
ATOM     50  C   UNL     1      -4.715   7.409  12.915  1.00  0.00     0.212 CG0
ATOM     51  G   UNL     1      -4.088   7.968  11.623  1.00  0.00     0.000 G0
BRANCH  50  52
ATOM     52  N   UNL     1      -5.748   8.275  13.477  1.00  0.00    -0.339 N 
ATOM     53  C   UNL     1      -5.984   8.392  14.826  1.00  0.00     0.243 C 
ATOM     54  O   UNL     1      -5.377   7.733  15.664  1.00  0.00    -0.273 OA
ATOM     55  H   UNL     1      -6.360   8.764  12.827  1.00  0.00     0.164 HD
BRANCH  53  56
ATOM     56  C   UNL     1      -7.181   9.299  15.176  1.00  0.00     0.182 C 
BRANCH  56  57
ATOM     57  N   UNL     1      -7.589  10.103  14.019  1.00  0.00    -0.344 N 
ATOM     58  C   UNL     1      -8.520   9.664  13.109  1.00  0.00     0.220 C 
ATOM     59  O   UNL     1      -9.019   8.545  13.158  1.00  0.00    -0.275 OA
ATOM     60  H   UNL     1      -7.278  11.071  13.998  1.00  0.00     0.164 HD
BRANCH  58  61
ATOM     61  C   UNL     1      -8.831  10.683  12.028  1.00  0.00     0.100 C 
BRANCH  61  62
ATOM     62  C   UNL     1      -9.995  11.612  12.374  1.00  0.00     0.010 C 
BRANCH  62  63
ATOM     63  C   UNL     1     -10.197  12.762  11.379  1.00  0.00     0.000 C 
BRANCH  63  64
ATOM     64  C   UNL     1     -11.181  12.450  10.252  1.00  0.00    -0.003 C 
ATOM     65  C   UNL     1     -10.898  11.091   9.628  1.00  0.00     0.004 C 
ENDBRANCH  63  64
ENDBRANCH  62  63
ENDBRANCH  61  62
ENDBRANCH  58  61
ENDBRANCH  56  57
BRANCH  56  66
ATOM     66  C   UNL     1      -6.891  10.161  16.403  1.00  0.00     0.157 C 
BRANCH  66  67
ATOM     67  C   UNL     1      -7.768  11.379  16.433  1.00  0.00     0.305 C 
ATOM     68  O   UNL     1      -7.414  12.541  16.306  1.00  0.00    -0.252 OA
BRANCH  67  69
ATOM     69  O   UNL     1      -9.071  11.068  16.572  1.00  0.00    -0.481 OA
ATOM     70  H   UNL     1      -9.122  10.109  16.371  1.00  0.00     0.296 HD
ENDBRANCH  67  69
ENDBRANCH  66  67
ENDBRANCH  56  66
ENDBRANCH  53  56
ENDBRANCH  50  52
ENDBRANCH  47  50
ENDBRANCH  45  46
BRANCH  45  71
ATOM     71  C   UNL     1      -4.142   2.647  11.997  1.00  0.00     0.037 C 
BRANCH  71  72
ATOM     72  C   UNL     1      -4.579   1.335  11.340  1.00  0.00     0.026 C 
BRANCH  72  73
ATOM     73  C   UNL     1      -3.379   0.518  10.866  1.00  0.00     0.146 C 
BRANCH  73  74
ATOM     74  N   UNL     1      -2.241   1.425  10.745  1.00  0.00    -0.254 NA
ATOM     75  C   UNL     1      -1.775   1.648   9.572  1.00  0.00     0.185 C 
ATOM     76  N   UNL     1      -0.730   2.479   9.429  1.00  0.00    -0.370 N 
ATOM     77  N   UNL     1      -2.189   1.156   8.391  1.00  0.00    -0.370 N 
ATOM     78  H   UNL     1      -0.351   2.887  10.271  1.00  0.00     0.159 HD
ATOM     79  H   UNL     1      -0.223   2.588   8.568  1.00  0.00     0.159 HD
ATOM     80  H   UNL     1      -2.970   0.520   8.345  1.00  0.00     0.159 HD
ATOM     81  H   UNL     1      -1.817   1.495   7.519  1.00  0.00     0.159 HD
ENDBRANCH  73  74
ENDBRANCH  72  73
ENDBRANCH  71  72
ENDBRANCH  45  71
ENDBRANCH   3  45
TORSDOF 20
ENDMDL
MODEL 18
REMARK VINA RESULT:    -4.934     10.442     14.451
REMARK INTER + INTRA:         -20.807
REMARK INTER:                 -14.336
REMARK INTRA:                  -6.471
REMARK UNBOUND:                -6.644
REMARK SMILES CCCCCC(=O)N[C@H](CC(=O)O)C(=O)N[C@H]1C(=O)N[C@H](CCCN=C(N)N)C(=O)N[C@@H]2CC[C@H](O)N(C2=O)[C@@H](CC(C)C)C(=O)N(C)[C@@H](Cc2ccccc2)C(=O)N[C@H](C(C)C)C(=O)O[C@@H]1C
REMARK SMILES IDX 30 1 31 2 29 3 32 5 35 6 37 7 34 8 38 9 33 10 39 11 36 12
REMARK SMILES IDX 40 14 41 15 42 16 43 17 44 18 45 19 46 20 47 21 48 22 49 23
REMARK SMILES IDX 50 24 51 25 52 26 56 27 53 28 55 29 54 30 57 31 58 32 59 33
REMARK SMILES IDX 60 35 61 36 62 37 63 38 64 39 65 40 66 41 67 42 68 43 21 45
REMARK SMILES IDX 20 46 18 47 19 48 17 50 16 52 14 53 15 54 9 56 8 57 6 58
REMARK SMILES IDX 7 59 5 61 4 62 3 63 2 64 1 65 10 66 11 67 12 68 13 69 22 71
REMARK SMILES IDX 23 72 24 73 25 74 26 75 27 76 28 77
REMARK H PARENT 31 4 36 13 59 34 20 49 16 55 8 60 13 70 27 78 27 79 28 80
REMARK H PARENT 28 81
REMARK Flexibility Score:  259.900
ROOT
ATOM      1  O   UNL     1      -4.236   7.016  -7.296  1.00  0.00    -0.273 OA
ATOM      2  N   UNL     1      -6.342   7.901  -7.181  1.00  0.00    -0.343 N 
ATOM      3  C   UNL     1      -5.449   6.852  -7.159  1.00  0.00     0.243 C 
ATOM      4  H   UNL     1      -7.331   7.729  -7.050  1.00  0.00     0.164 HD
ENDROOT
BRANCH   2   5
ATOM      5  C   UNL     1      -5.892   9.253  -7.492  1.00  0.00     0.171 C 
ATOM      6  C   UNL     1      -3.257  10.427  -7.783  1.00  0.00     0.214 C 
ATOM      7  N   UNL     1      -3.901  10.439  -6.490  1.00  0.00    -0.303 N 
ATOM      8  C   UNL     1      -4.238  10.469  -8.944  1.00  0.00     0.057 C 
ATOM      9  C   UNL     1      -5.136   9.851  -6.271  1.00  0.00     0.247 C 
ATOM     10  C   UNL     1      -5.194   9.300  -8.850  1.00  0.00     0.040 C 
ATOM     11  O   UNL     1      -5.641   9.789  -5.142  1.00  0.00    -0.272 OA
BRANCH   6  12
ATOM     12  O   UNL     1      -2.458   9.269  -7.856  1.00  0.00    -0.373 OA
ATOM     13  H   UNL     1      -2.598   8.878  -8.744  1.00  0.00     0.213 HD
ENDBRANCH   6  12
BRANCH   7  14
ATOM     14  C   UNL     1      -3.120  10.980  -5.358  1.00  0.00     0.177 C 
BRANCH  14  15
ATOM     15  C   UNL     1      -1.599  10.745  -5.437  1.00  0.00     0.038 C 
BRANCH  15  16
ATOM     16  C   UNL     1      -0.636  11.947  -5.321  1.00  0.00    -0.015 C 
ATOM     17  C   UNL     1      -0.051  12.360  -6.675  1.00  0.00     0.007 C 
ATOM     18  C   UNL     1       0.525  11.593  -4.383  1.00  0.00     0.007 C 
ENDBRANCH  15  16
ENDBRANCH  14  15
BRANCH  14  19
ATOM     19  C   UNL     1      -3.810  12.266  -4.787  1.00  0.00     0.245 C 
ATOM     20  O   UNL     1      -3.839  13.262  -5.529  1.00  0.00    -0.272 OA
BRANCH  19  21
ATOM     21  N   UNL     1      -4.276  12.380  -3.489  1.00  0.00    -0.332 N 
ATOM     22  C   UNL     1      -5.524  13.010  -3.094  1.00  0.00     0.147 C 
BRANCH  21  23
ATOM     23  C   UNL     1      -3.433  11.823  -2.395  1.00  0.00     0.178 C 
BRANCH  23  24
ATOM     24  C   UNL     1      -3.330  12.716  -1.142  1.00  0.00     0.070 C 
BRANCH  24  25
ATOM     25  C   UNL     1      -2.405  12.252  -0.041  1.00  0.00    -0.045 A 
ATOM     26  C   UNL     1      -2.916  11.788   1.178  1.00  0.00     0.004 A 
ATOM     27  C   UNL     1      -1.014  12.286  -0.224  1.00  0.00     0.004 A 
ATOM     28  C   UNL     1      -2.053  11.377   2.197  1.00  0.00     0.000 A 
ATOM     29  C   UNL     1      -0.154  11.874   0.794  1.00  0.00     0.000 A 
ATOM     30  C   UNL     1      -0.674  11.423   2.005  1.00  0.00     0.000 A 
ENDBRANCH  24  25
ENDBRANCH  23  24
BRANCH  23  31
ATOM     31  C   UNL     1      -3.722  10.330  -2.110  1.00  0.00     0.243 C 
ATOM     32  O   UNL     1      -4.845   9.873  -1.915  1.00  0.00    -0.273 OA
ATOM     33  N   UNL     1      -2.579   9.575  -1.909  1.00  0.00    -0.341 N 
ATOM     34  H   UNL     1      -1.671  10.013  -2.081  1.00  0.00     0.164 HD
BRANCH  33  35
ATOM     35  C   UNL     1      -2.614   8.165  -1.509  1.00  0.00     0.194 C 
BRANCH  35  36
ATOM     36  C   UNL     1      -1.374   7.706  -0.691  1.00  0.00     0.017 C 
ATOM     37  C   UNL     1      -1.542   8.025   0.805  1.00  0.00     0.010 C 
ATOM     38  C   UNL     1      -0.068   8.361  -1.156  1.00  0.00     0.010 C 
ENDBRANCH  35  36
BRANCH  35  39
ATOM     39  C   UNL     1      -2.907   7.213  -2.702  1.00  0.00     0.329 C 
ATOM     40  O   UNL     1      -2.471   7.378  -3.835  1.00  0.00    -0.250 OA
BRANCH  39  41
ATOM     41  O   UNL     1      -3.637   6.119  -2.327  1.00  0.00    -0.458 OA
BRANCH  41  42
ATOM     42  C   UNL     1      -5.073   6.221  -2.483  1.00  0.00     0.205 CG0
ATOM     43  C   UNL     1      -5.666   6.446  -1.094  1.00  0.00     0.056 C 
ATOM     44  G   UNL     1      -5.589   4.926  -3.142  1.00  0.00     0.000 G0
ENDBRANCH  41  42
ENDBRANCH  39  41
ENDBRANCH  35  39
ENDBRANCH  33  35
ENDBRANCH  23  31
ENDBRANCH  21  23
ENDBRANCH  19  21
ENDBRANCH  14  19
ENDBRANCH   7  14
ENDBRANCH   2   5
BRANCH   3  45
ATOM     45  C   UNL     1      -6.068   5.467  -6.928  1.00  0.00     0.171 C 
BRANCH  45  46
ATOM     46  N   UNL     1      -5.613   5.046  -5.610  1.00  0.00    -0.342 N 
ATOM     47  C   UNL     1      -6.318   5.323  -4.465  1.00  0.00     0.247 C 
ATOM     48  O   UNL     1      -7.416   5.879  -4.474  1.00  0.00    -0.273 OA
ATOM     49  H   UNL     1      -4.735   4.532  -5.562  1.00  0.00     0.164 HD
BRANCH  47  50
ATOM     50  C   UNL     1      -5.623   4.911  -3.159  1.00  0.00     0.212 CG0
ATOM     51  G   UNL     1      -5.072   6.191  -2.500  1.00  0.00     0.000 G0
BRANCH  50  52
ATOM     52  N   UNL     1      -6.653   4.249  -2.362  1.00  0.00    -0.339 N 
ATOM     53  C   UNL     1      -6.813   2.885  -2.318  1.00  0.00     0.243 C 
ATOM     54  O   UNL     1      -6.132   2.116  -2.990  1.00  0.00    -0.273 OA
ATOM     55  H   UNL     1      -7.320   4.838  -1.869  1.00  0.00     0.164 HD
BRANCH  53  56
ATOM     56  C   UNL     1      -8.020   2.423  -1.477  1.00  0.00     0.182 C 
BRANCH  56  57
ATOM     57  N   UNL     1      -9.225   3.183  -1.823  1.00  0.00    -0.344 N 
ATOM     58  C   UNL     1     -10.374   2.579  -2.271  1.00  0.00     0.220 C 
ATOM     59  O   UNL     1     -10.450   1.373  -2.483  1.00  0.00    -0.275 OA
ATOM     60  H   UNL     1      -9.238   4.167  -1.567  1.00  0.00     0.164 HD
BRANCH  58  61
ATOM     61  C   UNL     1     -11.512   3.553  -2.512  1.00  0.00     0.100 C 
BRANCH  61  62
ATOM     62  C   UNL     1     -11.898   4.367  -1.276  1.00  0.00     0.010 C 
BRANCH  62  63
ATOM     63  C   UNL     1     -12.344   5.802  -1.585  1.00  0.00     0.000 C 
BRANCH  63  64
ATOM     64  C   UNL     1     -13.169   5.941  -2.864  1.00  0.00    -0.003 C 
ATOM     65  C   UNL     1     -13.442   7.401  -3.193  1.00  0.00     0.004 C 
ENDBRANCH  63  64
ENDBRANCH  62  63
ENDBRANCH  61  62
ENDBRANCH  58  61
ENDBRANCH  56  57
BRANCH  56  66
ATOM     66  C   UNL     1      -7.715   2.476   0.019  1.00  0.00     0.157 C 
BRANCH  66  67
ATOM     67  C   UNL     1      -8.381   3.654   0.668  1.00  0.00     0.305 C 
ATOM     68  O   UNL     1      -8.139   4.835   0.468  1.00  0.00    -0.252 OA
BRANCH  67  69
ATOM     69  O   UNL     1      -9.365   3.286   1.510  1.00  0.00    -0.481 OA
ATOM     70  H   UNL     1      -9.307   3.920   2.256  1.00  0.00     0.296 HD
ENDBRANCH  67  69
ENDBRANCH  66  67
ENDBRANCH  56  66
ENDBRANCH  53  56
ENDBRANCH  50  52
ENDBRANCH  47  50
ENDBRANCH  45  46
BRANCH  45  71
ATOM     71  C   UNL     1      -5.615   4.491  -8.020  1.00  0.00     0.037 C 
BRANCH  71  72
ATOM     72  C   UNL     1      -6.557   3.291  -8.148  1.00  0.00     0.026 C 
BRANCH  72  73
ATOM     73  C   UNL     1      -5.891   2.003  -7.670  1.00  0.00     0.146 C 
BRANCH  73  74
ATOM     74  N   UNL     1      -5.307   2.262  -6.357  1.00  0.00    -0.254 NA
ATOM     75  C   UNL     1      -4.329   1.523  -5.981  1.00  0.00     0.185 C 
ATOM     76  N   UNL     1      -3.769   1.738  -4.779  1.00  0.00    -0.370 N 
ATOM     77  N   UNL     1      -3.736   0.508  -6.633  1.00  0.00    -0.370 N 
ATOM     78  H   UNL     1      -4.161   2.481  -4.218  1.00  0.00     0.159 HD
ATOM     79  H   UNL     1      -3.103   1.114  -4.359  1.00  0.00     0.159 HD
ATOM     80  H   UNL     1      -4.050   0.236  -7.553  1.00  0.00     0.159 HD
ATOM     81  H   UNL     1      -2.897   0.074  -6.285  1.00  0.00     0.159 HD
ENDBRANCH  73  74
ENDBRANCH  72  73
ENDBRANCH  71  72
ENDBRANCH  45  71
ENDBRANCH   3  45
TORSDOF 20
ENDMDL
MODEL 19
REMARK VINA RESULT:    -4.933      2.654      5.589
REMARK INTER + INTRA:         -20.805
REMARK INTER:                 -15.355
REMARK INTRA:                  -5.449
REMARK UNBOUND:                -6.644
REMARK SMILES CCCCCC(=O)N[C@H](CC(=O)O)C(=O)N[C@H]1C(=O)N[C@H](CCCN=C(N)N)C(=O)N[C@@H]2CC[C@H](O)N(C2=O)[C@@H](CC(C)C)C(=O)N(C)[C@@H](Cc2ccccc2)C(=O)N[C@H](C(C)C)C(=O)O[C@@H]1C
REMARK SMILES IDX 30 1 31 2 29 3 32 5 35 6 37 7 34 8 38 9 33 10 39 11 36 12
REMARK SMILES IDX 40 14 41 15 42 16 43 17 44 18 45 19 46 20 47 21 48 22 49 23
REMARK SMILES IDX 50 24 51 25 52 26 56 27 53 28 55 29 54 30 57 31 58 32 59 33
REMARK SMILES IDX 60 35 61 36 62 37 63 38 64 39 65 40 66 41 67 42 68 43 21 45
REMARK SMILES IDX 20 46 18 47 19 48 17 50 16 52 14 53 15 54 9 56 8 57 6 58
REMARK SMILES IDX 7 59 5 61 4 62 3 63 2 64 1 65 10 66 11 67 12 68 13 69 22 71
REMARK SMILES IDX 23 72 24 73 25 74 26 75 27 76 28 77
REMARK H PARENT 31 4 36 13 59 34 20 49 16 55 8 60 13 70 27 78 27 79 28 80
REMARK H PARENT 28 81
REMARK Flexibility Score:  259.900
ROOT
ATOM      1  O   UNL     1      -3.674   7.831  10.327  1.00  0.00    -0.273 OA
ATOM      2  N   UNL     1      -3.078   8.279   8.164  1.00  0.00    -0.343 N 
ATOM      3  C   UNL     1      -3.974   7.881   9.133  1.00  0.00     0.243 C 
ATOM      4  H   UNL     1      -3.364   8.322   7.194  1.00  0.00     0.164 HD
ENDROOT
BRANCH   2   5
ATOM      5  C   UNL     1      -1.686   8.548   8.506  1.00  0.00     0.171 C 
ATOM      6  C   UNL     1       0.459   9.895   7.095  1.00  0.00     0.214 C 
ATOM      7  N   UNL     1       0.288   8.470   6.934  1.00  0.00    -0.303 N 
ATOM      8  C   UNL     1       0.009  10.405   8.455  1.00  0.00     0.057 C 
ATOM      9  C   UNL     1      -0.746   7.773   7.538  1.00  0.00     0.247 C 
ATOM     10  C   UNL     1      -1.443  10.046   8.682  1.00  0.00     0.040 C 
ATOM     11  O   UNL     1      -0.937   6.569   7.326  1.00  0.00    -0.272 OA
BRANCH   6  12
ATOM     12  O   UNL     1      -0.262  10.535   6.067  1.00  0.00    -0.373 OA
ATOM     13  H   UNL     1       0.025  10.130   5.220  1.00  0.00     0.213 HD
ENDBRANCH   6  12
BRANCH   7  14
ATOM     14  C   UNL     1       1.180   7.793   5.970  1.00  0.00     0.177 C 
BRANCH  14  15
ATOM     15  C   UNL     1       1.153   8.363   4.538  1.00  0.00     0.038 C 
BRANCH  15  16
ATOM     16  C   UNL     1       0.558   7.514   3.392  1.00  0.00    -0.015 C 
ATOM     17  C   UNL     1      -0.684   8.160   2.771  1.00  0.00     0.007 C 
ATOM     18  C   UNL     1       0.166   6.129   3.923  1.00  0.00     0.007 C 
ENDBRANCH  15  16
ENDBRANCH  14  15
BRANCH  14  19
ATOM     19  C   UNL     1       2.451   7.240   6.702  1.00  0.00     0.245 C 
ATOM     20  O   UNL     1       2.774   6.066   6.452  1.00  0.00    -0.272 OA
BRANCH  19  21
ATOM     21  N   UNL     1       3.147   7.938   7.672  1.00  0.00    -0.332 N 
ATOM     22  C   UNL     1       3.000   7.762   9.106  1.00  0.00     0.147 C 
BRANCH  21  23
ATOM     23  C   UNL     1       4.125   8.968   7.223  1.00  0.00     0.178 C 
BRANCH  23  24
ATOM     24  C   UNL     1       4.164  10.243   8.091  1.00  0.00     0.070 C 
BRANCH  24  25
ATOM     25  C   UNL     1       4.094  11.569   7.370  1.00  0.00    -0.045 A 
ATOM     26  C   UNL     1       2.901  11.999   6.774  1.00  0.00     0.004 A 
ATOM     27  C   UNL     1       5.229  12.388   7.283  1.00  0.00     0.004 A 
ATOM     28  C   UNL     1       2.849  13.218   6.095  1.00  0.00     0.000 A 
ATOM     29  C   UNL     1       5.175  13.607   6.605  1.00  0.00     0.000 A 
ATOM     30  C   UNL     1       3.985  14.019   6.009  1.00  0.00     0.000 A 
ENDBRANCH  24  25
ENDBRANCH  23  24
BRANCH  23  31
ATOM     31  C   UNL     1       5.510   8.374   6.874  1.00  0.00     0.243 C 
ATOM     32  O   UNL     1       5.735   7.171   6.770  1.00  0.00    -0.273 OA
ATOM     33  N   UNL     1       6.529   9.312   6.869  1.00  0.00    -0.341 N 
ATOM     34  H   UNL     1       6.280  10.299   6.967  1.00  0.00     0.164 HD
BRANCH  33  35
ATOM     35  C   UNL     1       7.939   8.958   6.681  1.00  0.00     0.194 C 
BRANCH  35  36
ATOM     36  C   UNL     1       8.727   8.764   8.008  1.00  0.00     0.017 C 
ATOM     37  C   UNL     1       9.297   7.339   8.116  1.00  0.00     0.010 C 
ATOM     38  C   UNL     1       7.875   9.014   9.258  1.00  0.00     0.010 C 
ENDBRANCH  35  36
BRANCH  35  39
ATOM     39  C   UNL     1       8.671   9.922   5.707  1.00  0.00     0.329 C 
ATOM     40  O   UNL     1       8.214  10.994   5.328  1.00  0.00    -0.250 OA
BRANCH  39  41
ATOM     41  O   UNL     1       9.925   9.482   5.385  1.00  0.00    -0.458 OA
BRANCH  41  42
ATOM     42  C   UNL     1      11.018  10.382   5.687  1.00  0.00     0.205 CG0
ATOM     43  C   UNL     1      11.656  10.784   4.358  1.00  0.00     0.056 C 
ATOM     44  G   UNL     1      12.008   9.658   6.621  1.00  0.00     0.000 G0
ENDBRANCH  41  42
ENDBRANCH  39  41
ENDBRANCH  35  39
ENDBRANCH  33  35
ENDBRANCH  23  31
ENDBRANCH  21  23
ENDBRANCH  19  21
ENDBRANCH  14  19
ENDBRANCH   7  14
ENDBRANCH   2   5
BRANCH   3  45
ATOM     45  C   UNL     1      -5.377   7.524   8.624  1.00  0.00     0.171 C 
BRANCH  45  46
ATOM     46  N   UNL     1      -5.835   6.429   9.468  1.00  0.00    -0.342 N 
ATOM     47  C   UNL     1      -6.661   6.625  10.546  1.00  0.00     0.247 C 
ATOM     48  O   UNL     1      -7.132   7.726  10.835  1.00  0.00    -0.273 OA
ATOM     49  H   UNL     1      -5.514   5.492   9.230  1.00  0.00     0.164 HD
BRANCH  47  50
ATOM     50  C   UNL     1      -6.937   5.373  11.390  1.00  0.00     0.212 CG0
ATOM     51  G   UNL     1      -8.241   4.737  10.870  1.00  0.00     0.000 G0
BRANCH  50  52
ATOM     52  N   UNL     1      -5.767   4.518  11.214  1.00  0.00    -0.339 N 
ATOM     53  C   UNL     1      -5.818   3.146  11.268  1.00  0.00     0.243 C 
ATOM     54  O   UNL     1      -6.850   2.532  11.525  1.00  0.00    -0.273 OA
ATOM     55  H   UNL     1      -4.862   4.971  11.108  1.00  0.00     0.164 HD
BRANCH  53  56
ATOM     56  C   UNL     1      -4.443   2.461  11.139  1.00  0.00     0.182 C 
BRANCH  56  57
ATOM     57  N   UNL     1      -3.957   2.512   9.756  1.00  0.00    -0.344 N 
ATOM     58  C   UNL     1      -2.636   2.727   9.448  1.00  0.00     0.220 C 
ATOM     59  O   UNL     1      -1.786   2.964  10.299  1.00  0.00    -0.275 OA
ATOM     60  H   UNL     1      -4.606   2.221   9.030  1.00  0.00     0.164 HD
BRANCH  58  61
ATOM     61  C   UNL     1      -2.352   2.680   7.958  1.00  0.00     0.100 C 
BRANCH  61  62
ATOM     62  C   UNL     1      -3.222   1.682   7.195  1.00  0.00     0.010 C 
BRANCH  62  63
ATOM     63  C   UNL     1      -3.913   2.268   5.957  1.00  0.00     0.000 C 
BRANCH  63  64
ATOM     64  C   UNL     1      -4.707   3.545   6.228  1.00  0.00    -0.003 C 
ATOM     65  C   UNL     1      -5.629   3.883   5.065  1.00  0.00     0.004 C 
ENDBRANCH  63  64
ENDBRANCH  62  63
ENDBRANCH  61  62
ENDBRANCH  58  61
ENDBRANCH  56  57
BRANCH  56  66
ATOM     66  C   UNL     1      -4.473   1.036  11.688  1.00  0.00     0.157 C 
BRANCH  66  67
ATOM     67  C   UNL     1      -3.460   0.167  11.000  1.00  0.00     0.305 C 
ATOM     68  O   UNL     1      -3.641  -0.528  10.011  1.00  0.00    -0.252 OA
BRANCH  67  69
ATOM     69  O   UNL     1      -2.241   0.255  11.566  1.00  0.00    -0.481 OA
ATOM     70  H   UNL     1      -2.055   1.216  11.609  1.00  0.00     0.296 HD
ENDBRANCH  67  69
ENDBRANCH  66  67
ENDBRANCH  56  66
ENDBRANCH  53  56
ENDBRANCH  50  52
ENDBRANCH  47  50
ENDBRANCH  45  46
BRANCH  45  71
ATOM     71  C   UNL     1      -5.321   7.116   7.148  1.00  0.00     0.037 C 
BRANCH  71  72
ATOM     72  C   UNL     1      -6.250   7.967   6.279  1.00  0.00     0.026 C 
BRANCH  72  73
ATOM     73  C   UNL     1      -5.800   9.426   6.241  1.00  0.00     0.146 C 
BRANCH  73  74
ATOM     74  N   UNL     1      -5.514   9.770   4.852  1.00  0.00    -0.254 NA
ATOM     75  C   UNL     1      -4.303  10.050   4.541  1.00  0.00     0.185 C 
ATOM     76  N   UNL     1      -4.008  10.369   3.271  1.00  0.00    -0.370 N 
ATOM     77  N   UNL     1      -3.213  10.079   5.329  1.00  0.00    -0.370 N 
ATOM     78  H   UNL     1      -4.773  10.379   2.612  1.00  0.00     0.159 HD
ATOM     79  H   UNL     1      -3.118  10.738   2.984  1.00  0.00     0.159 HD
ATOM     80  H   UNL     1      -3.284   9.856   6.311  1.00  0.00     0.159 HD
ATOM     81  H   UNL     1      -2.289  10.201   4.949  1.00  0.00     0.159 HD
ENDBRANCH  73  74
ENDBRANCH  72  73
ENDBRANCH  71  72
ENDBRANCH  45  71
ENDBRANCH   3  45
TORSDOF 20
ENDMDL
MODEL 20
REMARK VINA RESULT:    -4.913      2.959      6.427
REMARK INTER + INTRA:         -20.748
REMARK INTER:                 -15.078
REMARK INTRA:                  -5.670
REMARK UNBOUND:                -6.644
REMARK SMILES CCCCCC(=O)N[C@H](CC(=O)O)C(=O)N[C@H]1C(=O)N[C@H](CCCN=C(N)N)C(=O)N[C@@H]2CC[C@H](O)N(C2=O)[C@@H](CC(C)C)C(=O)N(C)[C@@H](Cc2ccccc2)C(=O)N[C@H](C(C)C)C(=O)O[C@@H]1C
REMARK SMILES IDX 30 1 31 2 29 3 32 5 35 6 37 7 34 8 38 9 33 10 39 11 36 12
REMARK SMILES IDX 40 14 41 15 42 16 43 17 44 18 45 19 46 20 47 21 48 22 49 23
REMARK SMILES IDX 50 24 51 25 52 26 56 27 53 28 55 29 54 30 57 31 58 32 59 33
REMARK SMILES IDX 60 35 61 36 62 37 63 38 64 39 65 40 66 41 67 42 68 43 21 45
REMARK SMILES IDX 20 46 18 47 19 48 17 50 16 52 14 53 15 54 9 56 8 57 6 58
REMARK SMILES IDX 7 59 5 61 4 62 3 63 2 64 1 65 10 66 11 67 12 68 13 69 22 71
REMARK SMILES IDX 23 72 24 73 25 74 26 75 27 76 28 77
REMARK H PARENT 31 4 36 13 59 34 20 49 16 55 8 60 13 70 27 78 27 79 28 80
REMARK H PARENT 28 81
REMARK Flexibility Score:  259.900
ROOT
ATOM      1  O   UNL     1      -3.705   7.799  12.132  1.00  0.00    -0.273 OA
ATOM      2  N   UNL     1      -2.738   9.562  11.044  1.00  0.00    -0.343 N 
ATOM      3  C   UNL     1      -3.801   8.738  11.341  1.00  0.00     0.243 C 
ATOM      4  H   UNL     1      -2.858  10.334  10.400  1.00  0.00     0.164 HD
ENDROOT
BRANCH   2   5
ATOM      5  C   UNL     1      -1.408   9.278  11.572  1.00  0.00     0.171 C 
ATOM      6  C   UNL     1       0.922  10.943  12.027  1.00  0.00     0.214 C 
ATOM      7  N   UNL     1       0.770  10.264  10.761  1.00  0.00    -0.303 N 
ATOM      8  C   UNL     1       0.283  10.199  13.189  1.00  0.00     0.057 C 
ATOM      9  C   UNL     1      -0.342   9.495  10.459  1.00  0.00     0.247 C 
ATOM     10  C   UNL     1      -1.188   9.979  12.911  1.00  0.00     0.040 C 
ATOM     11  O   UNL     1      -0.505   8.987   9.342  1.00  0.00    -0.272 OA
BRANCH   6  12
ATOM     12  O   UNL     1       0.359  12.227  11.896  1.00  0.00    -0.373 OA
ATOM     13  H   UNL     1       1.064  12.874  12.115  1.00  0.00     0.213 HD
ENDBRANCH   6  12
BRANCH   7  14
ATOM     14  C   UNL     1       1.790  10.539   9.727  1.00  0.00     0.177 C 
BRANCH  14  15
ATOM     15  C   UNL     1       2.338  11.979   9.713  1.00  0.00     0.038 C 
BRANCH  15  16
ATOM     16  C   UNL     1       1.918  12.942   8.581  1.00  0.00    -0.015 C 
ATOM     17  C   UNL     1       3.061  13.228   7.602  1.00  0.00     0.007 C 
ATOM     18  C   UNL     1       1.454  14.276   9.180  1.00  0.00     0.007 C 
ENDBRANCH  15  16
ENDBRANCH  14  15
BRANCH  14  19
ATOM     19  C   UNL     1       2.627   9.247   9.431  1.00  0.00     0.245 C 
ATOM     20  O   UNL     1       3.028   8.603  10.415  1.00  0.00    -0.272 OA
BRANCH  19  21
ATOM     21  N   UNL     1       3.028   8.861   8.165  1.00  0.00    -0.332 N 
ATOM     22  C   UNL     1       2.757   9.587   6.937  1.00  0.00     0.147 C 
BRANCH  21  23
ATOM     23  C   UNL     1       3.793   7.590   8.034  1.00  0.00     0.178 C 
BRANCH  23  24
ATOM     24  C   UNL     1       3.316   6.664   6.896  1.00  0.00     0.070 C 
BRANCH  24  25
ATOM     25  C   UNL     1       1.988   5.969   7.085  1.00  0.00    -0.045 A 
ATOM     26  C   UNL     1       0.904   6.253   6.244  1.00  0.00     0.004 A 
ATOM     27  C   UNL     1       1.821   5.029   8.113  1.00  0.00     0.004 A 
ATOM     28  C   UNL     1      -0.326   5.620   6.436  1.00  0.00     0.000 A 
ATOM     29  C   UNL     1       0.591   4.396   8.302  1.00  0.00     0.000 A 
ATOM     30  C   UNL     1      -0.482   4.694   7.465  1.00  0.00     0.000 A 
ENDBRANCH  24  25
ENDBRANCH  23  24
BRANCH  23  31
ATOM     31  C   UNL     1       5.324   7.797   8.107  1.00  0.00     0.243 C 
ATOM     32  O   UNL     1       5.958   7.870   9.157  1.00  0.00    -0.273 OA
ATOM     33  N   UNL     1       5.904   8.080   6.882  1.00  0.00    -0.341 N 
ATOM     34  H   UNL     1       5.323   8.009   6.043  1.00  0.00     0.164 HD
BRANCH  33  35
ATOM     35  C   UNL     1       7.319   8.428   6.729  1.00  0.00     0.194 C 
BRANCH  35  36
ATOM     36  C   UNL     1       7.604   9.956   6.755  1.00  0.00     0.017 C 
ATOM     37  C   UNL     1       8.464  10.344   7.970  1.00  0.00     0.010 C 
ATOM     38  C   UNL     1       6.330  10.808   6.803  1.00  0.00     0.010 C 
ENDBRANCH  35  36
BRANCH  35  39
ATOM     39  C   UNL     1       7.975   7.736   5.502  1.00  0.00     0.329 C 
ATOM     40  O   UNL     1       7.519   7.778   4.365  1.00  0.00    -0.250 OA
BRANCH  39  41
ATOM     41  O   UNL     1       9.168   7.145   5.814  1.00  0.00    -0.458 OA
BRANCH  41  42
ATOM     42  C   UNL     1      10.278   7.436   4.932  1.00  0.00     0.205 CG0
ATOM     43  C   UNL     1      11.265   6.275   5.045  1.00  0.00     0.056 C 
ATOM     44  G   UNL     1      10.901   8.782   5.353  1.00  0.00     0.000 G0
ENDBRANCH  41  42
ENDBRANCH  39  41
ENDBRANCH  35  39
ENDBRANCH  33  35
ENDBRANCH  23  31
ENDBRANCH  21  23
ENDBRANCH  19  21
ENDBRANCH  14  19
ENDBRANCH   7  14
ENDBRANCH   2   5
BRANCH   3  45
ATOM     45  C   UNL     1      -5.119   9.084  10.635  1.00  0.00     0.171 C 
BRANCH  45  46
ATOM     46  N   UNL     1      -6.130   8.234  11.249  1.00  0.00    -0.342 N 
ATOM     47  C   UNL     1      -7.336   8.723  11.685  1.00  0.00     0.247 C 
ATOM     48  O   UNL     1      -7.681   9.894  11.524  1.00  0.00    -0.273 OA
ATOM     49  H   UNL     1      -5.909   7.246  11.350  1.00  0.00     0.164 HD
BRANCH  47  50
ATOM     50  C   UNL     1      -8.223   7.706  12.418  1.00  0.00     0.212 CG0
ATOM     51  G   UNL     1      -9.685   8.171  12.274  1.00  0.00     0.000 G0
BRANCH  50  52
ATOM     52  N   UNL     1      -7.959   6.422  11.772  1.00  0.00    -0.339 N 
ATOM     53  C   UNL     1      -7.024   5.525  12.228  1.00  0.00     0.243 C 
ATOM     54  O   UNL     1      -6.296   5.758  13.189  1.00  0.00    -0.273 OA
ATOM     55  H   UNL     1      -8.453   6.219  10.905  1.00  0.00     0.164 HD
BRANCH  53  56
ATOM     56  C   UNL     1      -6.862   4.279  11.333  1.00  0.00     0.182 C 
BRANCH  56  57
ATOM     57  N   UNL     1      -5.520   4.224  10.746  1.00  0.00    -0.344 N 
ATOM     58  C   UNL     1      -4.694   3.137  10.900  1.00  0.00     0.220 C 
ATOM     59  O   UNL     1      -4.989   2.173  11.597  1.00  0.00    -0.275 OA
ATOM     60  H   UNL     1      -5.278   4.953  10.080  1.00  0.00     0.164 HD
BRANCH  58  61
ATOM     61  C   UNL     1      -3.377   3.274  10.158  1.00  0.00     0.100 C 
BRANCH  61  62
ATOM     62  C   UNL     1      -2.335   2.227  10.554  1.00  0.00     0.010 C 
BRANCH  62  63
ATOM     63  C   UNL     1      -1.600   1.593   9.367  1.00  0.00     0.000 C 
BRANCH  63  64
ATOM     64  C   UNL     1      -2.504   0.816   8.412  1.00  0.00    -0.003 C 
ATOM     65  C   UNL     1      -2.990  -0.482   9.039  1.00  0.00     0.004 C 
ENDBRANCH  63  64
ENDBRANCH  62  63
ENDBRANCH  61  62
ENDBRANCH  58  61
ENDBRANCH  56  57
BRANCH  56  66
ATOM     66  C   UNL     1      -7.960   4.204  10.273  1.00  0.00     0.157 C 
BRANCH  66  67
ATOM     67  C   UNL     1      -7.493   4.779   8.967  1.00  0.00     0.305 C 
ATOM     68  O   UNL     1      -6.815   5.783   8.808  1.00  0.00    -0.252 OA
BRANCH  67  69
ATOM     69  O   UNL     1      -7.865   4.026   7.914  1.00  0.00    -0.481 OA
ATOM     70  H   UNL     1      -8.827   3.883   8.036  1.00  0.00     0.296 HD
ENDBRANCH  67  69
ENDBRANCH  66  67
ENDBRANCH  56  66
ENDBRANCH  53  56
ENDBRANCH  50  52
ENDBRANCH  47  50
ENDBRANCH  45  46
BRANCH  45  71
ATOM     71  C   UNL     1      -5.001   8.826   9.129  1.00  0.00     0.037 C 
BRANCH  71  72
ATOM     72  C   UNL     1      -5.158  10.109   8.310  1.00  0.00     0.026 C 
BRANCH  72  73
ATOM     73  C   UNL     1      -4.752   9.898   6.853  1.00  0.00     0.146 C 
BRANCH  73  74
ATOM     74  N   UNL     1      -3.481   9.179   6.843  1.00  0.00    -0.254 NA
ATOM     75  C   UNL     1      -2.437   9.815   6.456  1.00  0.00     0.185 C 
ATOM     76  N   UNL     1      -1.253   9.181   6.437  1.00  0.00    -0.370 N 
ATOM     77  N   UNL     1      -2.328  11.089   6.042  1.00  0.00    -0.370 N 
ATOM     78  H   UNL     1      -1.247   8.214   6.728  1.00  0.00     0.159 HD
ATOM     79  H   UNL     1      -0.427   9.564   6.013  1.00  0.00     0.159 HD
ATOM     80  H   UNL     1      -3.139  11.689   6.007  1.00  0.00     0.159 HD
ATOM     81  H   UNL     1      -1.432  11.514   5.871  1.00  0.00     0.159 HD
ENDBRANCH  73  74
ENDBRANCH  72  73
ENDBRANCH  71  72
ENDBRANCH  45  71
ENDBRANCH   3  45
TORSDOF 20
ENDMDL
MODEL 21
REMARK VINA RESULT:    -4.833      4.987     10.683
REMARK INTER + INTRA:         -20.519
REMARK INTER:                 -15.164
REMARK INTRA:                  -5.355
REMARK UNBOUND:                -6.644
REMARK SMILES CCCCCC(=O)N[C@H](CC(=O)O)C(=O)N[C@H]1C(=O)N[C@H](CCCN=C(N)N)C(=O)N[C@@H]2CC[C@H](O)N(C2=O)[C@@H](CC(C)C)C(=O)N(C)[C@@H](Cc2ccccc2)C(=O)N[C@H](C(C)C)C(=O)O[C@@H]1C
REMARK SMILES IDX 30 1 31 2 29 3 32 5 35 6 37 7 34 8 38 9 33 10 39 11 36 12
REMARK SMILES IDX 40 14 41 15 42 16 43 17 44 18 45 19 46 20 47 21 48 22 49 23
REMARK SMILES IDX 50 24 51 25 52 26 56 27 53 28 55 29 54 30 57 31 58 32 59 33
REMARK SMILES IDX 60 35 61 36 62 37 63 38 64 39 65 40 66 41 67 42 68 43 21 45
REMARK SMILES IDX 20 46 18 47 19 48 17 50 16 52 14 53 15 54 9 56 8 57 6 58
REMARK SMILES IDX 7 59 5 61 4 62 3 63 2 64 1 65 10 66 11 67 12 68 13 69 22 71
REMARK SMILES IDX 23 72 24 73 25 74 26 75 27 76 28 77
REMARK H PARENT 31 4 36 13 59 34 20 49 16 55 8 60 13 70 27 78 27 79 28 80
REMARK H PARENT 28 81
REMARK Flexibility Score:  259.900
ROOT
ATOM      1  O   UNL     1      -5.105   9.017   8.363  1.00  0.00    -0.273 OA
ATOM      2  N   UNL     1      -5.884   9.084   6.214  1.00  0.00    -0.343 N 
ATOM      3  C   UNL     1      -5.167   9.592   7.276  1.00  0.00     0.243 C 
ATOM      4  H   UNL     1      -5.901   9.577   5.330  1.00  0.00     0.164 HD
ENDROOT
BRANCH   2   5
ATOM      5  C   UNL     1      -6.705   7.889   6.376  1.00  0.00     0.171 C 
ATOM      6  C   UNL     1      -7.232   6.161   8.643  1.00  0.00     0.214 C 
ATOM      7  N   UNL     1      -6.135   5.853   7.755  1.00  0.00    -0.303 N 
ATOM      8  C   UNL     1      -8.382   6.877   7.952  1.00  0.00     0.057 C 
ATOM      9  C   UNL     1      -5.797   6.664   6.684  1.00  0.00     0.247 C 
ATOM     10  C   UNL     1      -7.881   8.154   7.314  1.00  0.00     0.040 C 
ATOM     11  O   UNL     1      -4.803   6.440   5.980  1.00  0.00    -0.272 OA
BRANCH   6  12
ATOM     12  O   UNL     1      -6.726   6.945   9.697  1.00  0.00    -0.373 OA
ATOM     13  H   UNL     1      -7.342   7.700   9.816  1.00  0.00     0.213 HD
ENDBRANCH   6  12
BRANCH   7  14
ATOM     14  C   UNL     1      -5.280   4.703   8.120  1.00  0.00     0.177 C 
BRANCH  14  15
ATOM     15  C   UNL     1      -5.045   4.514   9.631  1.00  0.00     0.038 C 
BRANCH  15  16
ATOM     16  C   UNL     1      -5.598   3.256  10.335  1.00  0.00    -0.015 C 
ATOM     17  C   UNL     1      -7.109   3.336  10.574  1.00  0.00     0.007 C 
ATOM     18  C   UNL     1      -4.907   3.075  11.693  1.00  0.00     0.007 C 
ENDBRANCH  15  16
ENDBRANCH  14  15
BRANCH  14  19
ATOM     19  C   UNL     1      -5.452   3.546   7.076  1.00  0.00     0.245 C 
ATOM     20  O   UNL     1      -6.616   3.235   6.772  1.00  0.00    -0.272 OA
BRANCH  19  21
ATOM     21  N   UNL     1      -4.402   2.797   6.576  1.00  0.00    -0.332 N 
ATOM     22  C   UNL     1      -4.485   1.866   5.465  1.00  0.00     0.147 C 
BRANCH  21  23
ATOM     23  C   UNL     1      -3.072   2.939   7.231  1.00  0.00     0.178 C 
BRANCH  23  24
ATOM     24  C   UNL     1      -2.412   1.608   7.648  1.00  0.00     0.070 C 
BRANCH  24  25
ATOM     25  C   UNL     1      -2.351   1.305   9.127  1.00  0.00    -0.045 A 
ATOM     26  C   UNL     1      -1.469   1.998   9.966  1.00  0.00     0.004 A 
ATOM     27  C   UNL     1      -3.178   0.316   9.681  1.00  0.00     0.004 A 
ATOM     28  C   UNL     1      -1.406   1.700  11.329  1.00  0.00     0.000 A 
ATOM     29  C   UNL     1      -3.115   0.020  11.044  1.00  0.00     0.000 A 
ATOM     30  C   UNL     1      -2.227   0.711  11.866  1.00  0.00     0.000 A 
ENDBRANCH  24  25
ENDBRANCH  23  24
BRANCH  23  31
ATOM     31  C   UNL     1      -2.137   3.925   6.490  1.00  0.00     0.243 C 
ATOM     32  O   UNL     1      -1.625   3.697   5.397  1.00  0.00    -0.273 OA
ATOM     33  N   UNL     1      -1.774   5.022   7.254  1.00  0.00    -0.341 N 
ATOM     34  H   UNL     1      -2.231   5.155   8.159  1.00  0.00     0.164 HD
BRANCH  33  35
ATOM     35  C   UNL     1      -0.805   6.024   6.802  1.00  0.00     0.194 C 
BRANCH  35  36
ATOM     36  C   UNL     1       0.605   5.875   7.438  1.00  0.00     0.017 C 
ATOM     37  C   UNL     1       0.748   4.533   8.176  1.00  0.00     0.010 C 
ATOM     38  C   UNL     1       0.936   6.987   8.442  1.00  0.00     0.010 C 
ENDBRANCH  35  36
BRANCH  35  39
ATOM     39  C   UNL     1      -1.347   7.476   6.923  1.00  0.00     0.329 C 
ATOM     40  O   UNL     1      -2.074   7.864   7.829  1.00  0.00    -0.250 OA
BRANCH  39  41
ATOM     41  O   UNL     1      -0.849   8.299   5.950  1.00  0.00    -0.458 OA
BRANCH  41  42
ATOM     42  C   UNL     1      -1.662   8.452   4.762  1.00  0.00     0.205 CG0
ATOM     43  C   UNL     1      -1.006   7.631   3.654  1.00  0.00     0.056 C 
ATOM     44  G   UNL     1      -1.746   9.951   4.414  1.00  0.00     0.000 G0
ENDBRANCH  41  42
ENDBRANCH  39  41
ENDBRANCH  35  39
ENDBRANCH  33  35
ENDBRANCH  23  31
ENDBRANCH  21  23
ENDBRANCH  19  21
ENDBRANCH  14  19
ENDBRANCH   7  14
ENDBRANCH   2   5
BRANCH   3  45
ATOM     45  C   UNL     1      -4.435  10.913   7.003  1.00  0.00     0.171 C 
BRANCH  45  46
ATOM     46  N   UNL     1      -3.202  10.545   6.320  1.00  0.00    -0.342 N 
ATOM     47  C   UNL     1      -3.107  10.490   4.952  1.00  0.00     0.247 C 
ATOM     48  O   UNL     1      -4.029  10.816   4.204  1.00  0.00    -0.273 OA
ATOM     49  H   UNL     1      -2.396  10.322   6.901  1.00  0.00     0.164 HD
BRANCH  47  50
ATOM     50  C   UNL     1      -1.769   9.964   4.414  1.00  0.00     0.212 CG0
ATOM     51  G   UNL     1      -1.670   8.471   4.786  1.00  0.00     0.000 G0
BRANCH  50  52
ATOM     52  N   UNL     1      -1.809  10.198   2.973  1.00  0.00    -0.339 N 
ATOM     53  C   UNL     1      -0.973  11.076   2.327  1.00  0.00     0.243 C 
ATOM     54  O   UNL     1      -0.158  11.775   2.923  1.00  0.00    -0.273 OA
ATOM     55  H   UNL     1      -2.538   9.731   2.438  1.00  0.00     0.164 HD
BRANCH  53  56
ATOM     56  C   UNL     1      -1.259  11.220   0.818  1.00  0.00     0.182 C 
BRANCH  56  57
ATOM     57  N   UNL     1      -1.196   9.919   0.144  1.00  0.00    -0.344 N 
ATOM     58  C   UNL     1      -0.188   9.017   0.379  1.00  0.00     0.220 C 
ATOM     59  O   UNL     1       0.766   9.262   1.109  1.00  0.00    -0.275 OA
ATOM     60  H   UNL     1      -2.015   9.636  -0.388  1.00  0.00     0.164 HD
BRANCH  58  61
ATOM     61  C   UNL     1      -0.357   7.715  -0.383  1.00  0.00     0.100 C 
BRANCH  61  62
ATOM     62  C   UNL     1      -1.410   7.781  -1.489  1.00  0.00     0.010 C 
BRANCH  62  63
ATOM     63  C   UNL     1      -2.597   6.832  -1.282  1.00  0.00     0.000 C 
BRANCH  63  64
ATOM     64  C   UNL     1      -3.850   7.214  -2.069  1.00  0.00    -0.003 C 
ATOM     65  C   UNL     1      -5.095   6.569  -1.479  1.00  0.00     0.004 C 
ENDBRANCH  63  64
ENDBRANCH  62  63
ENDBRANCH  61  62
ENDBRANCH  58  61
ENDBRANCH  56  57
BRANCH  56  66
ATOM     66  C   UNL     1      -0.337  12.251   0.169  1.00  0.00     0.157 C 
BRANCH  66  67
ATOM     67  C   UNL     1      -0.997  13.598   0.092  1.00  0.00     0.305 C 
ATOM     68  O   UNL     1      -1.037  14.445   0.971  1.00  0.00    -0.252 OA
BRANCH  67  69
ATOM     69  O   UNL     1      -1.535  13.836  -1.119  1.00  0.00    -0.481 OA
ATOM     70  H   UNL     1      -0.770  14.049  -1.695  1.00  0.00     0.296 HD
ENDBRANCH  67  69
ENDBRANCH  66  67
ENDBRANCH  56  66
ENDBRANCH  53  56
ENDBRANCH  50  52
ENDBRANCH  47  50
ENDBRANCH  45  46
BRANCH  45  71
ATOM     71  C   UNL     1      -4.155  11.649   8.318  1.00  0.00     0.037 C 
BRANCH  71  72
ATOM     72  C   UNL     1      -5.316  12.560   8.726  1.00  0.00     0.026 C 
BRANCH  72  73
ATOM     73  C   UNL     1      -6.034  13.134   7.506  1.00  0.00     0.146 C 
BRANCH  73  74
ATOM     74  N   UNL     1      -7.470  13.044   7.749  1.00  0.00    -0.254 NA
ATOM     75  C   UNL     1      -8.197  12.495   6.847  1.00  0.00     0.185 C 
ATOM     76  N   UNL     1      -9.522  12.397   7.043  1.00  0.00    -0.370 N 
ATOM     77  N   UNL     1      -7.826  11.971   5.666  1.00  0.00    -0.370 N 
ATOM     78  H   UNL     1      -9.886  12.775   7.906  1.00  0.00     0.159 HD
ATOM     79  H   UNL     1     -10.168  12.115   6.327  1.00  0.00     0.159 HD
ATOM     80  H   UNL     1      -6.857  11.971   5.386  1.00  0.00     0.159 HD
ATOM     81  H   UNL     1      -8.473  11.461   5.088  1.00  0.00     0.159 HD
ENDBRANCH  73  74
ENDBRANCH  72  73
ENDBRANCH  71  72
ENDBRANCH  45  71
ENDBRANCH   3  45
TORSDOF 20
ENDMDL
MODEL 22
REMARK VINA RESULT:    -4.830     10.415     14.796
REMARK INTER + INTRA:         -20.510
REMARK INTER:                 -16.575
REMARK INTRA:                  -3.936
REMARK UNBOUND:                -6.644
REMARK SMILES CCCCCC(=O)N[C@H](CC(=O)O)C(=O)N[C@H]1C(=O)N[C@H](CCCN=C(N)N)C(=O)N[C@@H]2CC[C@H](O)N(C2=O)[C@@H](CC(C)C)C(=O)N(C)[C@@H](Cc2ccccc2)C(=O)N[C@H](C(C)C)C(=O)O[C@@H]1C
REMARK SMILES IDX 30 1 31 2 29 3 32 5 35 6 37 7 34 8 38 9 33 10 39 11 36 12
REMARK SMILES IDX 40 14 41 15 42 16 43 17 44 18 45 19 46 20 47 21 48 22 49 23
REMARK SMILES IDX 50 24 51 25 52 26 56 27 53 28 55 29 54 30 57 31 58 32 59 33
REMARK SMILES IDX 60 35 61 36 62 37 63 38 64 39 65 40 66 41 67 42 68 43 21 45
REMARK SMILES IDX 20 46 18 47 19 48 17 50 16 52 14 53 15 54 9 56 8 57 6 58
REMARK SMILES IDX 7 59 5 61 4 62 3 63 2 64 1 65 10 66 11 67 12 68 13 69 22 71
REMARK SMILES IDX 23 72 24 73 25 74 26 75 27 76 28 77
REMARK H PARENT 31 4 36 13 59 34 20 49 16 55 8 60 13 70 27 78 27 79 28 80
REMARK H PARENT 28 81
REMARK Flexibility Score:  259.900
ROOT
ATOM      1  O   UNL     1      -8.637   5.811  -1.928  1.00  0.00    -0.273 OA
ATOM      2  N   UNL     1      -6.485   5.958  -1.169  1.00  0.00    -0.343 N 
ATOM      3  C   UNL     1      -7.782   5.499  -1.098  1.00  0.00     0.243 C 
ATOM      4  H   UNL     1      -5.805   5.669  -0.476  1.00  0.00     0.164 HD
ENDROOT
BRANCH   2   5
ATOM      5  C   UNL     1      -6.098   6.939  -2.177  1.00  0.00     0.171 C 
ATOM      6  C   UNL     1      -3.977   6.992  -4.153  1.00  0.00     0.214 C 
ATOM      7  N   UNL     1      -3.743   7.556  -2.845  1.00  0.00    -0.303 N 
ATOM      8  C   UNL     1      -5.429   7.083  -4.597  1.00  0.00     0.057 C 
ATOM      9  C   UNL     1      -4.695   7.518  -1.839  1.00  0.00     0.247 C 
ATOM     10  C   UNL     1      -6.318   6.392  -3.587  1.00  0.00     0.040 C 
ATOM     11  O   UNL     1      -4.456   7.926  -0.694  1.00  0.00    -0.272 OA
BRANCH   6  12
ATOM     12  O   UNL     1      -3.555   5.648  -4.125  1.00  0.00    -0.373 OA
ATOM     13  H   UNL     1      -4.075   5.199  -3.425  1.00  0.00     0.213 HD
ENDBRANCH   6  12
BRANCH   7  14
ATOM     14  C   UNL     1      -2.380   8.054  -2.564  1.00  0.00     0.177 C 
BRANCH  14  15
ATOM     15  C   UNL     1      -1.702   7.445  -1.320  1.00  0.00     0.038 C 
BRANCH  15  16
ATOM     16  C   UNL     1      -0.886   8.356  -0.376  1.00  0.00    -0.015 C 
ATOM     17  C   UNL     1       0.624   8.145  -0.522  1.00  0.00     0.007 C 
ATOM     18  C   UNL     1      -1.272   8.071   1.081  1.00  0.00     0.007 C 
ENDBRANCH  15  16
ENDBRANCH  14  15
BRANCH  14  19
ATOM     19  C   UNL     1      -1.652   8.430  -3.900  1.00  0.00     0.245 C 
ATOM     20  O   UNL     1      -0.915   7.563  -4.399  1.00  0.00    -0.272 OA
BRANCH  19  21
ATOM     21  N   UNL     1      -1.699   9.687  -4.476  1.00  0.00    -0.332 N 
ATOM     22  C   UNL     1      -2.734  10.680  -4.250  1.00  0.00     0.147 C 
BRANCH  21  23
ATOM     23  C   UNL     1      -0.608  10.062  -5.419  1.00  0.00     0.178 C 
BRANCH  23  24
ATOM     24  C   UNL     1      -0.876   9.697  -6.893  1.00  0.00     0.070 C 
BRANCH  24  25
ATOM     25  C   UNL     1      -2.311   9.439  -7.289  1.00  0.00    -0.045 A 
ATOM     26  C   UNL     1      -2.798   8.131  -7.406  1.00  0.00     0.004 A 
ATOM     27  C   UNL     1      -3.177  10.511  -7.551  1.00  0.00     0.004 A 
ATOM     28  C   UNL     1      -4.121   7.900  -7.789  1.00  0.00     0.000 A 
ATOM     29  C   UNL     1      -4.499  10.279  -7.932  1.00  0.00     0.000 A 
ATOM     30  C   UNL     1      -4.970   8.973  -8.054  1.00  0.00     0.000 A 
ENDBRANCH  24  25
ENDBRANCH  23  24
BRANCH  23  31
ATOM     31  C   UNL     1      -0.078  11.497  -5.188  1.00  0.00     0.243 C 
ATOM     32  O   UNL     1       0.673  11.813  -4.269  1.00  0.00    -0.273 OA
ATOM     33  N   UNL     1      -0.674  12.444  -6.004  1.00  0.00    -0.341 N 
ATOM     34  H   UNL     1      -1.296  12.121  -6.749  1.00  0.00     0.164 HD
BRANCH  33  35
ATOM     35  C   UNL     1      -0.414  13.881  -5.881  1.00  0.00     0.194 C 
BRANCH  35  36
ATOM     36  C   UNL     1      -1.487  14.653  -5.063  1.00  0.00     0.017 C 
ATOM     37  C   UNL     1      -1.201  14.577  -3.553  1.00  0.00     0.010 C 
ATOM     38  C   UNL     1      -2.911  14.128  -5.287  1.00  0.00     0.010 C 
ENDBRANCH  35  36
BRANCH  35  39
ATOM     39  C   UNL     1      -0.133  14.558  -7.253  1.00  0.00     0.329 C 
ATOM     40  O   UNL     1      -0.967  14.677  -8.142  1.00  0.00    -0.250 OA
BRANCH  39  41
ATOM     41  O   UNL     1       1.127  15.085  -7.324  1.00  0.00    -0.458 OA
BRANCH  41  42
ATOM     42  C   UNL     1       1.516  15.645  -8.601  1.00  0.00     0.205 CG0
ATOM     43  C   UNL     1       2.306  14.571  -9.346  1.00  0.00     0.056 C 
ATOM     44  G   UNL     1       2.346  16.919  -8.347  1.00  0.00     0.000 G0
ENDBRANCH  41  42
ENDBRANCH  39  41
ENDBRANCH  35  39
ENDBRANCH  33  35
ENDBRANCH  23  31
ENDBRANCH  21  23
ENDBRANCH  19  21
ENDBRANCH  14  19
ENDBRANCH   7  14
ENDBRANCH   2   5
BRANCH   3  45
ATOM     45  C   UNL     1      -8.083   4.556   0.075  1.00  0.00     0.171 C 
BRANCH  45  46
ATOM     46  N   UNL     1      -8.231   3.232  -0.513  1.00  0.00    -0.342 N 
ATOM     47  C   UNL     1      -7.217   2.307  -0.511  1.00  0.00     0.247 C 
ATOM     48  O   UNL     1      -6.137   2.502   0.049  1.00  0.00    -0.273 OA
ATOM     49  H   UNL     1      -9.129   3.009  -0.938  1.00  0.00     0.164 HD
BRANCH  47  50
ATOM     50  C   UNL     1      -7.513   1.015  -1.284  1.00  0.00     0.212 CG0
ATOM     51  G   UNL     1      -7.901  -0.067  -0.257  1.00  0.00     0.000 G0
BRANCH  50  52
ATOM     52  N   UNL     1      -8.596   1.351  -2.204  1.00  0.00    -0.339 N 
ATOM     53  C   UNL     1      -8.429   1.452  -3.564  1.00  0.00     0.243 C 
ATOM     54  O   UNL     1      -7.337   1.317  -4.109  1.00  0.00    -0.273 OA
ATOM     55  H   UNL     1      -9.502   1.584  -1.803  1.00  0.00     0.164 HD
BRANCH  53  56
ATOM     56  C   UNL     1      -9.695   1.903  -4.320  1.00  0.00     0.182 C 
BRANCH  56  57
ATOM     57  N   UNL     1      -9.346   2.603  -5.561  1.00  0.00    -0.344 N 
ATOM     58  C   UNL     1      -8.883   3.896  -5.572  1.00  0.00     0.220 C 
ATOM     59  O   UNL     1      -8.799   4.579  -4.557  1.00  0.00    -0.275 OA
ATOM     60  H   UNL     1      -9.304   2.043  -6.409  1.00  0.00     0.164 HD
BRANCH  58  61
ATOM     61  C   UNL     1      -8.529   4.396  -6.960  1.00  0.00     0.100 C 
BRANCH  61  62
ATOM     62  C   UNL     1      -7.086   4.885  -7.090  1.00  0.00     0.010 C 
BRANCH  62  63
ATOM     63  C   UNL     1      -6.035   3.866  -6.633  1.00  0.00     0.000 C 
BRANCH  63  64
ATOM     64  C   UNL     1      -5.162   3.317  -7.760  1.00  0.00    -0.003 C 
ATOM     65  C   UNL     1      -5.098   4.284  -8.934  1.00  0.00     0.004 C 
ENDBRANCH  63  64
ENDBRANCH  62  63
ENDBRANCH  61  62
ENDBRANCH  58  61
ENDBRANCH  56  57
BRANCH  56  66
ATOM     66  C   UNL     1     -10.613   2.737  -3.428  1.00  0.00     0.157 C 
BRANCH  66  67
ATOM     67  C   UNL     1     -11.949   2.957  -4.077  1.00  0.00     0.305 C 
ATOM     68  O   UNL     1     -12.329   3.970  -4.646  1.00  0.00    -0.252 OA
BRANCH  67  69
ATOM     69  O   UNL     1     -12.731   1.863  -4.023  1.00  0.00    -0.481 OA
ATOM     70  H   UNL     1     -12.699   1.488  -4.929  1.00  0.00     0.296 HD
ENDBRANCH  67  69
ENDBRANCH  66  67
ENDBRANCH  56  66
ENDBRANCH  53  56
ENDBRANCH  50  52
ENDBRANCH  47  50
ENDBRANCH  45  46
BRANCH  45  71
ATOM     71  C   UNL     1      -9.358   4.998   0.802  1.00  0.00     0.037 C 
BRANCH  71  72
ATOM     72  C   UNL     1     -10.544   4.081   0.494  1.00  0.00     0.026 C 
BRANCH  72  73
ATOM     73  C   UNL     1     -11.811   4.883   0.205  1.00  0.00     0.146 C 
BRANCH  73  74
ATOM     74  N   UNL     1     -12.013   5.814   1.312  1.00  0.00    -0.254 NA
ATOM     75  C   UNL     1     -12.867   5.496   2.213  1.00  0.00     0.185 C 
ATOM     76  N   UNL     1     -13.074   6.332   3.244  1.00  0.00    -0.370 N 
ATOM     77  N   UNL     1     -13.635   4.396   2.300  1.00  0.00    -0.370 N 
ATOM     78  H   UNL     1     -12.540   7.189   3.252  1.00  0.00     0.159 HD
ATOM     79  H   UNL     1     -13.823   6.221   3.905  1.00  0.00     0.159 HD
ATOM     80  H   UNL     1     -13.583   3.677   1.595  1.00  0.00     0.159 HD
ATOM     81  H   UNL     1     -14.188   4.201   3.119  1.00  0.00     0.159 HD
ENDBRANCH  73  74
ENDBRANCH  72  73
ENDBRANCH  71  72
ENDBRANCH  45  71
ENDBRANCH   3  45
TORSDOF 20
ENDMDL
MODEL 23
REMARK VINA RESULT:    -4.825      5.770     13.335
REMARK INTER + INTRA:         -20.495
REMARK INTER:                 -14.542
REMARK INTRA:                  -5.953
REMARK UNBOUND:                -6.644
REMARK SMILES CCCCCC(=O)N[C@H](CC(=O)O)C(=O)N[C@H]1C(=O)N[C@H](CCCN=C(N)N)C(=O)N[C@@H]2CC[C@H](O)N(C2=O)[C@@H](CC(C)C)C(=O)N(C)[C@@H](Cc2ccccc2)C(=O)N[C@H](C(C)C)C(=O)O[C@@H]1C
REMARK SMILES IDX 30 1 31 2 29 3 32 5 35 6 37 7 34 8 38 9 33 10 39 11 36 12
REMARK SMILES IDX 40 14 41 15 42 16 43 17 44 18 45 19 46 20 47 21 48 22 49 23
REMARK SMILES IDX 50 24 51 25 52 26 56 27 53 28 55 29 54 30 57 31 58 32 59 33
REMARK SMILES IDX 60 35 61 36 62 37 63 38 64 39 65 40 66 41 67 42 68 43 21 45
REMARK SMILES IDX 20 46 18 47 19 48 17 50 16 52 14 53 15 54 9 56 8 57 6 58
REMARK SMILES IDX 7 59 5 61 4 62 3 63 2 64 1 65 10 66 11 67 12 68 13 69 22 71
REMARK SMILES IDX 23 72 24 73 25 74 26 75 27 76 28 77
REMARK H PARENT 31 4 36 13 59 34 20 49 16 55 8 60 13 70 27 78 27 79 28 80
REMARK H PARENT 28 81
REMARK Flexibility Score:  259.900
ROOT
ATOM      1  O   UNL     1       0.392  10.840   3.311  1.00  0.00    -0.273 OA
ATOM      2  N   UNL     1      -1.309   9.801   4.434  1.00  0.00    -0.343 N 
ATOM      3  C   UNL     1      -0.343  10.775   4.297  1.00  0.00     0.243 C 
ATOM      4  H   UNL     1      -1.904   9.788   5.253  1.00  0.00     0.164 HD
ENDROOT
BRANCH   2   5
ATOM      5  C   UNL     1      -1.421   8.724   3.457  1.00  0.00     0.171 C 
ATOM      6  C   UNL     1      -0.234   8.312   0.844  1.00  0.00     0.214 C 
ATOM      7  N   UNL     1      -1.511   8.979   0.947  1.00  0.00    -0.303 N 
ATOM      8  C   UNL     1       0.008   7.302   1.954  1.00  0.00     0.057 C 
ATOM      9  C   UNL     1      -2.110   9.253   2.166  1.00  0.00     0.247 C 
ATOM     10  C   UNL     1      -0.092   7.986   3.300  1.00  0.00     0.040 C 
ATOM     11  O   UNL     1      -3.161   9.901   2.250  1.00  0.00    -0.272 OA
BRANCH   6  12
ATOM     12  O   UNL     1       0.769   9.300   0.849  1.00  0.00    -0.373 OA
ATOM     13  H   UNL     1       0.839   9.645  -0.067  1.00  0.00     0.213 HD
ENDBRANCH   6  12
BRANCH   7  14
ATOM     14  C   UNL     1      -2.100   9.497  -0.306  1.00  0.00     0.177 C 
BRANCH  14  15
ATOM     15  C   UNL     1      -1.116  10.230  -1.239  1.00  0.00     0.038 C 
BRANCH  15  16
ATOM     16  C   UNL     1      -1.656  11.261  -2.256  1.00  0.00    -0.015 C 
ATOM     17  C   UNL     1      -0.581  12.255  -2.706  1.00  0.00     0.007 C 
ATOM     18  C   UNL     1      -2.811  12.052  -1.630  1.00  0.00     0.007 C 
ENDBRANCH  15  16
ENDBRANCH  14  15
BRANCH  14  19
ATOM     19  C   UNL     1      -3.279   8.577  -0.775  1.00  0.00     0.245 C 
ATOM     20  O   UNL     1      -4.420   8.896  -0.401  1.00  0.00    -0.272 OA
BRANCH  19  21
ATOM     21  N   UNL     1      -3.104   7.394  -1.471  1.00  0.00    -0.332 N 
ATOM     22  C   UNL     1      -2.232   6.303  -1.073  1.00  0.00     0.147 C 
BRANCH  21  23
ATOM     23  C   UNL     1      -3.860   7.216  -2.741  1.00  0.00     0.178 C 
BRANCH  23  24
ATOM     24  C   UNL     1      -2.988   6.884  -3.970  1.00  0.00     0.070 C 
BRANCH  24  25
ATOM     25  C   UNL     1      -2.228   8.027  -4.602  1.00  0.00    -0.045 A 
ATOM     26  C   UNL     1      -0.843   8.148  -4.432  1.00  0.00     0.004 A 
ATOM     27  C   UNL     1      -2.904   8.988  -5.369  1.00  0.00     0.004 A 
ATOM     28  C   UNL     1      -0.150   9.217  -5.006  1.00  0.00     0.000 A 
ATOM     29  C   UNL     1      -2.210  10.054  -5.943  1.00  0.00     0.000 A 
ATOM     30  C   UNL     1      -0.833  10.169  -5.758  1.00  0.00     0.000 A 
ENDBRANCH  24  25
ENDBRANCH  23  24
BRANCH  23  31
ATOM     31  C   UNL     1      -5.118   6.330  -2.577  1.00  0.00     0.243 C 
ATOM     32  O   UNL     1      -6.243   6.769  -2.353  1.00  0.00    -0.273 OA
ATOM     33  N   UNL     1      -4.836   4.975  -2.520  1.00  0.00    -0.341 N 
ATOM     34  H   UNL     1      -3.878   4.670  -2.709  1.00  0.00     0.164 HD
BRANCH  33  35
ATOM     35  C   UNL     1      -5.856   3.958  -2.250  1.00  0.00     0.194 C 
BRANCH  35  36
ATOM     36  C   UNL     1      -6.076   3.664  -0.739  1.00  0.00     0.017 C 
ATOM     37  C   UNL     1      -5.984   2.157  -0.444  1.00  0.00     0.010 C 
ATOM     38  C   UNL     1      -7.434   4.151  -0.220  1.00  0.00     0.010 C 
ENDBRANCH  35  36
BRANCH  35  39
ATOM     39  C   UNL     1      -5.633   2.656  -3.069  1.00  0.00     0.329 C 
ATOM     40  O   UNL     1      -4.530   2.227  -3.389  1.00  0.00    -0.250 OA
BRANCH  39  41
ATOM     41  O   UNL     1      -6.802   1.992  -3.319  1.00  0.00    -0.458 OA
BRANCH  41  42
ATOM     42  C   UNL     1      -6.931   1.393  -4.630  1.00  0.00     0.205 CG0
ATOM     43  C   UNL     1      -7.273   2.513  -5.610  1.00  0.00     0.056 C 
ATOM     44  G   UNL     1      -8.025   0.308  -4.570  1.00  0.00     0.000 G0
ENDBRANCH  41  42
ENDBRANCH  39  41
ENDBRANCH  35  39
ENDBRANCH  33  35
ENDBRANCH  23  31
ENDBRANCH  21  23
ENDBRANCH  19  21
ENDBRANCH  14  19
ENDBRANCH   7  14
ENDBRANCH   2   5
BRANCH   3  45
ATOM     45  C   UNL     1      -0.260  11.785   5.449  1.00  0.00     0.171 C 
BRANCH  45  46
ATOM     46  N   UNL     1       1.161  11.999   5.685  1.00  0.00    -0.342 N 
ATOM     47  C   UNL     1       1.669  13.214   6.070  1.00  0.00     0.247 C 
ATOM     48  O   UNL     1       0.958  14.189   6.314  1.00  0.00    -0.273 OA
ATOM     49  H   UNL     1       1.781  11.202   5.549  1.00  0.00     0.164 HD
BRANCH  47  50
ATOM     50  C   UNL     1       3.201  13.283   6.149  1.00  0.00     0.212 CG0
ATOM     51  G   UNL     1       3.567  14.291   7.256  1.00  0.00     0.000 G0
BRANCH  50  52
ATOM     52  N   UNL     1       3.638  11.920   6.441  1.00  0.00    -0.339 N 
ATOM     53  C   UNL     1       4.726  11.627   7.227  1.00  0.00     0.243 C 
ATOM     54  O   UNL     1       5.451  12.496   7.704  1.00  0.00    -0.273 OA
ATOM     55  H   UNL     1       3.143  11.157   5.984  1.00  0.00     0.164 HD
BRANCH  53  56
ATOM     56  C   UNL     1       5.044  10.122   7.322  1.00  0.00     0.182 C 
BRANCH  56  57
ATOM     57  N   UNL     1       4.600   9.570   8.606  1.00  0.00    -0.344 N 
ATOM     58  C   UNL     1       4.485   8.219   8.826  1.00  0.00     0.220 C 
ATOM     59  O   UNL     1       4.674   7.385   7.947  1.00  0.00    -0.275 OA
ATOM     60  H   UNL     1       4.532  10.217   9.387  1.00  0.00     0.164 HD
BRANCH  58  61
ATOM     61  C   UNL     1       4.066   7.874  10.243  1.00  0.00     0.100 C 
BRANCH  61  62
ATOM     62  C   UNL     1       3.113   8.892  10.869  1.00  0.00     0.010 C 
BRANCH  62  63
ATOM     63  C   UNL     1       2.608   8.503  12.264  1.00  0.00     0.000 C 
BRANCH  63  64
ATOM     64  C   UNL     1       1.463   9.373  12.781  1.00  0.00    -0.003 C 
ATOM     65  C   UNL     1       0.239   9.272  11.883  1.00  0.00     0.004 C 
ENDBRANCH  63  64
ENDBRANCH  62  63
ENDBRANCH  61  62
ENDBRANCH  58  61
ENDBRANCH  56  57
BRANCH  56  66
ATOM     66  C   UNL     1       6.523   9.844   7.055  1.00  0.00     0.157 C 
BRANCH  66  67
ATOM     67  C   UNL     1       6.721   9.199   5.714  1.00  0.00     0.305 C 
ATOM     68  O   UNL     1       7.740   9.209   5.040  1.00  0.00    -0.252 OA
BRANCH  67  69
ATOM     69  O   UNL     1       5.632   8.521   5.306  1.00  0.00    -0.481 OA
ATOM     70  H   UNL     1       4.874   9.011   5.689  1.00  0.00     0.296 HD
ENDBRANCH  67  69
ENDBRANCH  66  67
ENDBRANCH  56  66
ENDBRANCH  53  56
ENDBRANCH  50  52
ENDBRANCH  47  50
ENDBRANCH  45  46
BRANCH  45  71
ATOM     71  C   UNL     1      -0.963  11.233   6.695  1.00  0.00     0.037 C 
BRANCH  71  72
ATOM     72  C   UNL     1      -0.007  11.094   7.882  1.00  0.00     0.026 C 
BRANCH  72  73
ATOM     73  C   UNL     1       0.465   9.652   8.055  1.00  0.00     0.146 C 
BRANCH  73  74
ATOM     74  N   UNL     1       1.580   9.433   7.138  1.00  0.00    -0.254 NA
ATOM     75  C   UNL     1       1.643   8.306   6.530  1.00  0.00     0.185 C 
ATOM     76  N   UNL     1       2.656   8.076   5.679  1.00  0.00    -0.370 N 
ATOM     77  N   UNL     1       0.809   7.255   6.610  1.00  0.00    -0.370 N 
ATOM     78  H   UNL     1       3.335   8.814   5.566  1.00  0.00     0.159 HD
ATOM     79  H   UNL     1       2.850   7.174   5.282  1.00  0.00     0.159 HD
ATOM     80  H   UNL     1      -0.002   7.287   7.210  1.00  0.00     0.159 HD
ATOM     81  H   UNL     1       0.896   6.463   5.995  1.00  0.00     0.159 HD
ENDBRANCH  73  74
ENDBRANCH  72  73
ENDBRANCH  71  72
ENDBRANCH  45  71
ENDBRANCH   3  45
TORSDOF 20
ENDMDL
MODEL 24
REMARK VINA RESULT:    -4.779      5.881     12.918
REMARK INTER + INTRA:         -20.364
REMARK INTER:                 -14.065
REMARK INTRA:                  -6.300
REMARK UNBOUND:                -6.644
REMARK SMILES CCCCCC(=O)N[C@H](CC(=O)O)C(=O)N[C@H]1C(=O)N[C@H](CCCN=C(N)N)C(=O)N[C@@H]2CC[C@H](O)N(C2=O)[C@@H](CC(C)C)C(=O)N(C)[C@@H](Cc2ccccc2)C(=O)N[C@H](C(C)C)C(=O)O[C@@H]1C
REMARK SMILES IDX 30 1 31 2 29 3 32 5 35 6 37 7 34 8 38 9 33 10 39 11 36 12
REMARK SMILES IDX 40 14 41 15 42 16 43 17 44 18 45 19 46 20 47 21 48 22 49 23
REMARK SMILES IDX 50 24 51 25 52 26 56 27 53 28 55 29 54 30 57 31 58 32 59 33
REMARK SMILES IDX 60 35 61 36 62 37 63 38 64 39 65 40 66 41 67 42 68 43 21 45
REMARK SMILES IDX 20 46 18 47 19 48 17 50 16 52 14 53 15 54 9 56 8 57 6 58
REMARK SMILES IDX 7 59 5 61 4 62 3 63 2 64 1 65 10 66 11 67 12 68 13 69 22 71
REMARK SMILES IDX 23 72 24 73 25 74 26 75 27 76 28 77
REMARK H PARENT 31 4 36 13 59 34 20 49 16 55 8 60 13 70 27 78 27 79 28 80
REMARK H PARENT 28 81
REMARK Flexibility Score:  259.900
ROOT
ATOM      1  O   UNL     1       0.403  10.750   2.725  1.00  0.00    -0.273 OA
ATOM      2  N   UNL     1      -0.913   9.641   4.232  1.00  0.00    -0.343 N 
ATOM      3  C   UNL     1      -0.073  10.668   3.858  1.00  0.00     0.243 C 
ATOM      4  H   UNL     1      -1.298   9.615   5.169  1.00  0.00     0.164 HD
ENDROOT
BRANCH   2   5
ATOM      5  C   UNL     1      -1.180   8.532   3.324  1.00  0.00     0.171 C 
ATOM      6  C   UNL     1      -0.205   7.888   0.670  1.00  0.00     0.214 C 
ATOM      7  N   UNL     1      -1.411   8.670   0.814  1.00  0.00    -0.303 N 
ATOM      8  C   UNL     1       0.022   6.916   1.817  1.00  0.00     0.057 C 
ATOM      9  C   UNL     1      -1.904   9.055   2.050  1.00  0.00     0.247 C 
ATOM     10  C   UNL     1       0.068   7.672   3.128  1.00  0.00     0.040 C 
ATOM     11  O   UNL     1      -2.888   9.797   2.162  1.00  0.00    -0.272 OA
BRANCH   6  12
ATOM     12  O   UNL     1       0.877   8.783   0.561  1.00  0.00    -0.373 OA
ATOM     13  H   UNL     1       0.912   9.080  -0.373  1.00  0.00     0.213 HD
ENDBRANCH   6  12
BRANCH   7  14
ATOM     14  C   UNL     1      -2.034   9.176  -0.428  1.00  0.00     0.177 C 
BRANCH  14  15
ATOM     15  C   UNL     1      -1.069   9.871  -1.409  1.00  0.00     0.038 C 
BRANCH  15  16
ATOM     16  C   UNL     1      -1.159  11.400  -1.610  1.00  0.00    -0.015 C 
ATOM     17  C   UNL     1      -0.917  12.175  -0.311  1.00  0.00     0.007 C 
ATOM     18  C   UNL     1      -2.549  11.773  -2.140  1.00  0.00     0.007 C 
ENDBRANCH  15  16
ENDBRANCH  14  15
BRANCH  14  19
ATOM     19  C   UNL     1      -3.247   8.272  -0.836  1.00  0.00     0.245 C 
ATOM     20  O   UNL     1      -4.369   8.629  -0.440  1.00  0.00    -0.272 OA
BRANCH  19  21
ATOM     21  N   UNL     1      -3.120   7.066  -1.502  1.00  0.00    -0.332 N 
ATOM     22  C   UNL     1      -2.304   5.945  -1.068  1.00  0.00     0.147 C 
BRANCH  21  23
ATOM     23  C   UNL     1      -3.869   6.892  -2.777  1.00  0.00     0.178 C 
BRANCH  23  24
ATOM     24  C   UNL     1      -2.983   6.745  -4.031  1.00  0.00     0.070 C 
BRANCH  24  25
ATOM     25  C   UNL     1      -2.338   8.000  -4.570  1.00  0.00    -0.045 A 
ATOM     26  C   UNL     1      -0.944   8.144  -4.579  1.00  0.00     0.004 A 
ATOM     27  C   UNL     1      -3.130   9.047  -5.065  1.00  0.00     0.004 A 
ATOM     28  C   UNL     1      -0.356   9.314  -5.063  1.00  0.00     0.000 A 
ATOM     29  C   UNL     1      -2.541  10.216  -5.549  1.00  0.00     0.000 A 
ATOM     30  C   UNL     1      -1.154  10.350  -5.545  1.00  0.00     0.000 A 
ENDBRANCH  24  25
ENDBRANCH  23  24
BRANCH  23  31
ATOM     31  C   UNL     1      -5.019   5.863  -2.667  1.00  0.00     0.243 C 
ATOM     32  O   UNL     1      -6.057   6.058  -2.041  1.00  0.00    -0.273 OA
ATOM     33  N   UNL     1      -4.699   4.619  -3.185  1.00  0.00    -0.341 N 
ATOM     34  H   UNL     1      -3.817   4.517  -3.692  1.00  0.00     0.164 HD
BRANCH  33  35
ATOM     35  C   UNL     1      -5.589   3.459  -3.085  1.00  0.00     0.194 C 
BRANCH  35  36
ATOM     36  C   UNL     1      -5.275   2.520  -1.886  1.00  0.00     0.017 C 
ATOM     37  C   UNL     1      -6.136   2.871  -0.660  1.00  0.00     0.010 C 
ATOM     38  C   UNL     1      -3.807   2.572  -1.447  1.00  0.00     0.010 C 
ENDBRANCH  35  36
BRANCH  35  39
ATOM     39  C   UNL     1      -5.703   2.675  -4.422  1.00  0.00     0.329 C 
ATOM     40  O   UNL     1      -4.846   1.907  -4.842  1.00  0.00    -0.250 OA
BRANCH  39  41
ATOM     41  O   UNL     1      -6.908   2.871  -5.038  1.00  0.00    -0.458 OA
BRANCH  41  42
ATOM     42  C   UNL     1      -6.916   2.760  -6.482  1.00  0.00     0.205 CG0
ATOM     43  C   UNL     1      -6.448   4.101  -7.042  1.00  0.00     0.056 C 
ATOM     44  G   UNL     1      -8.342   2.394  -6.939  1.00  0.00     0.000 G0
ENDBRANCH  41  42
ENDBRANCH  39  41
ENDBRANCH  35  39
ENDBRANCH  33  35
ENDBRANCH  23  31
ENDBRANCH  21  23
ENDBRANCH  19  21
ENDBRANCH  14  19
ENDBRANCH   7  14
ENDBRANCH   2   5
BRANCH   3  45
ATOM     45  C   UNL     1       0.210  11.714   4.944  1.00  0.00     0.171 C 
BRANCH  45  46
ATOM     46  N   UNL     1       1.152  11.085   5.861  1.00  0.00    -0.342 N 
ATOM     47  C   UNL     1       2.236  11.752   6.374  1.00  0.00     0.247 C 
ATOM     48  O   UNL     1       2.451  12.945   6.158  1.00  0.00    -0.273 OA
ATOM     49  H   UNL     1       0.980  10.113   6.111  1.00  0.00     0.164 HD
BRANCH  47  50
ATOM     50  C   UNL     1       3.185  10.893   7.222  1.00  0.00     0.212 CG0
ATOM     51  G   UNL     1       4.035  11.848   8.084  1.00  0.00     0.000 G0
BRANCH  50  52
ATOM     52  N   UNL     1       2.321  10.018   8.010  1.00  0.00    -0.339 N 
ATOM     53  C   UNL     1       2.663   8.736   8.363  1.00  0.00     0.243 C 
ATOM     54  O   UNL     1       3.708   8.205   7.995  1.00  0.00    -0.273 OA
ATOM     55  H   UNL     1       1.394  10.363   8.251  1.00  0.00     0.164 HD
BRANCH  53  56
ATOM     56  C   UNL     1       1.555   7.976   9.120  1.00  0.00     0.182 C 
BRANCH  56  57
ATOM     57  N   UNL     1       1.046   6.856   8.323  1.00  0.00    -0.344 N 
ATOM     58  C   UNL     1       0.504   7.029   7.072  1.00  0.00     0.220 C 
ATOM     59  O   UNL     1       0.342   8.134   6.567  1.00  0.00    -0.275 OA
ATOM     60  H   UNL     1       1.253   5.919   8.660  1.00  0.00     0.164 HD
BRANCH  58  61
ATOM     61  C   UNL     1       0.096   5.727   6.408  1.00  0.00     0.100 C 
BRANCH  61  62
ATOM     62  C   UNL     1      -1.399   5.632   6.104  1.00  0.00     0.010 C 
BRANCH  62  63
ATOM     63  C   UNL     1      -1.846   4.262   5.577  1.00  0.00     0.000 C 
BRANCH  63  64
ATOM     64  C   UNL     1      -3.343   3.993   5.724  1.00  0.00    -0.003 C 
ATOM     65  C   UNL     1      -3.649   2.504   5.642  1.00  0.00     0.004 C 
ENDBRANCH  63  64
ENDBRANCH  62  63
ENDBRANCH  61  62
ENDBRANCH  58  61
ENDBRANCH  56  57
BRANCH  56  66
ATOM     66  C   UNL     1       0.440   8.917   9.572  1.00  0.00     0.157 C 
BRANCH  66  67
ATOM     67  C   UNL     1       0.696   9.440  10.956  1.00  0.00     0.305 C 
ATOM     68  O   UNL     1       0.428   8.884  12.010  1.00  0.00    -0.252 OA
BRANCH  67  69
ATOM     69  O   UNL     1       1.332  10.627  10.945  1.00  0.00    -0.481 OA
ATOM     70  H   UNL     1       1.315  10.911  10.007  1.00  0.00     0.296 HD
ENDBRANCH  67  69
ENDBRANCH  66  67
ENDBRANCH  56  66
ENDBRANCH  53  56
ENDBRANCH  50  52
ENDBRANCH  47  50
ENDBRANCH  45  46
BRANCH  45  71
ATOM     71  C   UNL     1      -1.089  12.113   5.654  1.00  0.00     0.037 C 
BRANCH  71  72
ATOM     72  C   UNL     1      -1.190  11.503   7.054  1.00  0.00     0.026 C 
BRANCH  72  73
ATOM     73  C   UNL     1      -1.704  12.519   8.072  1.00  0.00     0.146 C 
BRANCH  73  74
ATOM     74  N   UNL     1      -2.307  11.780   9.177  1.00  0.00    -0.254 NA
ATOM     75  C   UNL     1      -1.846  11.982  10.355  1.00  0.00     0.185 C 
ATOM     76  N   UNL     1      -2.381  11.318  11.392  1.00  0.00    -0.370 N 
ATOM     77  N   UNL     1      -0.853  12.801  10.745  1.00  0.00    -0.370 N 
ATOM     78  H   UNL     1      -3.131  10.673  11.185  1.00  0.00     0.159 HD
ATOM     79  H   UNL     1      -1.981  11.314  12.314  1.00  0.00     0.159 HD
ATOM     80  H   UNL     1      -0.361  13.368  10.072  1.00  0.00     0.159 HD
ATOM     81  H   UNL     1      -0.654  12.963  11.719  1.00  0.00     0.159 HD
ENDBRANCH  73  74
ENDBRANCH  72  73
ENDBRANCH  71  72
ENDBRANCH  45  71
ENDBRANCH   3  45
TORSDOF 20
ENDMDL
MODEL 25
REMARK VINA RESULT:    -4.769      3.170      9.319
REMARK INTER + INTRA:         -20.336
REMARK INTER:                 -15.046
REMARK INTRA:                  -5.289
REMARK UNBOUND:                -6.644
REMARK SMILES CCCCCC(=O)N[C@H](CC(=O)O)C(=O)N[C@H]1C(=O)N[C@H](CCCN=C(N)N)C(=O)N[C@@H]2CC[C@H](O)N(C2=O)[C@@H](CC(C)C)C(=O)N(C)[C@@H](Cc2ccccc2)C(=O)N[C@H](C(C)C)C(=O)O[C@@H]1C
REMARK SMILES IDX 30 1 31 2 29 3 32 5 35 6 37 7 34 8 38 9 33 10 39 11 36 12
REMARK SMILES IDX 40 14 41 15 42 16 43 17 44 18 45 19 46 20 47 21 48 22 49 23
REMARK SMILES IDX 50 24 51 25 52 26 56 27 53 28 55 29 54 30 57 31 58 32 59 33
REMARK SMILES IDX 60 35 61 36 62 37 63 38 64 39 65 40 66 41 67 42 68 43 21 45
REMARK SMILES IDX 20 46 18 47 19 48 17 50 16 52 14 53 15 54 9 56 8 57 6 58
REMARK SMILES IDX 7 59 5 61 4 62 3 63 2 64 1 65 10 66 11 67 12 68 13 69 22 71
REMARK SMILES IDX 23 72 24 73 25 74 26 75 27 76 28 77
REMARK H PARENT 31 4 36 13 59 34 20 49 16 55 8 60 13 70 27 78 27 79 28 80
REMARK H PARENT 28 81
REMARK Flexibility Score:  259.900
ROOT
ATOM      1  O   UNL     1      -4.669   5.080   8.458  1.00  0.00    -0.273 OA
ATOM      2  N   UNL     1      -4.302   3.549  10.117  1.00  0.00    -0.343 N 
ATOM      3  C   UNL     1      -3.978   4.180   8.935  1.00  0.00     0.243 C 
ATOM      4  H   UNL     1      -3.702   2.822  10.487  1.00  0.00     0.164 HD
ENDROOT
BRANCH   2   5
ATOM      5  C   UNL     1      -5.558   3.846  10.796  1.00  0.00     0.171 C 
ATOM      6  C   UNL     1      -7.548   5.923  10.427  1.00  0.00     0.214 C 
ATOM      7  N   UNL     1      -6.458   6.139  11.351  1.00  0.00    -0.303 N 
ATOM      8  C   UNL     1      -7.945   4.461  10.297  1.00  0.00     0.057 C 
ATOM      9  C   UNL     1      -5.447   5.210  11.537  1.00  0.00     0.247 C 
ATOM     10  C   UNL     1      -6.750   3.642   9.862  1.00  0.00     0.040 C 
ATOM     11  O   UNL     1      -4.472   5.439  12.264  1.00  0.00    -0.272 OA
BRANCH   6  12
ATOM     12  O   UNL     1      -7.160   6.441   9.176  1.00  0.00    -0.373 OA
ATOM     13  H   UNL     1      -6.192   6.593   9.215  1.00  0.00     0.213 HD
ENDBRANCH   6  12
BRANCH   7  14
ATOM     14  C   UNL     1      -6.378   7.467  11.994  1.00  0.00     0.177 C 
BRANCH  14  15
ATOM     15  C   UNL     1      -5.982   7.453  13.483  1.00  0.00     0.038 C 
BRANCH  15  16
ATOM     16  C   UNL     1      -6.090   8.752  14.312  1.00  0.00    -0.015 C 
ATOM     17  C   UNL     1      -5.755   8.531  15.790  1.00  0.00     0.007 C 
ATOM     18  C   UNL     1      -7.516   9.309  14.221  1.00  0.00     0.007 C 
ENDBRANCH  15  16
ENDBRANCH  14  15
BRANCH  14  19
ATOM     19  C   UNL     1      -5.940   8.551  10.950  1.00  0.00     0.245 C 
ATOM     20  O   UNL     1      -6.808   8.942  10.151  1.00  0.00    -0.272 OA
BRANCH  19  21
ATOM     21  N   UNL     1      -4.639   8.999  10.803  1.00  0.00    -0.332 N 
ATOM     22  C   UNL     1      -3.446   8.258  11.172  1.00  0.00     0.147 C 
BRANCH  21  23
ATOM     23  C   UNL     1      -4.432  10.359  10.232  1.00  0.00     0.178 C 
BRANCH  23  24
ATOM     24  C   UNL     1      -3.628  11.321  11.130  1.00  0.00     0.070 C 
BRANCH  24  25
ATOM     25  C   UNL     1      -4.225  11.667  12.475  1.00  0.00    -0.045 A 
ATOM     26  C   UNL     1      -5.488  12.266  12.567  1.00  0.00     0.004 A 
ATOM     27  C   UNL     1      -3.516  11.395  13.655  1.00  0.00     0.004 A 
ATOM     28  C   UNL     1      -6.025  12.598  13.812  1.00  0.00     0.000 A 
ATOM     29  C   UNL     1      -4.055  11.727  14.899  1.00  0.00     0.000 A 
ATOM     30  C   UNL     1      -5.308  12.331  14.976  1.00  0.00     0.000 A 
ENDBRANCH  24  25
ENDBRANCH  23  24
BRANCH  23  31
ATOM     31  C   UNL     1      -3.989  10.329   8.749  1.00  0.00     0.243 C 
ATOM     32  O   UNL     1      -3.391  11.247   8.193  1.00  0.00    -0.273 OA
ATOM     33  N   UNL     1      -4.489   9.247   8.044  1.00  0.00    -0.341 N 
ATOM     34  H   UNL     1      -4.984   8.517   8.562  1.00  0.00     0.164 HD
BRANCH  33  35
ATOM     35  C   UNL     1      -4.298   9.077   6.601  1.00  0.00     0.194 C 
BRANCH  35  36
ATOM     36  C   UNL     1      -5.565   9.382   5.753  1.00  0.00     0.017 C 
ATOM     37  C   UNL     1      -5.429  10.719   5.005  1.00  0.00     0.010 C 
ATOM     38  C   UNL     1      -6.849   9.451   6.588  1.00  0.00     0.010 C 
ENDBRANCH  35  36
BRANCH  35  39
ATOM     39  C   UNL     1      -3.674   7.701   6.239  1.00  0.00     0.329 C 
ATOM     40  O   UNL     1      -4.325   6.680   6.052  1.00  0.00    -0.250 OA
BRANCH  39  41
ATOM     41  O   UNL     1      -2.319   7.773   6.066  1.00  0.00    -0.458 OA
BRANCH  41  42
ATOM     42  C   UNL     1      -1.509   7.525   7.240  1.00  0.00     0.205 CG0
ATOM     43  C   UNL     1      -0.908   8.862   7.668  1.00  0.00     0.056 C 
ATOM     44  G   UNL     1      -0.432   6.482   6.883  1.00  0.00     0.000 G0
ENDBRANCH  41  42
ENDBRANCH  39  41
ENDBRANCH  35  39
ENDBRANCH  33  35
ENDBRANCH  23  31
ENDBRANCH  21  23
ENDBRANCH  19  21
ENDBRANCH  14  19
ENDBRANCH   7  14
ENDBRANCH   2   5
BRANCH   3  45
ATOM     45  C   UNL     1      -2.684   3.697   8.267  1.00  0.00     0.171 C 
BRANCH  45  46
ATOM     46  N   UNL     1      -2.141   4.859   7.574  1.00  0.00    -0.342 N 
ATOM     47  C   UNL     1      -0.797   5.132   7.537  1.00  0.00     0.247 C 
ATOM     48  O   UNL     1       0.052   4.381   8.020  1.00  0.00    -0.273 OA
ATOM     49  H   UNL     1      -2.805   5.477   7.112  1.00  0.00     0.164 HD
BRANCH  47  50
ATOM     50  C   UNL     1      -0.422   6.463   6.870  1.00  0.00     0.212 CG0
ATOM     51  G   UNL     1      -1.494   7.499   7.260  1.00  0.00     0.000 G0
BRANCH  50  52
ATOM     52  N   UNL     1       0.909   6.790   7.374  1.00  0.00    -0.339 N 
ATOM     53  C   UNL     1       1.969   7.105   6.560  1.00  0.00     0.243 C 
ATOM     54  O   UNL     1       1.893   7.082   5.334  1.00  0.00    -0.273 OA
ATOM     55  H   UNL     1       1.065   6.718   8.377  1.00  0.00     0.164 HD
BRANCH  53  56
ATOM     56  C   UNL     1       3.295   7.329   7.315  1.00  0.00     0.182 C 
BRANCH  56  57
ATOM     57  N   UNL     1       3.071   8.058   8.567  1.00  0.00    -0.344 N 
ATOM     58  C   UNL     1       3.274   7.485   9.799  1.00  0.00     0.220 C 
ATOM     59  O   UNL     1       3.584   6.307   9.939  1.00  0.00    -0.275 OA
ATOM     60  H   UNL     1       2.913   9.060   8.495  1.00  0.00     0.164 HD
BRANCH  58  61
ATOM     61  C   UNL     1       3.037   8.441  10.953  1.00  0.00     0.100 C 
BRANCH  61  62
ATOM     62  C   UNL     1       3.873   8.128  12.194  1.00  0.00     0.010 C 
BRANCH  62  63
ATOM     63  C   UNL     1       3.439   8.891  13.452  1.00  0.00     0.000 C 
BRANCH  63  64
ATOM     64  C   UNL     1       3.601   8.102  14.751  1.00  0.00    -0.003 C 
ATOM     65  C   UNL     1       4.436   8.869  15.765  1.00  0.00     0.004 C 
ENDBRANCH  63  64
ENDBRANCH  62  63
ENDBRANCH  61  62
ENDBRANCH  58  61
ENDBRANCH  56  57
BRANCH  56  66
ATOM     66  C   UNL     1       4.336   8.011   6.428  1.00  0.00     0.157 C 
BRANCH  66  67
ATOM     67  C   UNL     1       5.722   7.527   6.746  1.00  0.00     0.305 C 
ATOM     68  O   UNL     1       6.751   7.815   6.154  1.00  0.00    -0.252 OA
BRANCH  67  69
ATOM     69  O   UNL     1       5.751   6.738   7.836  1.00  0.00    -0.481 OA
ATOM     70  H   UNL     1       6.415   7.152   8.427  1.00  0.00     0.296 HD
ENDBRANCH  67  69
ENDBRANCH  66  67
ENDBRANCH  56  66
ENDBRANCH  53  56
ENDBRANCH  50  52
ENDBRANCH  47  50
ENDBRANCH  45  46
BRANCH  45  71
ATOM     71  C   UNL     1      -2.980   2.548   7.296  1.00  0.00     0.037 C 
BRANCH  71  72
ATOM     72  C   UNL     1      -3.298   1.243   8.030  1.00  0.00     0.026 C 
BRANCH  72  73
ATOM     73  C   UNL     1      -2.161   0.834   8.964  1.00  0.00     0.146 C 
BRANCH  73  74
ATOM     74  N   UNL     1      -2.687   0.814  10.326  1.00  0.00    -0.254 NA
ATOM     75  C   UNL     1      -2.006   1.401  11.240  1.00  0.00     0.185 C 
ATOM     76  N   UNL     1      -2.465   1.401  12.502  1.00  0.00    -0.370 N 
ATOM     77  N   UNL     1      -0.837   2.057  11.133  1.00  0.00    -0.370 N 
ATOM     78  H   UNL     1      -3.338   0.922  12.671  1.00  0.00     0.159 HD
ATOM     79  H   UNL     1      -1.922   1.711  13.288  1.00  0.00     0.159 HD
ATOM     80  H   UNL     1      -0.375   2.142  10.240  1.00  0.00     0.159 HD
ATOM     81  H   UNL     1      -0.453   2.580  11.903  1.00  0.00     0.159 HD
ENDBRANCH  73  74
ENDBRANCH  72  73
ENDBRANCH  71  72
ENDBRANCH  45  71
ENDBRANCH   3  45
TORSDOF 20
ENDMDL
MODEL 26
REMARK VINA RESULT:    -4.722      3.219      5.931
REMARK INTER + INTRA:         -20.199
REMARK INTER:                 -15.117
REMARK INTRA:                  -5.082
REMARK UNBOUND:                -6.644
REMARK SMILES CCCCCC(=O)N[C@H](CC(=O)O)C(=O)N[C@H]1C(=O)N[C@H](CCCN=C(N)N)C(=O)N[C@@H]2CC[C@H](O)N(C2=O)[C@@H](CC(C)C)C(=O)N(C)[C@@H](Cc2ccccc2)C(=O)N[C@H](C(C)C)C(=O)O[C@@H]1C
REMARK SMILES IDX 30 1 31 2 29 3 32 5 35 6 37 7 34 8 38 9 33 10 39 11 36 12
REMARK SMILES IDX 40 14 41 15 42 16 43 17 44 18 45 19 46 20 47 21 48 22 49 23
REMARK SMILES IDX 50 24 51 25 52 26 56 27 53 28 55 29 54 30 57 31 58 32 59 33
REMARK SMILES IDX 60 35 61 36 62 37 63 38 64 39 65 40 66 41 67 42 68 43 21 45
REMARK SMILES IDX 20 46 18 47 19 48 17 50 16 52 14 53 15 54 9 56 8 57 6 58
REMARK SMILES IDX 7 59 5 61 4 62 3 63 2 64 1 65 10 66 11 67 12 68 13 69 22 71
REMARK SMILES IDX 23 72 24 73 25 74 26 75 27 76 28 77
REMARK H PARENT 31 4 36 13 59 34 20 49 16 55 8 60 13 70 27 78 27 79 28 80
REMARK H PARENT 28 81
REMARK Flexibility Score:  259.900
ROOT
ATOM      1  O   UNL     1      -3.712   7.902  11.768  1.00  0.00    -0.273 OA
ATOM      2  N   UNL     1      -2.623   9.888  11.450  1.00  0.00    -0.343 N 
ATOM      3  C   UNL     1      -3.754   9.102  11.492  1.00  0.00     0.243 C 
ATOM      4  H   UNL     1      -2.697  10.875  11.234  1.00  0.00     0.164 HD
ENDROOT
BRANCH   2   5
ATOM      5  C   UNL     1      -1.300   9.296  11.618  1.00  0.00     0.171 C 
ATOM      6  C   UNL     1       1.366  10.432  11.684  1.00  0.00     0.214 C 
ATOM      7  N   UNL     1       0.815   9.987  10.425  1.00  0.00    -0.303 N 
ATOM      8  C   UNL     1       0.846   9.650  12.879  1.00  0.00     0.057 C 
ATOM      9  C   UNL     1      -0.471   9.482  10.315  1.00  0.00     0.247 C 
ATOM     10  C   UNL     1      -0.663   9.740  12.934  1.00  0.00     0.040 C 
ATOM     11  O   UNL     1      -0.966   9.183   9.220  1.00  0.00    -0.272 OA
BRANCH   6  12
ATOM     12  O   UNL     1       1.067  11.802  11.824  1.00  0.00    -0.373 OA
ATOM     13  H   UNL     1       1.694  12.293  11.251  1.00  0.00     0.213 HD
ENDBRANCH   6  12
BRANCH   7  14
ATOM     14  C   UNL     1       1.629  10.227   9.215  1.00  0.00     0.177 C 
BRANCH  14  15
ATOM     15  C   UNL     1       2.040  11.693   8.980  1.00  0.00     0.038 C 
BRANCH  15  16
ATOM     16  C   UNL     1       1.160  12.597   8.088  1.00  0.00    -0.015 C 
ATOM     17  C   UNL     1       1.982  13.375   7.055  1.00  0.00     0.007 C 
ATOM     18  C   UNL     1       0.403  13.607   8.959  1.00  0.00     0.007 C 
ENDBRANCH  15  16
ENDBRANCH  14  15
BRANCH  14  19
ATOM     19  C   UNL     1       2.517   8.974   8.900  1.00  0.00     0.245 C 
ATOM     20  O   UNL     1       2.507   8.561   7.729  1.00  0.00    -0.272 OA
BRANCH  19  21
ATOM     21  N   UNL     1       3.206   8.256   9.862  1.00  0.00    -0.332 N 
ATOM     22  C   UNL     1       2.916   6.891  10.263  1.00  0.00     0.147 C 
BRANCH  21  23
ATOM     23  C   UNL     1       4.335   8.932  10.559  1.00  0.00     0.178 C 
BRANCH  23  24
ATOM     24  C   UNL     1       4.887   8.171  11.781  1.00  0.00     0.070 C 
BRANCH  24  25
ATOM     25  C   UNL     1       4.467   8.663  13.146  1.00  0.00    -0.045 A 
ATOM     26  C   UNL     1       3.957   7.777  14.103  1.00  0.00     0.004 A 
ATOM     27  C   UNL     1       4.577  10.023  13.473  1.00  0.00     0.004 A 
ATOM     28  C   UNL     1       3.554   8.243  15.357  1.00  0.00     0.000 A 
ATOM     29  C   UNL     1       4.176  10.487  14.726  1.00  0.00     0.000 A 
ATOM     30  C   UNL     1       3.661   9.597  15.666  1.00  0.00     0.000 A 
ENDBRANCH  24  25
ENDBRANCH  23  24
BRANCH  23  31
ATOM     31  C   UNL     1       5.411   9.469   9.585  1.00  0.00     0.243 C 
ATOM     32  O   UNL     1       5.629  10.662   9.392  1.00  0.00    -0.273 OA
ATOM     33  N   UNL     1       5.990   8.484   8.803  1.00  0.00    -0.341 N 
ATOM     34  H   UNL     1       5.766   7.507   9.008  1.00  0.00     0.164 HD
BRANCH  33  35
ATOM     35  C   UNL     1       6.947   8.774   7.731  1.00  0.00     0.194 C 
BRANCH  35  36
ATOM     36  C   UNL     1       6.442   8.396   6.310  1.00  0.00     0.017 C 
ATOM     37  C   UNL     1       5.520   7.165   6.353  1.00  0.00     0.010 C 
ATOM     38  C   UNL     1       7.578   8.084   5.329  1.00  0.00     0.010 C 
ENDBRANCH  35  36
BRANCH  35  39
ATOM     39  C   UNL     1       8.360   8.195   8.018  1.00  0.00     0.329 C 
ATOM     40  O   UNL     1       8.577   7.022   8.301  1.00  0.00    -0.250 OA
BRANCH  39  41
ATOM     41  O   UNL     1       9.349   9.122   7.836  1.00  0.00    -0.458 OA
BRANCH  41  42
ATOM     42  C   UNL     1      10.683   8.602   7.618  1.00  0.00     0.205 CG0
ATOM     43  C   UNL     1      11.521   8.978   8.839  1.00  0.00     0.056 C 
ATOM     44  G   UNL     1      11.239   9.205   6.313  1.00  0.00     0.000 G0
ENDBRANCH  41  42
ENDBRANCH  39  41
ENDBRANCH  35  39
ENDBRANCH  33  35
ENDBRANCH  23  31
ENDBRANCH  21  23
ENDBRANCH  19  21
ENDBRANCH  14  19
ENDBRANCH   7  14
ENDBRANCH   2   5
BRANCH   3  45
ATOM     45  C   UNL     1      -5.072   9.829  11.192  1.00  0.00     0.171 C 
BRANCH  45  46
ATOM     46  N   UNL     1      -6.074   8.782  11.041  1.00  0.00    -0.342 N 
ATOM     47  C   UNL     1      -7.045   8.552  11.982  1.00  0.00     0.247 C 
ATOM     48  O   UNL     1      -7.186   9.255  12.983  1.00  0.00    -0.273 OA
ATOM     49  H   UNL     1      -6.028   8.212  10.199  1.00  0.00     0.164 HD
BRANCH  47  50
ATOM     50  C   UNL     1      -7.934   7.329  11.713  1.00  0.00     0.212 CG0
ATOM     51  G   UNL     1      -9.054   7.769  10.749  1.00  0.00     0.000 G0
BRANCH  50  52
ATOM     52  N   UNL     1      -7.046   6.319  11.144  1.00  0.00    -0.339 N 
ATOM     53  C   UNL     1      -6.511   5.286  11.874  1.00  0.00     0.243 C 
ATOM     54  O   UNL     1      -6.697   5.162  13.081  1.00  0.00    -0.273 OA
ATOM     55  H   UNL     1      -6.764   6.431  10.172  1.00  0.00     0.164 HD
BRANCH  53  56
ATOM     56  C   UNL     1      -5.533   4.396  11.078  1.00  0.00     0.182 C 
BRANCH  56  57
ATOM     57  N   UNL     1      -5.812   4.463   9.640  1.00  0.00    -0.344 N 
ATOM     58  C   UNL     1      -7.028   4.109   9.109  1.00  0.00     0.220 C 
ATOM     59  O   UNL     1      -7.938   3.644   9.786  1.00  0.00    -0.275 OA
ATOM     60  H   UNL     1      -5.124   4.936   9.060  1.00  0.00     0.164 HD
BRANCH  58  61
ATOM     61  C   UNL     1      -7.110   4.314   7.607  1.00  0.00     0.100 C 
BRANCH  61  62
ATOM     62  C   UNL     1      -6.338   3.270   6.800  1.00  0.00     0.010 C 
BRANCH  62  63
ATOM     63  C   UNL     1      -5.568   3.846   5.605  1.00  0.00     0.000 C 
BRANCH  63  64
ATOM     64  C   UNL     1      -4.132   3.338   5.480  1.00  0.00    -0.003 C 
ATOM     65  C   UNL     1      -3.221   3.989   6.511  1.00  0.00     0.004 C 
ENDBRANCH  63  64
ENDBRANCH  62  63
ENDBRANCH  61  62
ENDBRANCH  58  61
ENDBRANCH  56  57
BRANCH  56  66
ATOM     66  C   UNL     1      -5.533   2.960  11.599  1.00  0.00     0.157 C 
BRANCH  66  67
ATOM     67  C   UNL     1      -4.140   2.401  11.650  1.00  0.00     0.305 C 
ATOM     68  O   UNL     1      -3.145   2.862  11.112  1.00  0.00    -0.252 OA
BRANCH  67  69
ATOM     69  O   UNL     1      -4.057   1.305  12.428  1.00  0.00    -0.481 OA
ATOM     70  H   UNL     1      -4.801   1.390  13.061  1.00  0.00     0.296 HD
ENDBRANCH  67  69
ENDBRANCH  66  67
ENDBRANCH  56  66
ENDBRANCH  53  56
ENDBRANCH  50  52
ENDBRANCH  47  50
ENDBRANCH  45  46
BRANCH  45  71
ATOM     71  C   UNL     1      -4.938  10.672   9.919  1.00  0.00     0.037 C 
BRANCH  71  72
ATOM     72  C   UNL     1      -4.867   9.805   8.659  1.00  0.00     0.026 C 
BRANCH  72  73
ATOM     73  C   UNL     1      -6.032  10.092   7.714  1.00  0.00     0.146 C 
BRANCH  73  74
ATOM     74  N   UNL     1      -7.191   9.346   8.194  1.00  0.00    -0.254 NA
ATOM     75  C   UNL     1      -7.541   8.299   7.543  1.00  0.00     0.185 C 
ATOM     76  N   UNL     1      -8.603   7.591   7.961  1.00  0.00    -0.370 N 
ATOM     77  N   UNL     1      -6.984   7.763   6.443  1.00  0.00    -0.370 N 
ATOM     78  H   UNL     1      -9.086   7.931   8.780  1.00  0.00     0.159 HD
ATOM     79  H   UNL     1      -9.021   6.851   7.424  1.00  0.00     0.159 HD
ATOM     80  H   UNL     1      -6.174   8.188   6.018  1.00  0.00     0.159 HD
ATOM     81  H   UNL     1      -7.278   6.869   6.085  1.00  0.00     0.159 HD
ENDBRANCH  73  74
ENDBRANCH  72  73
ENDBRANCH  71  72
ENDBRANCH  45  71
ENDBRANCH   3  45
TORSDOF 20
ENDMDL
MODEL 27
REMARK VINA RESULT:    -4.698      6.111     13.104
REMARK INTER + INTRA:         -20.131
REMARK INTER:                 -14.159
REMARK INTRA:                  -5.972
REMARK UNBOUND:                -6.644
REMARK SMILES CCCCCC(=O)N[C@H](CC(=O)O)C(=O)N[C@H]1C(=O)N[C@H](CCCN=C(N)N)C(=O)N[C@@H]2CC[C@H](O)N(C2=O)[C@@H](CC(C)C)C(=O)N(C)[C@@H](Cc2ccccc2)C(=O)N[C@H](C(C)C)C(=O)O[C@@H]1C
REMARK SMILES IDX 30 1 31 2 29 3 32 5 35 6 37 7 34 8 38 9 33 10 39 11 36 12
REMARK SMILES IDX 40 14 41 15 42 16 43 17 44 18 45 19 46 20 47 21 48 22 49 23
REMARK SMILES IDX 50 24 51 25 52 26 56 27 53 28 55 29 54 30 57 31 58 32 59 33
REMARK SMILES IDX 60 35 61 36 62 37 63 38 64 39 65 40 66 41 67 42 68 43 21 45
REMARK SMILES IDX 20 46 18 47 19 48 17 50 16 52 14 53 15 54 9 56 8 57 6 58
REMARK SMILES IDX 7 59 5 61 4 62 3 63 2 64 1 65 10 66 11 67 12 68 13 69 22 71
REMARK SMILES IDX 23 72 24 73 25 74 26 75 27 76 28 77
REMARK H PARENT 31 4 36 13 59 34 20 49 16 55 8 60 13 70 27 78 27 79 28 80
REMARK H PARENT 28 81
REMARK Flexibility Score:  259.900
ROOT
ATOM      1  O   UNL     1       0.372  10.992   2.177  1.00  0.00    -0.273 OA
ATOM      2  N   UNL     1      -0.781   9.924   3.838  1.00  0.00    -0.343 N 
ATOM      3  C   UNL     1       0.005  10.947   3.351  1.00  0.00     0.243 C 
ATOM      4  H   UNL     1      -1.076   9.927   4.806  1.00  0.00     0.164 HD
ENDROOT
BRANCH   2   5
ATOM      5  C   UNL     1      -1.113   8.779   2.998  1.00  0.00     0.171 C 
ATOM      6  C   UNL     1      -0.311   8.007   0.321  1.00  0.00     0.214 C 
ATOM      7  N   UNL     1      -1.498   8.809   0.503  1.00  0.00    -0.303 N 
ATOM      8  C   UNL     1      -0.022   7.084   1.494  1.00  0.00     0.057 C 
ATOM      9  C   UNL     1      -1.910   9.254   1.749  1.00  0.00     0.247 C 
ATOM     10  C   UNL     1       0.111   7.896   2.764  1.00  0.00     0.040 C 
ATOM     11  O   UNL     1      -2.879  10.012   1.888  1.00  0.00    -0.272 OA
BRANCH   6  12
ATOM     12  O   UNL     1       0.771   8.883   0.106  1.00  0.00    -0.373 OA
ATOM     13  H   UNL     1       1.562   8.328  -0.060  1.00  0.00     0.213 HD
ENDBRANCH   6  12
BRANCH   7  14
ATOM     14  C   UNL     1      -2.191   9.268  -0.719  1.00  0.00     0.177 C 
BRANCH  14  15
ATOM     15  C   UNL     1      -1.300   9.995  -1.745  1.00  0.00     0.038 C 
BRANCH  15  16
ATOM     16  C   UNL     1      -1.525  11.499  -2.018  1.00  0.00    -0.015 C 
ATOM     17  C   UNL     1      -0.360  12.134  -2.784  1.00  0.00     0.007 C 
ATOM     18  C   UNL     1      -1.692  12.248  -0.690  1.00  0.00     0.007 C 
ENDBRANCH  15  16
ENDBRANCH  14  15
BRANCH  14  19
ATOM     19  C   UNL     1      -3.374   8.301  -1.070  1.00  0.00     0.245 C 
ATOM     20  O   UNL     1      -4.482   8.570  -0.577  1.00  0.00    -0.272 OA
BRANCH  19  21
ATOM     21  N   UNL     1      -3.224   7.128  -1.790  1.00  0.00    -0.332 N 
ATOM     22  C   UNL     1      -2.602   5.912  -1.298  1.00  0.00     0.147 C 
BRANCH  21  23
ATOM     23  C   UNL     1      -3.728   7.103  -3.190  1.00  0.00     0.178 C 
BRANCH  23  24
ATOM     24  C   UNL     1      -2.630   7.010  -4.270  1.00  0.00     0.070 C 
BRANCH  24  25
ATOM     25  C   UNL     1      -2.142   8.310  -4.868  1.00  0.00    -0.045 A 
ATOM     26  C   UNL     1      -0.777   8.525  -5.100  1.00  0.00     0.004 A 
ATOM     27  C   UNL     1      -3.053   9.324  -5.195  1.00  0.00     0.004 A 
ATOM     28  C   UNL     1      -0.332   9.735  -5.636  1.00  0.00     0.000 A 
ATOM     29  C   UNL     1      -2.607  10.533  -5.733  1.00  0.00     0.000 A 
ATOM     30  C   UNL     1      -1.247  10.738  -5.950  1.00  0.00     0.000 A 
ENDBRANCH  24  25
ENDBRANCH  23  24
BRANCH  23  31
ATOM     31  C   UNL     1      -4.917   6.132  -3.386  1.00  0.00     0.243 C 
ATOM     32  O   UNL     1      -6.093   6.444  -3.216  1.00  0.00    -0.273 OA
ATOM     33  N   UNL     1      -4.531   4.819  -3.593  1.00  0.00    -0.341 N 
ATOM     34  H   UNL     1      -3.536   4.620  -3.721  1.00  0.00     0.164 HD
BRANCH  33  35
ATOM     35  C   UNL     1      -5.485   3.711  -3.686  1.00  0.00     0.194 C 
BRANCH  35  36
ATOM     36  C   UNL     1      -5.508   2.786  -2.436  1.00  0.00     0.017 C 
ATOM     37  C   UNL     1      -6.722   1.841  -2.461  1.00  0.00     0.010 C 
ATOM     38  C   UNL     1      -5.554   3.559  -1.113  1.00  0.00     0.010 C 
ENDBRANCH  35  36
BRANCH  35  39
ATOM     39  C   UNL     1      -5.336   2.902  -5.004  1.00  0.00     0.329 C 
ATOM     40  O   UNL     1      -4.426   2.112  -5.225  1.00  0.00    -0.250 OA
BRANCH  39  41
ATOM     41  O   UNL     1      -6.383   3.104  -5.860  1.00  0.00    -0.458 OA
BRANCH  41  42
ATOM     42  C   UNL     1      -6.120   2.865  -7.263  1.00  0.00     0.205 CG0
ATOM     43  C   UNL     1      -6.684   4.054  -8.040  1.00  0.00     0.056 C 
ATOM     44  G   UNL     1      -6.779   1.531  -7.667  1.00  0.00     0.000 G0
ENDBRANCH  41  42
ENDBRANCH  39  41
ENDBRANCH  35  39
ENDBRANCH  33  35
ENDBRANCH  23  31
ENDBRANCH  21  23
ENDBRANCH  19  21
ENDBRANCH  14  19
ENDBRANCH   7  14
ENDBRANCH   2   5
BRANCH   3  45
ATOM     45  C   UNL     1       0.372  12.035   4.369  1.00  0.00     0.171 C 
BRANCH  45  46
ATOM     46  N   UNL     1       1.120  11.356   5.418  1.00  0.00    -0.342 N 
ATOM     47  C   UNL     1       2.189  11.938   6.053  1.00  0.00     0.247 C 
ATOM     48  O   UNL     1       2.546  13.096   5.836  1.00  0.00    -0.273 OA
ATOM     49  H   UNL     1       0.822  10.416   5.669  1.00  0.00     0.164 HD
BRANCH  47  50
ATOM     50  C   UNL     1       2.931  11.027   7.042  1.00  0.00     0.212 CG0
ATOM     51  G   UNL     1       3.708  11.932   8.019  1.00  0.00     0.000 G0
BRANCH  50  52
ATOM     52  N   UNL     1       1.894  10.231   7.693  1.00  0.00    -0.339 N 
ATOM     53  C   UNL     1       2.122   9.458   8.805  1.00  0.00     0.243 C 
ATOM     54  O   UNL     1       3.234   9.335   9.309  1.00  0.00    -0.273 OA
ATOM     55  H   UNL     1       0.975  10.204   7.256  1.00  0.00     0.164 HD
BRANCH  53  56
ATOM     56  C   UNL     1       0.897   8.640   9.262  1.00  0.00     0.182 C 
BRANCH  56  57
ATOM     57  N   UNL     1       1.082   7.213   8.980  1.00  0.00    -0.344 N 
ATOM     58  C   UNL     1       1.779   6.763   7.886  1.00  0.00     0.220 C 
ATOM     59  O   UNL     1       2.232   7.518   7.032  1.00  0.00    -0.275 OA
ATOM     60  H   UNL     1       0.812   6.561   9.712  1.00  0.00     0.164 HD
BRANCH  58  61
ATOM     61  C   UNL     1       1.895   5.251   7.826  1.00  0.00     0.100 C 
BRANCH  61  62
ATOM     62  C   UNL     1       0.641   4.518   8.304  1.00  0.00     0.010 C 
BRANCH  62  63
ATOM     63  C   UNL     1      -0.439   4.355   7.228  1.00  0.00     0.000 C 
BRANCH  63  64
ATOM     64  C   UNL     1      -1.776   3.834   7.755  1.00  0.00    -0.003 C 
ATOM     65  C   UNL     1      -1.577   2.865   8.911  1.00  0.00     0.004 C 
ENDBRANCH  63  64
ENDBRANCH  62  63
ENDBRANCH  61  62
ENDBRANCH  58  61
ENDBRANCH  56  57
BRANCH  56  66
ATOM     66  C   UNL     1      -0.397   9.184   8.658  1.00  0.00     0.157 C 
BRANCH  66  67
ATOM     67  C   UNL     1      -1.030   8.183   7.736  1.00  0.00     0.305 C 
ATOM     68  O   UNL     1      -1.874   7.349   8.027  1.00  0.00    -0.252 OA
BRANCH  67  69
ATOM     69  O   UNL     1      -0.602   8.315   6.466  1.00  0.00    -0.481 OA
ATOM     70  H   UNL     1      -1.408   8.207   5.918  1.00  0.00     0.296 HD
ENDBRANCH  67  69
ENDBRANCH  66  67
ENDBRANCH  56  66
ENDBRANCH  53  56
ENDBRANCH  50  52
ENDBRANCH  47  50
ENDBRANCH  45  46
BRANCH  45  71
ATOM     71  C   UNL     1      -0.895  12.701   4.918  1.00  0.00     0.037 C 
BRANCH  71  72
ATOM     72  C   UNL     1      -1.100  12.408   6.406  1.00  0.00     0.026 C 
BRANCH  72  73
ATOM     73  C   UNL     1      -2.279  11.465   6.635  1.00  0.00     0.146 C 
BRANCH  73  74
ATOM     74  N   UNL     1      -3.046  11.400   5.394  1.00  0.00    -0.254 NA
ATOM     75  C   UNL     1      -3.933  10.481   5.286  1.00  0.00     0.185 C 
ATOM     76  N   UNL     1      -4.656  10.396   4.157  1.00  0.00    -0.370 N 
ATOM     77  N   UNL     1      -4.278   9.531   6.172  1.00  0.00    -0.370 N 
ATOM     78  H   UNL     1      -4.454  11.071   3.433  1.00  0.00     0.159 HD
ATOM     79  H   UNL     1      -5.260   9.623   3.943  1.00  0.00     0.159 HD
ATOM     80  H   UNL     1      -3.820   9.475   7.069  1.00  0.00     0.159 HD
ATOM     81  H   UNL     1      -5.072   8.931   6.022  1.00  0.00     0.159 HD
ENDBRANCH  73  74
ENDBRANCH  72  73
ENDBRANCH  71  72
ENDBRANCH  45  71
ENDBRANCH   3  45
TORSDOF 20
ENDMDL
MODEL 28
REMARK VINA RESULT:    -4.683     12.713     19.242
REMARK INTER + INTRA:         -20.089
REMARK INTER:                 -15.209
REMARK INTRA:                  -4.879
REMARK UNBOUND:                -6.644
REMARK SMILES CCCCCC(=O)N[C@H](CC(=O)O)C(=O)N[C@H]1C(=O)N[C@H](CCCN=C(N)N)C(=O)N[C@@H]2CC[C@H](O)N(C2=O)[C@@H](CC(C)C)C(=O)N(C)[C@@H](Cc2ccccc2)C(=O)N[C@H](C(C)C)C(=O)O[C@@H]1C
REMARK SMILES IDX 30 1 31 2 29 3 32 5 35 6 37 7 34 8 38 9 33 10 39 11 36 12
REMARK SMILES IDX 40 14 41 15 42 16 43 17 44 18 45 19 46 20 47 21 48 22 49 23
REMARK SMILES IDX 50 24 51 25 52 26 56 27 53 28 55 29 54 30 57 31 58 32 59 33
REMARK SMILES IDX 60 35 61 36 62 37 63 38 64 39 65 40 66 41 67 42 68 43 21 45
REMARK SMILES IDX 20 46 18 47 19 48 17 50 16 52 14 53 15 54 9 56 8 57 6 58
REMARK SMILES IDX 7 59 5 61 4 62 3 63 2 64 1 65 10 66 11 67 12 68 13 69 22 71
REMARK SMILES IDX 23 72 24 73 25 74 26 75 27 76 28 77
REMARK H PARENT 31 4 36 13 59 34 20 49 16 55 8 60 13 70 27 78 27 79 28 80
REMARK H PARENT 28 81
REMARK Flexibility Score:  259.900
ROOT
ATOM      1  O   UNL     1      -4.695   6.313  -5.115  1.00  0.00    -0.273 OA
ATOM      2  N   UNL     1      -4.441   8.580  -4.948  1.00  0.00    -0.343 N 
ATOM      3  C   UNL     1      -4.461   7.396  -5.653  1.00  0.00     0.243 C 
ATOM      4  H   UNL     1      -4.259   9.454  -5.427  1.00  0.00     0.164 HD
ENDROOT
BRANCH   2   5
ATOM      5  C   UNL     1      -4.580   8.582  -3.496  1.00  0.00     0.171 C 
ATOM      6  C   UNL     1      -4.869   6.456  -1.547  1.00  0.00     0.214 C 
ATOM      7  N   UNL     1      -6.049   7.053  -2.127  1.00  0.00    -0.303 N 
ATOM      8  C   UNL     1      -3.693   7.415  -1.453  1.00  0.00     0.057 C 
ATOM      9  C   UNL     1      -5.982   8.037  -3.100  1.00  0.00     0.247 C 
ATOM     10  C   UNL     1      -3.359   7.953  -2.827  1.00  0.00     0.040 C 
ATOM     11  O   UNL     1      -6.996   8.482  -3.654  1.00  0.00    -0.272 OA
BRANCH   6  12
ATOM     12  O   UNL     1      -4.527   5.333  -2.328  1.00  0.00    -0.373 OA
ATOM     13  H   UNL     1      -3.605   5.093  -2.096  1.00  0.00     0.213 HD
ENDBRANCH   6  12
BRANCH   7  14
ATOM     14  C   UNL     1      -7.352   6.468  -1.747  1.00  0.00     0.177 C 
BRANCH  14  15
ATOM     15  C   UNL     1      -8.330   7.436  -1.054  1.00  0.00     0.038 C 
BRANCH  15  16
ATOM     16  C   UNL     1      -8.643   7.255   0.448  1.00  0.00    -0.015 C 
ATOM     17  C   UNL     1      -8.968   5.802   0.806  1.00  0.00     0.007 C 
ATOM     18  C   UNL     1      -9.844   8.126   0.836  1.00  0.00     0.007 C 
ENDBRANCH  15  16
ENDBRANCH  14  15
BRANCH  14  19
ATOM     19  C   UNL     1      -7.758   5.341  -2.759  1.00  0.00     0.245 C 
ATOM     20  O   UNL     1      -7.856   5.670  -3.953  1.00  0.00    -0.272 OA
BRANCH  19  21
ATOM     21  N   UNL     1      -8.112   4.057  -2.382  1.00  0.00    -0.332 N 
ATOM     22  C   UNL     1      -7.338   3.190  -1.513  1.00  0.00     0.147 C 
BRANCH  21  23
ATOM     23  C   UNL     1      -9.388   3.503  -2.915  1.00  0.00     0.178 C 
BRANCH  23  24
ATOM     24  C   UNL     1     -10.561   4.504  -2.951  1.00  0.00     0.070 C 
BRANCH  24  25
ATOM     25  C   UNL     1     -11.351   4.685  -1.675  1.00  0.00    -0.045 A 
ATOM     26  C   UNL     1     -12.008   5.891  -1.403  1.00  0.00     0.004 A 
ATOM     27  C   UNL     1     -11.432   3.642  -0.740  1.00  0.00     0.004 A 
ATOM     28  C   UNL     1     -12.721   6.056  -0.214  1.00  0.00     0.000 A 
ATOM     29  C   UNL     1     -12.146   3.808   0.448  1.00  0.00     0.000 A 
ATOM     30  C   UNL     1     -12.788   5.017   0.711  1.00  0.00     0.000 A 
ENDBRANCH  24  25
ENDBRANCH  23  24
BRANCH  23  31
ATOM     31  C   UNL     1      -9.194   2.680  -4.211  1.00  0.00     0.243 C 
ATOM     32  O   UNL     1      -9.816   1.653  -4.471  1.00  0.00    -0.273 OA
ATOM     33  N   UNL     1      -8.120   3.099  -4.977  1.00  0.00    -0.341 N 
ATOM     34  H   UNL     1      -7.636   3.959  -4.706  1.00  0.00     0.164 HD
BRANCH  33  35
ATOM     35  C   UNL     1      -7.676   2.395  -6.183  1.00  0.00     0.194 C 
BRANCH  35  36
ATOM     36  C   UNL     1      -6.378   1.562  -5.991  1.00  0.00     0.017 C 
ATOM     37  C   UNL     1      -6.684   0.055  -5.928  1.00  0.00     0.010 C 
ATOM     38  C   UNL     1      -5.608   1.927  -4.716  1.00  0.00     0.010 C 
ENDBRANCH  35  36
BRANCH  35  39
ATOM     39  C   UNL     1      -7.588   3.329  -7.422  1.00  0.00     0.329 C 
ATOM     40  O   UNL     1      -8.421   4.184  -7.698  1.00  0.00    -0.250 OA
BRANCH  39  41
ATOM     41  O   UNL     1      -6.429   3.152  -8.126  1.00  0.00    -0.458 OA
BRANCH  41  42
ATOM     42  C   UNL     1      -6.229   4.025  -9.263  1.00  0.00     0.205 CG0
ATOM     43  C   UNL     1      -6.720   3.277 -10.501  1.00  0.00     0.056 C 
ATOM     44  G   UNL     1      -4.733   4.387  -9.348  1.00  0.00     0.000 G0
ENDBRANCH  41  42
ENDBRANCH  39  41
ENDBRANCH  35  39
ENDBRANCH  33  35
ENDBRANCH  23  31
ENDBRANCH  21  23
ENDBRANCH  19  21
ENDBRANCH  14  19
ENDBRANCH   7  14
ENDBRANCH   2   5
BRANCH   3  45
ATOM     45  C   UNL     1      -4.194   7.523  -7.159  1.00  0.00     0.171 C 
BRANCH  45  46
ATOM     46  N   UNL     1      -4.260   6.166  -7.686  1.00  0.00    -0.342 N 
ATOM     47  C   UNL     1      -4.573   5.899  -8.995  1.00  0.00     0.247 C 
ATOM     48  O   UNL     1      -4.749   6.784  -9.834  1.00  0.00    -0.273 OA
ATOM     49  H   UNL     1      -4.065   5.405  -7.038  1.00  0.00     0.164 HD
BRANCH  47  50
ATOM     50  C   UNL     1      -4.717   4.410  -9.339  1.00  0.00     0.212 CG0
ATOM     51  G   UNL     1      -6.213   4.051  -9.242  1.00  0.00     0.000 G0
BRANCH  50  52
ATOM     52  N   UNL     1      -4.175   4.267 -10.687  1.00  0.00    -0.339 N 
ATOM     53  C   UNL     1      -2.830   4.196 -10.958  1.00  0.00     0.243 C 
ATOM     54  O   UNL     1      -1.973   4.301 -10.085  1.00  0.00    -0.273 OA
ATOM     55  H   UNL     1      -4.832   4.286 -11.465  1.00  0.00     0.164 HD
BRANCH  53  56
ATOM     56  C   UNL     1      -2.495   4.134 -12.462  1.00  0.00     0.182 C 
BRANCH  56  57
ATOM     57  N   UNL     1      -1.902   2.841 -12.816  1.00  0.00    -0.344 N 
ATOM     58  C   UNL     1      -0.569   2.566 -12.627  1.00  0.00     0.220 C 
ATOM     59  O   UNL     1       0.229   3.403 -12.218  1.00  0.00    -0.275 OA
ATOM     60  H   UNL     1      -2.543   2.091 -13.061  1.00  0.00     0.164 HD
BRANCH  58  61
ATOM     61  C   UNL     1      -0.187   1.148 -13.009  1.00  0.00     0.100 C 
BRANCH  61  62
ATOM     62  C   UNL     1      -0.332   0.142 -11.867  1.00  0.00     0.010 C 
BRANCH  62  63
ATOM     63  C   UNL     1       1.001  -0.335 -11.278  1.00  0.00     0.000 C 
BRANCH  63  64
ATOM     64  C   UNL     1       2.215  -0.050 -12.161  1.00  0.00    -0.003 C 
ATOM     65  C   UNL     1       3.102   1.028 -11.556  1.00  0.00     0.004 C 
ENDBRANCH  63  64
ENDBRANCH  62  63
ENDBRANCH  61  62
ENDBRANCH  58  61
ENDBRANCH  56  57
BRANCH  56  66
ATOM     66  C   UNL     1      -1.616   5.308 -12.889  1.00  0.00     0.157 C 
BRANCH  66  67
ATOM     67  C   UNL     1      -2.285   6.621 -12.599  1.00  0.00     0.305 C 
ATOM     68  O   UNL     1      -1.740   7.666 -12.275  1.00  0.00    -0.252 OA
BRANCH  67  69
ATOM     69  O   UNL     1      -3.618   6.569 -12.784  1.00  0.00    -0.481 OA
ATOM     70  H   UNL     1      -3.730   6.319 -13.725  1.00  0.00     0.296 HD
ENDBRANCH  67  69
ENDBRANCH  66  67
ENDBRANCH  56  66
ENDBRANCH  53  56
ENDBRANCH  50  52
ENDBRANCH  47  50
ENDBRANCH  45  46
BRANCH  45  71
ATOM     71  C   UNL     1      -2.822   8.160  -7.406  1.00  0.00     0.037 C 
BRANCH  71  72
ATOM     72  C   UNL     1      -2.937   9.544  -8.049  1.00  0.00     0.026 C 
BRANCH  72  73
ATOM     73  C   UNL     1      -2.203  10.605  -7.232  1.00  0.00     0.146 C 
BRANCH  73  74
ATOM     74  N   UNL     1      -1.861  10.016  -5.940  1.00  0.00    -0.254 NA
ATOM     75  C   UNL     1      -0.917  10.560  -5.266  1.00  0.00     0.185 C 
ATOM     76  N   UNL     1      -0.580  10.042  -4.073  1.00  0.00    -0.370 N 
ATOM     77  N   UNL     1      -0.164  11.629  -5.576  1.00  0.00    -0.370 N 
ATOM     78  H   UNL     1      -1.094   9.229  -3.766  1.00  0.00     0.159 HD
ATOM     79  H   UNL     1       0.237  10.321  -3.559  1.00  0.00     0.159 HD
ATOM     80  H   UNL     1      -0.308  12.125  -6.443  1.00  0.00     0.159 HD
ATOM     81  H   UNL     1       0.474  12.037  -4.913  1.00  0.00     0.159 HD
ENDBRANCH  73  74
ENDBRANCH  72  73
ENDBRANCH  71  72
ENDBRANCH  45  71
ENDBRANCH   3  45
TORSDOF 20
ENDMDL
MODEL 29
REMARK VINA RESULT:    -4.673      9.731     14.096
REMARK INTER + INTRA:         -20.058
REMARK INTER:                 -13.402
REMARK INTRA:                  -6.656
REMARK UNBOUND:                -6.644
REMARK SMILES CCCCCC(=O)N[C@H](CC(=O)O)C(=O)N[C@H]1C(=O)N[C@H](CCCN=C(N)N)C(=O)N[C@@H]2CC[C@H](O)N(C2=O)[C@@H](CC(C)C)C(=O)N(C)[C@@H](Cc2ccccc2)C(=O)N[C@H](C(C)C)C(=O)O[C@@H]1C
REMARK SMILES IDX 30 1 31 2 29 3 32 5 35 6 37 7 34 8 38 9 33 10 39 11 36 12
REMARK SMILES IDX 40 14 41 15 42 16 43 17 44 18 45 19 46 20 47 21 48 22 49 23
REMARK SMILES IDX 50 24 51 25 52 26 56 27 53 28 55 29 54 30 57 31 58 32 59 33
REMARK SMILES IDX 60 35 61 36 62 37 63 38 64 39 65 40 66 41 67 42 68 43 21 45
REMARK SMILES IDX 20 46 18 47 19 48 17 50 16 52 14 53 15 54 9 56 8 57 6 58
REMARK SMILES IDX 7 59 5 61 4 62 3 63 2 64 1 65 10 66 11 67 12 68 13 69 22 71
REMARK SMILES IDX 23 72 24 73 25 74 26 75 27 76 28 77
REMARK H PARENT 31 4 36 13 59 34 20 49 16 55 8 60 13 70 27 78 27 79 28 80
REMARK H PARENT 28 81
REMARK Flexibility Score:  259.900
ROOT
ATOM      1  O   UNL     1      -4.786   7.201  -9.048  1.00  0.00    -0.273 OA
ATOM      2  N   UNL     1      -3.803   7.326  -6.987  1.00  0.00    -0.343 N 
ATOM      3  C   UNL     1      -4.670   6.768  -7.901  1.00  0.00     0.243 C 
ATOM      4  H   UNL     1      -3.723   6.935  -6.057  1.00  0.00     0.164 HD
ENDROOT
BRANCH   2   5
ATOM      5  C   UNL     1      -3.064   8.542  -7.311  1.00  0.00     0.171 C 
ATOM      6  C   UNL     1      -1.287  10.231  -5.765  1.00  0.00     0.214 C 
ATOM      7  N   UNL     1      -2.700  10.526  -5.793  1.00  0.00    -0.303 N 
ATOM      8  C   UNL     1      -0.785   9.567  -7.037  1.00  0.00     0.057 C 
ATOM      9  C   UNL     1      -3.611   9.731  -6.470  1.00  0.00     0.247 C 
ATOM     10  C   UNL     1      -1.558   8.291  -7.288  1.00  0.00     0.040 C 
ATOM     11  O   UNL     1      -4.830   9.940  -6.418  1.00  0.00    -0.272 OA
BRANCH   6  12
ATOM     12  O   UNL     1      -1.041   9.406  -4.649  1.00  0.00    -0.373 OA
ATOM     13  H   UNL     1      -0.883   8.500  -4.991  1.00  0.00     0.213 HD
ENDBRANCH   6  12
BRANCH   7  14
ATOM     14  C   UNL     1      -3.170  11.640  -4.942  1.00  0.00     0.177 C 
BRANCH  14  15
ATOM     15  C   UNL     1      -3.890  12.778  -5.690  1.00  0.00     0.038 C 
BRANCH  15  16
ATOM     16  C   UNL     1      -3.066  13.952  -6.264  1.00  0.00    -0.015 C 
ATOM     17  C   UNL     1      -3.057  13.966  -7.796  1.00  0.00     0.007 C 
ATOM     18  C   UNL     1      -1.615  13.855  -5.776  1.00  0.00     0.007 C 
ENDBRANCH  15  16
ENDBRANCH  14  15
BRANCH  14  19
ATOM     19  C   UNL     1      -3.546  11.112  -3.515  1.00  0.00     0.245 C 
ATOM     20  O   UNL     1      -4.243  10.085  -3.464  1.00  0.00    -0.272 OA
BRANCH  19  21
ATOM     21  N   UNL     1      -3.244  11.780  -2.341  1.00  0.00    -0.332 N 
ATOM     22  C   UNL     1      -4.148  12.649  -1.609  1.00  0.00     0.147 C 
BRANCH  21  23
ATOM     23  C   UNL     1      -1.877  11.610  -1.776  1.00  0.00     0.178 C 
BRANCH  23  24
ATOM     24  C   UNL     1      -1.524  12.587  -0.636  1.00  0.00     0.070 C 
BRANCH  24  25
ATOM     25  C   UNL     1      -1.382  12.004   0.750  1.00  0.00    -0.045 A 
ATOM     26  C   UNL     1      -2.509  11.757   1.544  1.00  0.00     0.004 A 
ATOM     27  C   UNL     1      -0.111  11.707   1.266  1.00  0.00     0.004 A 
ATOM     28  C   UNL     1      -2.368  11.234   2.831  1.00  0.00     0.000 A 
ATOM     29  C   UNL     1       0.028  11.183   2.552  1.00  0.00     0.000 A 
ATOM     30  C   UNL     1      -1.101  10.949   3.335  1.00  0.00     0.000 A 
ENDBRANCH  24  25
ENDBRANCH  23  24
BRANCH  23  31
ATOM     31  C   UNL     1      -1.516  10.131  -1.502  1.00  0.00     0.243 C 
ATOM     32  O   UNL     1      -0.452   9.611  -1.828  1.00  0.00    -0.273 OA
ATOM     33  N   UNL     1      -2.576   9.384  -1.017  1.00  0.00    -0.341 N 
ATOM     34  H   UNL     1      -3.440   9.872  -0.769  1.00  0.00     0.164 HD
BRANCH  33  35
ATOM     35  C   UNL     1      -2.500   7.937  -0.797  1.00  0.00     0.194 C 
BRANCH  35  36
ATOM     36  C   UNL     1      -1.174   7.465  -0.136  1.00  0.00     0.017 C 
ATOM     37  C   UNL     1      -1.012   5.938  -0.237  1.00  0.00     0.010 C 
ATOM     38  C   UNL     1      -1.072   7.840   1.348  1.00  0.00     0.010 C 
ENDBRANCH  35  36
BRANCH  35  39
ATOM     39  C   UNL     1      -2.833   7.119  -2.076  1.00  0.00     0.329 C 
ATOM     40  O   UNL     1      -2.113   7.070  -3.066  1.00  0.00    -0.250 OA
BRANCH  39  41
ATOM     41  O   UNL     1      -3.982   6.389  -1.941  1.00  0.00    -0.458 OA
BRANCH  41  42
ATOM     42  C   UNL     1      -4.938   6.492  -3.024  1.00  0.00     0.205 CG0
ATOM     43  C   UNL     1      -6.207   7.120  -2.451  1.00  0.00     0.056 C 
ATOM     44  G   UNL     1      -5.184   5.082  -3.597  1.00  0.00     0.000 G0
ENDBRANCH  41  42
ENDBRANCH  39  41
ENDBRANCH  35  39
ENDBRANCH  33  35
ENDBRANCH  23  31
ENDBRANCH  21  23
ENDBRANCH  19  21
ENDBRANCH  14  19
ENDBRANCH   7  14
ENDBRANCH   2   5
BRANCH   3  45
ATOM     45  C   UNL     1      -5.466   5.557  -7.397  1.00  0.00     0.171 C 
BRANCH  45  46
ATOM     46  N   UNL     1      -4.994   5.312  -6.040  1.00  0.00    -0.342 N 
ATOM     47  C   UNL     1      -5.850   5.185  -4.975  1.00  0.00     0.247 C 
ATOM     48  O   UNL     1      -7.075   5.194  -5.097  1.00  0.00    -0.273 OA
ATOM     49  H   UNL     1      -3.988   5.242  -5.903  1.00  0.00     0.164 HD
BRANCH  47  50
ATOM     50  C   UNL     1      -5.168   5.056  -3.605  1.00  0.00     0.212 CG0
ATOM     51  G   UNL     1      -4.960   6.480  -3.051  1.00  0.00     0.000 G0
BRANCH  50  52
ATOM     52  N   UNL     1      -6.073   4.248  -2.794  1.00  0.00    -0.339 N 
ATOM     53  C   UNL     1      -5.720   3.040  -2.243  1.00  0.00     0.243 C 
ATOM     54  O   UNL     1      -4.625   2.519  -2.437  1.00  0.00    -0.273 OA
ATOM     55  H   UNL     1      -7.032   4.573  -2.689  1.00  0.00     0.164 HD
BRANCH  53  56
ATOM     56  C   UNL     1      -6.869   2.329  -1.499  1.00  0.00     0.182 C 
BRANCH  56  57
ATOM     57  N   UNL     1      -8.173   2.756  -2.015  1.00  0.00    -0.344 N 
ATOM     58  C   UNL     1      -8.867   2.031  -2.952  1.00  0.00     0.220 C 
ATOM     59  O   UNL     1      -8.415   1.019  -3.477  1.00  0.00    -0.275 OA
ATOM     60  H   UNL     1      -8.627   3.530  -1.535  1.00  0.00     0.164 HD
BRANCH  58  61
ATOM     61  C   UNL     1     -10.219   2.630  -3.296  1.00  0.00     0.100 C 
BRANCH  61  62
ATOM     62  C   UNL     1     -10.645   3.764  -2.363  1.00  0.00     0.010 C 
BRANCH  62  63
ATOM     63  C   UNL     1     -11.603   3.332  -1.246  1.00  0.00     0.000 C 
BRANCH  63  64
ATOM     64  C   UNL     1     -12.112   4.481  -0.377  1.00  0.00    -0.003 C 
ATOM     65  C   UNL     1     -11.860   4.213   1.100  1.00  0.00     0.004 C 
ENDBRANCH  63  64
ENDBRANCH  62  63
ENDBRANCH  61  62
ENDBRANCH  58  61
ENDBRANCH  56  57
BRANCH  56  66
ATOM     66  C   UNL     1      -6.757   2.515   0.013  1.00  0.00     0.157 C 
BRANCH  66  67
ATOM     67  C   UNL     1      -7.732   3.544   0.508  1.00  0.00     0.305 C 
ATOM     68  O   UNL     1      -8.604   3.383   1.348  1.00  0.00    -0.252 OA
BRANCH  67  69
ATOM     69  O   UNL     1      -7.527   4.753  -0.049  1.00  0.00    -0.481 OA
ATOM     70  H   UNL     1      -7.711   4.624  -1.003  1.00  0.00     0.296 HD
ENDBRANCH  67  69
ENDBRANCH  66  67
ENDBRANCH  56  66
ENDBRANCH  53  56
ENDBRANCH  50  52
ENDBRANCH  47  50
ENDBRANCH  45  46
BRANCH  45  71
ATOM     71  C   UNL     1      -5.228   4.345  -8.305  1.00  0.00     0.037 C 
BRANCH  71  72
ATOM     72  C   UNL     1      -6.437   3.409  -8.345  1.00  0.00     0.026 C 
BRANCH  72  73
ATOM     73  C   UNL     1      -6.094   2.026  -7.793  1.00  0.00     0.146 C 
BRANCH  73  74
ATOM     74  N   UNL     1      -4.862   2.147  -7.021  1.00  0.00    -0.254 NA
ATOM     75  C   UNL     1      -4.861   1.698  -5.820  1.00  0.00     0.185 C 
ATOM     76  N   UNL     1      -3.742   1.794  -5.084  1.00  0.00    -0.370 N 
ATOM     77  N   UNL     1      -5.860   1.112  -5.137  1.00  0.00    -0.370 N 
ATOM     78  H   UNL     1      -2.943   2.231  -5.521  1.00  0.00     0.159 HD
ATOM     79  H   UNL     1      -3.709   1.599  -4.099  1.00  0.00     0.159 HD
ATOM     80  H   UNL     1      -6.761   0.969  -5.566  1.00  0.00     0.159 HD
ATOM     81  H   UNL     1      -5.707   0.693  -4.234  1.00  0.00     0.159 HD
ENDBRANCH  73  74
ENDBRANCH  72  73
ENDBRANCH  71  72
ENDBRANCH  45  71
ENDBRANCH   3  45
TORSDOF 20
ENDMDL
MODEL 30
REMARK VINA RESULT:    -4.657      3.309     10.074
REMARK INTER + INTRA:         -20.013
REMARK INTER:                 -14.459
REMARK INTRA:                  -5.554
REMARK UNBOUND:                -6.644
REMARK SMILES CCCCCC(=O)N[C@H](CC(=O)O)C(=O)N[C@H]1C(=O)N[C@H](CCCN=C(N)N)C(=O)N[C@@H]2CC[C@H](O)N(C2=O)[C@@H](CC(C)C)C(=O)N(C)[C@@H](Cc2ccccc2)C(=O)N[C@H](C(C)C)C(=O)O[C@@H]1C
REMARK SMILES IDX 30 1 31 2 29 3 32 5 35 6 37 7 34 8 38 9 33 10 39 11 36 12
REMARK SMILES IDX 40 14 41 15 42 16 43 17 44 18 45 19 46 20 47 21 48 22 49 23
REMARK SMILES IDX 50 24 51 25 52 26 56 27 53 28 55 29 54 30 57 31 58 32 59 33
REMARK SMILES IDX 60 35 61 36 62 37 63 38 64 39 65 40 66 41 67 42 68 43 21 45
REMARK SMILES IDX 20 46 18 47 19 48 17 50 16 52 14 53 15 54 9 56 8 57 6 58
REMARK SMILES IDX 7 59 5 61 4 62 3 63 2 64 1 65 10 66 11 67 12 68 13 69 22 71
REMARK SMILES IDX 23 72 24 73 25 74 26 75 27 76 28 77
REMARK H PARENT 31 4 36 13 59 34 20 49 16 55 8 60 13 70 27 78 27 79 28 80
REMARK H PARENT 28 81
REMARK Flexibility Score:  259.900
ROOT
ATOM      1  O   UNL     1       0.218   4.389   7.650  1.00  0.00    -0.273 OA
ATOM      2  N   UNL     1      -1.591   4.625   6.270  1.00  0.00    -0.343 N 
ATOM      3  C   UNL     1      -0.303   4.917   6.667  1.00  0.00     0.243 C 
ATOM      4  H   UNL     1      -1.982   5.068   5.448  1.00  0.00     0.164 HD
ENDROOT
BRANCH   2   5
ATOM      5  C   UNL     1      -2.438   3.757   7.080  1.00  0.00     0.171 C 
ATOM      6  C   UNL     1      -5.238   3.025   6.903  1.00  0.00     0.214 C 
ATOM      7  N   UNL     1      -4.851   4.167   7.699  1.00  0.00    -0.303 N 
ATOM      8  C   UNL     1      -4.168   1.947   6.837  1.00  0.00     0.057 C 
ATOM      9  C   UNL     1      -3.538   4.601   7.785  1.00  0.00     0.247 C 
ATOM     10  C   UNL     1      -2.886   2.531   6.284  1.00  0.00     0.040 C 
ATOM     11  O   UNL     1      -3.226   5.630   8.398  1.00  0.00    -0.272 OA
BRANCH   6  12
ATOM     12  O   UNL     1      -5.552   3.488   5.610  1.00  0.00    -0.373 OA
ATOM     13  H   UNL     1      -6.303   4.113   5.702  1.00  0.00     0.213 HD
ENDBRANCH   6  12
BRANCH   7  14
ATOM     14  C   UNL     1      -5.940   4.958   8.311  1.00  0.00     0.177 C 
BRANCH  14  15
ATOM     15  C   UNL     1      -6.105   4.778   9.833  1.00  0.00     0.038 C 
BRANCH  15  16
ATOM     16  C   UNL     1      -5.938   3.375  10.456  1.00  0.00    -0.015 C 
ATOM     17  C   UNL     1      -7.129   2.980  11.335  1.00  0.00     0.007 C 
ATOM     18  C   UNL     1      -4.671   3.338  11.320  1.00  0.00     0.007 C 
ENDBRANCH  15  16
ENDBRANCH  14  15
BRANCH  14  19
ATOM     19  C   UNL     1      -6.142   6.301   7.529  1.00  0.00     0.245 C 
ATOM     20  O   UNL     1      -6.131   6.233   6.288  1.00  0.00    -0.272 OA
BRANCH  19  21
ATOM     21  N   UNL     1      -6.217   7.542   8.135  1.00  0.00    -0.332 N 
ATOM     22  C   UNL     1      -7.252   7.968   9.060  1.00  0.00     0.147 C 
BRANCH  21  23
ATOM     23  C   UNL     1      -5.159   8.539   7.812  1.00  0.00     0.178 C 
BRANCH  23  24
ATOM     24  C   UNL     1      -5.550   9.569   6.732  1.00  0.00     0.070 C 
BRANCH  24  25
ATOM     25  C   UNL     1      -4.432  10.149   5.897  1.00  0.00    -0.045 A 
ATOM     26  C   UNL     1      -4.298  11.535   5.742  1.00  0.00     0.004 A 
ATOM     27  C   UNL     1      -3.512   9.303   5.260  1.00  0.00     0.004 A 
ATOM     28  C   UNL     1      -3.272  12.063   4.955  1.00  0.00     0.000 A 
ATOM     29  C   UNL     1      -2.486   9.832   4.475  1.00  0.00     0.000 A 
ATOM     30  C   UNL     1      -2.369  11.212   4.321  1.00  0.00     0.000 A 
ENDBRANCH  24  25
ENDBRANCH  23  24
BRANCH  23  31
ATOM     31  C   UNL     1      -4.490   9.139   9.071  1.00  0.00     0.243 C 
ATOM     32  O   UNL     1      -4.765  10.242   9.536  1.00  0.00    -0.273 OA
ATOM     33  N   UNL     1      -3.412   8.400   9.530  1.00  0.00    -0.341 N 
ATOM     34  H   UNL     1      -3.229   7.491   9.099  1.00  0.00     0.164 HD
BRANCH  33  35
ATOM     35  C   UNL     1      -2.556   8.838  10.636  1.00  0.00     0.194 C 
BRANCH  35  36
ATOM     36  C   UNL     1      -3.273   8.881  12.015  1.00  0.00     0.017 C 
ATOM     37  C   UNL     1      -2.259   8.957  13.170  1.00  0.00     0.010 C 
ATOM     38  C   UNL     1      -4.167   7.661  12.270  1.00  0.00     0.010 C 
ENDBRANCH  35  36
BRANCH  35  39
ATOM     39  C   UNL     1      -1.814  10.168  10.327  1.00  0.00     0.329 C 
ATOM     40  O   UNL     1      -1.966  11.203  10.964  1.00  0.00    -0.250 OA
BRANCH  39  41
ATOM     41  O   UNL     1      -0.903  10.031   9.316  1.00  0.00    -0.458 OA
BRANCH  41  42
ATOM     42  C   UNL     1       0.176   9.094   9.547  1.00  0.00     0.205 CG0
ATOM     43  C   UNL     1       1.074   9.692  10.627  1.00  0.00     0.056 C 
ATOM     44  G   UNL     1       0.923   8.866   8.218  1.00  0.00     0.000 G0
ENDBRANCH  41  42
ENDBRANCH  39  41
ENDBRANCH  35  39
ENDBRANCH  33  35
ENDBRANCH  23  31
ENDBRANCH  21  23
ENDBRANCH  19  21
ENDBRANCH  14  19
ENDBRANCH   7  14
ENDBRANCH   2   5
BRANCH   3  45
ATOM     45  C   UNL     1       0.442   5.929   5.786  1.00  0.00     0.171 C 
BRANCH  45  46
ATOM     46  N   UNL     1       0.980   6.926   6.702  1.00  0.00    -0.342 N 
ATOM     47  C   UNL     1       0.178   7.799   7.394  1.00  0.00     0.247 C 
ATOM     48  O   UNL     1      -1.052   7.755   7.349  1.00  0.00    -0.273 OA
ATOM     49  H   UNL     1       1.992   6.960   6.812  1.00  0.00     0.164 HD
BRANCH  47  50
ATOM     50  C   UNL     1       0.926   8.860   8.213  1.00  0.00     0.212 CG0
ATOM     51  G   UNL     1       0.150   9.068   9.529  1.00  0.00     0.000 G0
BRANCH  50  52
ATOM     52  N   UNL     1       2.269   8.321   8.415  1.00  0.00    -0.339 N 
ATOM     53  C   UNL     1       3.317   8.566   7.562  1.00  0.00     0.243 C 
ATOM     54  O   UNL     1       3.192   9.218   6.529  1.00  0.00    -0.273 OA
ATOM     55  H   UNL     1       2.409   7.681   9.194  1.00  0.00     0.164 HD
BRANCH  53  56
ATOM     56  C   UNL     1       4.615   7.820   7.932  1.00  0.00     0.182 C 
BRANCH  56  57
ATOM     57  N   UNL     1       5.559   8.712   8.613  1.00  0.00    -0.344 N 
ATOM     58  C   UNL     1       5.554   8.889   9.975  1.00  0.00     0.220 C 
ATOM     59  O   UNL     1       4.717   8.373  10.707  1.00  0.00    -0.275 OA
ATOM     60  H   UNL     1       6.329   9.077   8.058  1.00  0.00     0.164 HD
BRANCH  58  61
ATOM     61  C   UNL     1       6.655   9.810  10.466  1.00  0.00     0.100 C 
BRANCH  61  62
ATOM     62  C   UNL     1       6.543  10.169  11.948  1.00  0.00     0.010 C 
BRANCH  62  63
ATOM     63  C   UNL     1       5.764  11.461  12.224  1.00  0.00     0.000 C 
BRANCH  63  64
ATOM     64  C   UNL     1       6.257  12.671  11.432  1.00  0.00    -0.003 C 
ATOM     65  C   UNL     1       6.762  13.770  12.356  1.00  0.00     0.004 C 
ENDBRANCH  63  64
ENDBRANCH  62  63
ENDBRANCH  61  62
ENDBRANCH  58  61
ENDBRANCH  56  57
BRANCH  56  66
ATOM     66  C   UNL     1       5.239   7.141   6.714  1.00  0.00     0.157 C 
BRANCH  66  67
ATOM     67  C   UNL     1       6.380   7.949   6.166  1.00  0.00     0.305 C 
ATOM     68  O   UNL     1       7.568   7.788   6.395  1.00  0.00    -0.252 OA
BRANCH  67  69
ATOM     69  O   UNL     1       5.967   8.899   5.305  1.00  0.00    -0.481 OA
ATOM     70  H   UNL     1       6.665   8.935   4.618  1.00  0.00     0.296 HD
ENDBRANCH  67  69
ENDBRANCH  66  67
ENDBRANCH  56  66
ENDBRANCH  53  56
ENDBRANCH  50  52
ENDBRANCH  47  50
ENDBRANCH  45  46
BRANCH  45  71
ATOM     71  C   UNL     1      -0.514   6.555   4.766  1.00  0.00     0.037 C 
BRANCH  71  72
ATOM     72  C   UNL     1      -0.084   6.271   3.324  1.00  0.00     0.026 C 
BRANCH  72  73
ATOM     73  C   UNL     1      -0.573   7.358   2.369  1.00  0.00     0.146 C 
BRANCH  73  74
ATOM     74  N   UNL     1       0.109   7.171   1.092  1.00  0.00    -0.254 NA
ATOM     75  C   UNL     1       0.510   8.216   0.468  1.00  0.00     0.185 C 
ATOM     76  N   UNL     1       1.142   8.076  -0.709  1.00  0.00    -0.370 N 
ATOM     77  N   UNL     1       0.395   9.508   0.823  1.00  0.00    -0.370 N 
ATOM     78  H   UNL     1       1.264   7.134  -1.053  1.00  0.00     0.159 HD
ATOM     79  H   UNL     1       1.353   8.846  -1.318  1.00  0.00     0.159 HD
ATOM     80  H   UNL     1      -0.055   9.765   1.688  1.00  0.00     0.159 HD
ATOM     81  H   UNL     1       0.853  10.240   0.306  1.00  0.00     0.159 HD
ENDBRANCH  73  74
ENDBRANCH  72  73
ENDBRANCH  71  72
ENDBRANCH  45  71
ENDBRANCH   3  45
TORSDOF 20
ENDMDL
MODEL 31
REMARK VINA RESULT:    -4.620      7.962     11.997
REMARK INTER + INTRA:         -19.907
REMARK INTER:                 -14.737
REMARK INTRA:                  -5.170
REMARK UNBOUND:                -6.644
REMARK SMILES CCCCCC(=O)N[C@H](CC(=O)O)C(=O)N[C@H]1C(=O)N[C@H](CCCN=C(N)N)C(=O)N[C@@H]2CC[C@H](O)N(C2=O)[C@@H](CC(C)C)C(=O)N(C)[C@@H](Cc2ccccc2)C(=O)N[C@H](C(C)C)C(=O)O[C@@H]1C
REMARK SMILES IDX 30 1 31 2 29 3 32 5 35 6 37 7 34 8 38 9 33 10 39 11 36 12
REMARK SMILES IDX 40 14 41 15 42 16 43 17 44 18 45 19 46 20 47 21 48 22 49 23
REMARK SMILES IDX 50 24 51 25 52 26 56 27 53 28 55 29 54 30 57 31 58 32 59 33
REMARK SMILES IDX 60 35 61 36 62 37 63 38 64 39 65 40 66 41 67 42 68 43 21 45
REMARK SMILES IDX 20 46 18 47 19 48 17 50 16 52 14 53 15 54 9 56 8 57 6 58
REMARK SMILES IDX 7 59 5 61 4 62 3 63 2 64 1 65 10 66 11 67 12 68 13 69 22 71
REMARK SMILES IDX 23 72 24 73 25 74 26 75 27 76 28 77
REMARK H PARENT 31 4 36 13 59 34 20 49 16 55 8 60 13 70 27 78 27 79 28 80
REMARK H PARENT 28 81
REMARK Flexibility Score:  259.900
ROOT
ATOM      1  O   UNL     1     -10.549   5.789  -2.424  1.00  0.00    -0.273 OA
ATOM      2  N   UNL     1      -8.529   5.308  -1.467  1.00  0.00    -0.343 N 
ATOM      3  C   UNL     1      -9.852   5.689  -1.414  1.00  0.00     0.243 C 
ATOM      4  H   UNL     1      -7.990   5.222  -0.614  1.00  0.00     0.164 HD
ENDROOT
BRANCH   2   5
ATOM      5  C   UNL     1      -7.861   5.121  -2.750  1.00  0.00     0.171 C 
ATOM      6  C   UNL     1      -5.153   4.369  -3.464  1.00  0.00     0.214 C 
ATOM      7  N   UNL     1      -5.486   5.766  -3.315  1.00  0.00    -0.303 N 
ATOM      8  C   UNL     1      -6.324   3.518  -3.930  1.00  0.00     0.057 C 
ATOM      9  C   UNL     1      -6.746   6.192  -2.926  1.00  0.00     0.247 C 
ATOM     10  C   UNL     1      -7.476   3.657  -2.960  1.00  0.00     0.040 C 
ATOM     11  O   UNL     1      -7.000   7.385  -2.717  1.00  0.00    -0.272 OA
BRANCH   6  12
ATOM     12  O   UNL     1      -4.671   3.907  -2.224  1.00  0.00    -0.373 OA
ATOM     13  H   UNL     1      -4.789   2.933  -2.214  1.00  0.00     0.213 HD
ENDBRANCH   6  12
BRANCH   7  14
ATOM     14  C   UNL     1      -4.380   6.738  -3.451  1.00  0.00     0.177 C 
BRANCH  14  15
ATOM     15  C   UNL     1      -4.574   7.803  -4.548  1.00  0.00     0.038 C 
BRANCH  15  16
ATOM     16  C   UNL     1      -4.216   7.462  -6.012  1.00  0.00    -0.015 C 
ATOM     17  C   UNL     1      -3.849   8.704  -6.828  1.00  0.00     0.007 C 
ATOM     18  C   UNL     1      -5.408   6.776  -6.691  1.00  0.00     0.007 C 
ENDBRANCH  15  16
ENDBRANCH  14  15
BRANCH  14  19
ATOM     19  C   UNL     1      -3.696   6.981  -2.062  1.00  0.00     0.245 C 
ATOM     20  O   UNL     1      -4.246   6.472  -1.071  1.00  0.00    -0.272 OA
BRANCH  19  21
ATOM     21  N   UNL     1      -2.601   7.806  -1.876  1.00  0.00    -0.332 N 
ATOM     22  C   UNL     1      -1.363   7.747  -2.631  1.00  0.00     0.147 C 
BRANCH  21  23
ATOM     23  C   UNL     1      -2.683   8.840  -0.806  1.00  0.00     0.178 C 
BRANCH  23  24
ATOM     24  C   UNL     1      -1.341   9.167  -0.121  1.00  0.00     0.070 C 
BRANCH  24  25
ATOM     25  C   UNL     1      -1.111   8.587   1.255  1.00  0.00    -0.045 A 
ATOM     26  C   UNL     1      -1.535   9.269   2.402  1.00  0.00     0.004 A 
ATOM     27  C   UNL     1      -0.461   7.352   1.402  1.00  0.00     0.004 A 
ATOM     28  C   UNL     1      -1.304   8.733   3.671  1.00  0.00     0.000 A 
ATOM     29  C   UNL     1      -0.231   6.817   2.670  1.00  0.00     0.000 A 
ATOM     30  C   UNL     1      -0.650   7.510   3.804  1.00  0.00     0.000 A 
ENDBRANCH  24  25
ENDBRANCH  23  24
BRANCH  23  31
ATOM     31  C   UNL     1      -3.521  10.073  -1.222  1.00  0.00     0.243 C 
ATOM     32  O   UNL     1      -3.142  10.922  -2.024  1.00  0.00    -0.273 OA
ATOM     33  N   UNL     1      -4.670  10.240  -0.467  1.00  0.00    -0.341 N 
ATOM     34  H   UNL     1      -4.931   9.501   0.190  1.00  0.00     0.164 HD
BRANCH  33  35
ATOM     35  C   UNL     1      -5.553  11.402  -0.604  1.00  0.00     0.194 C 
BRANCH  35  36
ATOM     36  C   UNL     1      -5.202  12.582   0.346  1.00  0.00     0.017 C 
ATOM     37  C   UNL     1      -4.630  12.074   1.681  1.00  0.00     0.010 C 
ATOM     38  C   UNL     1      -6.406  13.474   0.672  1.00  0.00     0.010 C 
ENDBRANCH  35  36
BRANCH  35  39
ATOM     39  C   UNL     1      -7.058  11.021  -0.524  1.00  0.00     0.329 C 
ATOM     40  O   UNL     1      -7.821  11.037  -1.483  1.00  0.00    -0.250 OA
BRANCH  39  41
ATOM     41  O   UNL     1      -7.418  10.582   0.720  1.00  0.00    -0.458 OA
BRANCH  41  42
ATOM     42  C   UNL     1      -8.782  10.118   0.866  1.00  0.00     0.205 CG0
ATOM     43  C   UNL     1      -9.609  11.295   1.379  1.00  0.00     0.056 C 
ATOM     44  G   UNL     1      -8.792   8.922   1.838  1.00  0.00     0.000 G0
ENDBRANCH  41  42
ENDBRANCH  39  41
ENDBRANCH  35  39
ENDBRANCH  33  35
ENDBRANCH  23  31
ENDBRANCH  21  23
ENDBRANCH  19  21
ENDBRANCH  14  19
ENDBRANCH   7  14
ENDBRANCH   2   5
BRANCH   3  45
ATOM     45  C   UNL     1     -10.403   5.959  -0.007  1.00  0.00     0.171 C 
BRANCH  45  46
ATOM     46  N   UNL     1      -9.478   6.905   0.602  1.00  0.00    -0.342 N 
ATOM     47  C   UNL     1      -9.902   7.943   1.394  1.00  0.00     0.247 C 
ATOM     48  O   UNL     1     -11.082   8.107   1.705  1.00  0.00    -0.273 OA
ATOM     49  H   UNL     1      -8.485   6.773   0.416  1.00  0.00     0.164 HD
BRANCH  47  50
ATOM     50  C   UNL     1      -8.798   8.909   1.845  1.00  0.00     0.212 CG0
ATOM     51  G   UNL     1      -8.808  10.114   0.883  1.00  0.00     0.000 G0
BRANCH  50  52
ATOM     52  N   UNL     1      -9.132   9.267   3.222  1.00  0.00    -0.339 N 
ATOM     53  C   UNL     1      -8.197   9.658   4.149  1.00  0.00     0.243 C 
ATOM     54  O   UNL     1      -6.994   9.685   3.905  1.00  0.00    -0.273 OA
ATOM     55  H   UNL     1     -10.100   9.157   3.517  1.00  0.00     0.164 HD
BRANCH  53  56
ATOM     56  C   UNL     1      -8.774   9.901   5.558  1.00  0.00     0.182 C 
BRANCH  56  57
ATOM     57  N   UNL     1      -8.734   8.675   6.362  1.00  0.00    -0.344 N 
ATOM     58  C   UNL     1      -7.827   8.490   7.376  1.00  0.00     0.220 C 
ATOM     59  O   UNL     1      -6.943   9.300   7.632  1.00  0.00    -0.275 OA
ATOM     60  H   UNL     1      -9.509   8.026   6.251  1.00  0.00     0.164 HD
BRANCH  58  61
ATOM     61  C   UNL     1      -8.007   7.174   8.111  1.00  0.00     0.100 C 
BRANCH  61  62
ATOM     62  C   UNL     1      -7.272   6.001   7.463  1.00  0.00     0.010 C 
BRANCH  62  63
ATOM     63  C   UNL     1      -7.425   4.672   8.215  1.00  0.00     0.000 C 
BRANCH  63  64
ATOM     64  C   UNL     1      -6.125   4.138   8.814  1.00  0.00    -0.003 C 
ATOM     65  C   UNL     1      -5.293   3.405   7.771  1.00  0.00     0.004 C 
ENDBRANCH  63  64
ENDBRANCH  62  63
ENDBRANCH  61  62
ENDBRANCH  58  61
ENDBRANCH  56  57
BRANCH  56  66
ATOM     66  C   UNL     1     -10.177  10.502   5.492  1.00  0.00     0.157 C 
BRANCH  66  67
ATOM     67  C   UNL     1     -11.145   9.717   6.330  1.00  0.00     0.305 C 
ATOM     68  O   UNL     1     -11.395   9.887   7.514  1.00  0.00    -0.252 OA
BRANCH  67  69
ATOM     69  O   UNL     1     -11.796   8.779   5.616  1.00  0.00    -0.481 OA
ATOM     70  H   UNL     1     -11.405   7.928   5.907  1.00  0.00     0.296 HD
ENDBRANCH  67  69
ENDBRANCH  66  67
ENDBRANCH  56  66
ENDBRANCH  53  56
ENDBRANCH  50  52
ENDBRANCH  47  50
ENDBRANCH  45  46
BRANCH  45  71
ATOM     71  C   UNL     1     -10.486   4.654   0.793  1.00  0.00     0.037 C 
BRANCH  71  72
ATOM     72  C   UNL     1     -11.804   3.914   0.552  1.00  0.00     0.026 C 
BRANCH  72  73
ATOM     73  C   UNL     1     -13.008   4.779   0.920  1.00  0.00     0.146 C 
BRANCH  73  74
ATOM     74  N   UNL     1     -13.511   4.316   2.210  1.00  0.00    -0.254 NA
ATOM     75  C   UNL     1     -13.528   5.153   3.181  1.00  0.00     0.185 C 
ATOM     76  N   UNL     1     -13.988   4.758   4.380  1.00  0.00    -0.370 N 
ATOM     77  N   UNL     1     -13.138   6.439   3.195  1.00  0.00    -0.370 N 
ATOM     78  H   UNL     1     -14.295   3.799   4.458  1.00  0.00     0.159 HD
ATOM     79  H   UNL     1     -13.897   5.307   5.216  1.00  0.00     0.159 HD
ATOM     80  H   UNL     1     -12.774   6.875   2.361  1.00  0.00     0.159 HD
ATOM     81  H   UNL     1     -13.307   7.034   3.990  1.00  0.00     0.159 HD
ENDBRANCH  73  74
ENDBRANCH  72  73
ENDBRANCH  71  72
ENDBRANCH  45  71
ENDBRANCH   3  45
TORSDOF 20
ENDMDL
MODEL 32
REMARK VINA RESULT:    -4.602      4.925      8.489
REMARK INTER + INTRA:         -19.854
REMARK INTER:                 -14.432
REMARK INTRA:                  -5.422
REMARK UNBOUND:                -6.644
REMARK SMILES CCCCCC(=O)N[C@H](CC(=O)O)C(=O)N[C@H]1C(=O)N[C@H](CCCN=C(N)N)C(=O)N[C@@H]2CC[C@H](O)N(C2=O)[C@@H](CC(C)C)C(=O)N(C)[C@@H](Cc2ccccc2)C(=O)N[C@H](C(C)C)C(=O)O[C@@H]1C
REMARK SMILES IDX 30 1 31 2 29 3 32 5 35 6 37 7 34 8 38 9 33 10 39 11 36 12
REMARK SMILES IDX 40 14 41 15 42 16 43 17 44 18 45 19 46 20 47 21 48 22 49 23
REMARK SMILES IDX 50 24 51 25 52 26 56 27 53 28 55 29 54 30 57 31 58 32 59 33
REMARK SMILES IDX 60 35 61 36 62 37 63 38 64 39 65 40 66 41 67 42 68 43 21 45
REMARK SMILES IDX 20 46 18 47 19 48 17 50 16 52 14 53 15 54 9 56 8 57 6 58
REMARK SMILES IDX 7 59 5 61 4 62 3 63 2 64 1 65 10 66 11 67 12 68 13 69 22 71
REMARK SMILES IDX 23 72 24 73 25 74 26 75 27 76 28 77
REMARK H PARENT 31 4 36 13 59 34 20 49 16 55 8 60 13 70 27 78 27 79 28 80
REMARK H PARENT 28 81
REMARK Flexibility Score:  259.900
ROOT
ATOM      1  O   UNL     1      -0.723   9.964  13.408  1.00  0.00    -0.273 OA
ATOM      2  N   UNL     1       1.306  10.858  13.969  1.00  0.00    -0.343 N 
ATOM      3  C   UNL     1      -0.046  10.946  13.715  1.00  0.00     0.243 C 
ATOM      4  H   UNL     1       1.828  11.685  14.234  1.00  0.00     0.164 HD
ENDROOT
BRANCH   2   5
ATOM      5  C   UNL     1       2.020   9.603  13.764  1.00  0.00     0.171 C 
ATOM      6  C   UNL     1       4.840   8.954  13.588  1.00  0.00     0.214 C 
ATOM      7  N   UNL     1       4.108   9.272  12.384  1.00  0.00    -0.303 N 
ATOM      8  C   UNL     1       3.980   8.308  14.663  1.00  0.00     0.057 C 
ATOM      9  C   UNL     1       2.772   9.640  12.403  1.00  0.00     0.247 C 
ATOM     10  C   UNL     1       2.822   9.219  15.007  1.00  0.00     0.040 C 
ATOM     11  O   UNL     1       2.175   9.994  11.378  1.00  0.00    -0.272 OA
BRANCH   6  12
ATOM     12  O   UNL     1       5.417  10.146  14.068  1.00  0.00    -0.373 OA
ATOM     13  H   UNL     1       5.096  10.873  13.493  1.00  0.00     0.213 HD
ENDBRANCH   6  12
BRANCH   7  14
ATOM     14  C   UNL     1       4.881   9.334  11.126  1.00  0.00     0.177 C 
BRANCH  14  15
ATOM     15  C   UNL     1       6.346   9.787  11.277  1.00  0.00     0.038 C 
BRANCH  15  16
ATOM     16  C   UNL     1       7.154  10.184  10.022  1.00  0.00    -0.015 C 
ATOM     17  C   UNL     1       8.409   9.326   9.839  1.00  0.00     0.007 C 
ATOM     18  C   UNL     1       7.586  11.652  10.127  1.00  0.00     0.007 C 
ENDBRANCH  15  16
ENDBRANCH  14  15
BRANCH  14  19
ATOM     19  C   UNL     1       4.367   8.249  10.118  1.00  0.00     0.245 C 
ATOM     20  O   UNL     1       4.214   7.099  10.563  1.00  0.00    -0.272 OA
BRANCH  19  21
ATOM     21  N   UNL     1       4.189   8.476   8.765  1.00  0.00    -0.332 N 
ATOM     22  C   UNL     1       3.636   9.684   8.179  1.00  0.00     0.147 C 
BRANCH  21  23
ATOM     23  C   UNL     1       4.582   7.395   7.820  1.00  0.00     0.178 C 
BRANCH  23  24
ATOM     24  C   UNL     1       3.610   7.182   6.641  1.00  0.00     0.070 C 
BRANCH  24  25
ATOM     25  C   UNL     1       2.342   6.410   6.925  1.00  0.00    -0.045 A 
ATOM     26  C   UNL     1       1.204   6.581   6.126  1.00  0.00     0.004 A 
ATOM     27  C   UNL     1       2.287   5.511   8.000  1.00  0.00     0.004 A 
ATOM     28  C   UNL     1       0.031   5.877   6.406  1.00  0.00     0.000 A 
ATOM     29  C   UNL     1       1.114   4.807   8.278  1.00  0.00     0.000 A 
ATOM     30  C   UNL     1      -0.014   4.993   7.481  1.00  0.00     0.000 A 
ENDBRANCH  24  25
ENDBRANCH  23  24
BRANCH  23  31
ATOM     31  C   UNL     1       6.078   7.449   7.428  1.00  0.00     0.243 C 
ATOM     32  O   UNL     1       6.946   6.740   7.932  1.00  0.00    -0.273 OA
ATOM     33  N   UNL     1       6.391   8.503   6.587  1.00  0.00    -0.341 N 
ATOM     34  H   UNL     1       5.626   9.063   6.204  1.00  0.00     0.164 HD
BRANCH  33  35
ATOM     35  C   UNL     1       7.764   8.820   6.181  1.00  0.00     0.194 C 
BRANCH  35  36
ATOM     36  C   UNL     1       8.007  10.328   5.891  1.00  0.00     0.017 C 
ATOM     37  C   UNL     1       9.276  10.836   6.597  1.00  0.00     0.010 C 
ATOM     38  C   UNL     1       6.845  11.225   6.335  1.00  0.00     0.010 C 
ENDBRANCH  35  36
BRANCH  35  39
ATOM     39  C   UNL     1       8.268   7.917   5.022  1.00  0.00     0.329 C 
ATOM     40  O   UNL     1       7.538   7.415   4.175  1.00  0.00    -0.250 OA
BRANCH  39  41
ATOM     41  O   UNL     1       9.632   7.814   4.998  1.00  0.00    -0.458 OA
BRANCH  41  42
ATOM     42  C   UNL     1      10.171   6.537   4.581  1.00  0.00     0.205 CG0
ATOM     43  C   UNL     1      11.403   6.261   5.441  1.00  0.00     0.056 C 
ATOM     44  G   UNL     1      10.507   6.613   3.078  1.00  0.00     0.000 G0
ENDBRANCH  41  42
ENDBRANCH  39  41
ENDBRANCH  35  39
ENDBRANCH  33  35
ENDBRANCH  23  31
ENDBRANCH  21  23
ENDBRANCH  19  21
ENDBRANCH  14  19
ENDBRANCH   7  14
ENDBRANCH   2   5
BRANCH   3  45
ATOM     45  C   UNL     1      -0.653  12.347  13.864  1.00  0.00     0.171 C 
BRANCH  45  46
ATOM     46  N   UNL     1      -1.780  12.193  14.774  1.00  0.00    -0.342 N 
ATOM     47  C   UNL     1      -1.718  12.570  16.092  1.00  0.00     0.247 C 
ATOM     48  O   UNL     1      -0.737  13.131  16.582  1.00  0.00    -0.273 OA
ATOM     49  H   UNL     1      -2.633  11.785  14.396  1.00  0.00     0.164 HD
BRANCH  47  50
ATOM     50  C   UNL     1      -2.957  12.218  16.928  1.00  0.00     0.212 CG0
ATOM     51  G   UNL     1      -3.470  13.520  17.574  1.00  0.00     0.000 G0
BRANCH  50  52
ATOM     52  N   UNL     1      -3.906  11.627  15.988  1.00  0.00    -0.339 N 
ATOM     53  C   UNL     1      -4.001  10.276  15.759  1.00  0.00     0.243 C 
ATOM     54  O   UNL     1      -3.253   9.460  16.292  1.00  0.00    -0.273 OA
ATOM     55  H   UNL     1      -4.478  12.260  15.433  1.00  0.00     0.164 HD
BRANCH  53  56
ATOM     56  C   UNL     1      -5.014   9.895  14.661  1.00  0.00     0.182 C 
BRANCH  56  57
ATOM     57  N   UNL     1      -6.379   9.855  15.195  1.00  0.00    -0.344 N 
ATOM     58  C   UNL     1      -7.415  10.553  14.624  1.00  0.00     0.220 C 
ATOM     59  O   UNL     1      -7.258  11.313  13.675  1.00  0.00    -0.275 OA
ATOM     60  H   UNL     1      -6.572   9.162  15.914  1.00  0.00     0.164 HD
BRANCH  58  61
ATOM     61  C   UNL     1      -8.749  10.317  15.307  1.00  0.00     0.100 C 
BRANCH  61  62
ATOM     62  C   UNL     1      -9.890  10.003  14.339  1.00  0.00     0.010 C 
BRANCH  62  63
ATOM     63  C   UNL     1     -10.789  11.204  14.018  1.00  0.00     0.000 C 
BRANCH  63  64
ATOM     64  C   UNL     1     -11.818  11.523  15.101  1.00  0.00    -0.003 C 
ATOM     65  C   UNL     1     -13.221  11.125  14.668  1.00  0.00     0.004 C 
ENDBRANCH  63  64
ENDBRANCH  62  63
ENDBRANCH  61  62
ENDBRANCH  58  61
ENDBRANCH  56  57
BRANCH  56  66
ATOM     66  C   UNL     1      -4.627   8.589  13.969  1.00  0.00     0.157 C 
BRANCH  66  67
ATOM     67  C   UNL     1      -5.549   7.472  14.362  1.00  0.00     0.305 C 
ATOM     68  O   UNL     1      -5.590   6.900  15.440  1.00  0.00    -0.252 OA
BRANCH  67  69
ATOM     69  O   UNL     1      -6.420   7.160  13.383  1.00  0.00    -0.481 OA
ATOM     70  H   UNL     1      -7.249   6.926  13.851  1.00  0.00     0.296 HD
ENDBRANCH  67  69
ENDBRANCH  66  67
ENDBRANCH  56  66
ENDBRANCH  53  56
ENDBRANCH  50  52
ENDBRANCH  47  50
ENDBRANCH  45  46
BRANCH  45  71
ATOM     71  C   UNL     1      -1.098  12.883  12.499  1.00  0.00     0.037 C 
BRANCH  71  72
ATOM     72  C   UNL     1      -0.038  12.658  11.418  1.00  0.00     0.026 C 
BRANCH  72  73
ATOM     73  C   UNL     1      -0.675  12.400  10.054  1.00  0.00     0.146 C 
BRANCH  73  74
ATOM     74  N   UNL     1      -0.232  11.087   9.595  1.00  0.00    -0.254 NA
ATOM     75  C   UNL     1      -0.973  10.076   9.866  1.00  0.00     0.185 C 
ATOM     76  N   UNL     1      -0.593   8.855   9.456  1.00  0.00    -0.370 N 
ATOM     77  N   UNL     1      -2.139  10.039  10.533  1.00  0.00    -0.370 N 
ATOM     78  H   UNL     1       0.280   8.793   8.952  1.00  0.00     0.159 HD
ATOM     79  H   UNL     1      -1.042   8.007   9.753  1.00  0.00     0.159 HD
ATOM     80  H   UNL     1      -2.550  10.885  10.898  1.00  0.00     0.159 HD
ATOM     81  H   UNL     1      -2.692   9.199  10.585  1.00  0.00     0.159 HD
ENDBRANCH  73  74
ENDBRANCH  72  73
ENDBRANCH  71  72
ENDBRANCH  45  71
ENDBRANCH   3  45
TORSDOF 20
ENDMDL
MODEL 33
REMARK VINA RESULT:    -4.593      8.020     13.361
REMARK INTER + INTRA:         -19.829
REMARK INTER:                 -14.489
REMARK INTRA:                  -5.340
REMARK UNBOUND:                -6.644
REMARK SMILES CCCCCC(=O)N[C@H](CC(=O)O)C(=O)N[C@H]1C(=O)N[C@H](CCCN=C(N)N)C(=O)N[C@@H]2CC[C@H](O)N(C2=O)[C@@H](CC(C)C)C(=O)N(C)[C@@H](Cc2ccccc2)C(=O)N[C@H](C(C)C)C(=O)O[C@@H]1C
REMARK SMILES IDX 30 1 31 2 29 3 32 5 35 6 37 7 34 8 38 9 33 10 39 11 36 12
REMARK SMILES IDX 40 14 41 15 42 16 43 17 44 18 45 19 46 20 47 21 48 22 49 23
REMARK SMILES IDX 50 24 51 25 52 26 56 27 53 28 55 29 54 30 57 31 58 32 59 33
REMARK SMILES IDX 60 35 61 36 62 37 63 38 64 39 65 40 66 41 67 42 68 43 21 45
REMARK SMILES IDX 20 46 18 47 19 48 17 50 16 52 14 53 15 54 9 56 8 57 6 58
REMARK SMILES IDX 7 59 5 61 4 62 3 63 2 64 1 65 10 66 11 67 12 68 13 69 22 71
REMARK SMILES IDX 23 72 24 73 25 74 26 75 27 76 28 77
REMARK H PARENT 31 4 36 13 59 34 20 49 16 55 8 60 13 70 27 78 27 79 28 80
REMARK H PARENT 28 81
REMARK Flexibility Score:  259.900
ROOT
ATOM      1  O   UNL     1      -0.966  10.230   1.404  1.00  0.00    -0.273 OA
ATOM      2  N   UNL     1      -1.482   8.006   1.538  1.00  0.00    -0.343 N 
ATOM      3  C   UNL     1      -1.212   9.239   2.092  1.00  0.00     0.243 C 
ATOM      4  H   UNL     1      -1.695   7.216   2.134  1.00  0.00     0.164 HD
ENDROOT
BRANCH   2   5
ATOM      5  C   UNL     1      -1.368   7.798   0.098  1.00  0.00     0.171 C 
ATOM      6  C   UNL     1      -0.995   9.619  -2.126  1.00  0.00     0.214 C 
ATOM      7  N   UNL     1      -2.334   9.269  -1.712  1.00  0.00    -0.303 N 
ATOM      8  C   UNL     1       0.022   8.518  -1.870  1.00  0.00     0.057 C 
ATOM      9  C   UNL     1      -2.583   8.446  -0.626  1.00  0.00     0.247 C 
ATOM     10  C   UNL     1       0.030   8.161  -0.399  1.00  0.00     0.040 C 
ATOM     11  O   UNL     1      -3.732   8.220  -0.224  1.00  0.00    -0.272 OA
BRANCH   6  12
ATOM     12  O   UNL     1      -0.628  10.797  -1.446  1.00  0.00    -0.373 OA
ATOM     13  H   UNL     1       0.222  10.613  -0.992  1.00  0.00     0.213 HD
ENDBRANCH   6  12
BRANCH   7  14
ATOM     14  C   UNL     1      -3.449   9.946  -2.406  1.00  0.00     0.177 C 
BRANCH  14  15
ATOM     15  C   UNL     1      -3.361  11.484  -2.446  1.00  0.00     0.038 C 
BRANCH  15  16
ATOM     16  C   UNL     1      -3.855  12.306  -1.235  1.00  0.00    -0.015 C 
ATOM     17  C   UNL     1      -5.344  12.651  -1.331  1.00  0.00     0.007 C 
ATOM     18  C   UNL     1      -3.064  13.617  -1.140  1.00  0.00     0.007 C 
ENDBRANCH  15  16
ENDBRANCH  14  15
BRANCH  14  19
ATOM     19  C   UNL     1      -4.002   9.040  -3.560  1.00  0.00     0.245 C 
ATOM     20  O   UNL     1      -5.104   8.499  -3.367  1.00  0.00    -0.272 OA
BRANCH  19  21
ATOM     21  N   UNL     1      -3.290   8.729  -4.705  1.00  0.00    -0.332 N 
ATOM     22  C   UNL     1      -2.614   7.470  -4.961  1.00  0.00     0.147 C 
BRANCH  21  23
ATOM     23  C   UNL     1      -3.191   9.769  -5.766  1.00  0.00     0.178 C 
BRANCH  23  24
ATOM     24  C   UNL     1      -1.751  10.167  -6.148  1.00  0.00     0.070 C 
BRANCH  24  25
ATOM     25  C   UNL     1      -1.334  11.592  -5.869  1.00  0.00    -0.045 A 
ATOM     26  C   UNL     1      -2.285  12.567  -5.540  1.00  0.00     0.004 A 
ATOM     27  C   UNL     1       0.017  11.962  -5.942  1.00  0.00     0.004 A 
ATOM     28  C   UNL     1      -1.894  13.886  -5.301  1.00  0.00     0.000 A 
ATOM     29  C   UNL     1       0.407  13.280  -5.702  1.00  0.00     0.000 A 
ATOM     30  C   UNL     1      -0.550  14.242  -5.384  1.00  0.00     0.000 A 
ENDBRANCH  24  25
ENDBRANCH  23  24
BRANCH  23  31
ATOM     31  C   UNL     1      -4.131   9.499  -6.965  1.00  0.00     0.243 C 
ATOM     32  O   UNL     1      -5.358   9.515  -6.893  1.00  0.00    -0.273 OA
ATOM     33  N   UNL     1      -3.471   9.050  -8.096  1.00  0.00    -0.341 N 
ATOM     34  H   UNL     1      -2.448   9.054  -8.094  1.00  0.00     0.164 HD
BRANCH  33  35
ATOM     35  C   UNL     1      -4.168   8.621  -9.311  1.00  0.00     0.194 C 
BRANCH  35  36
ATOM     36  C   UNL     1      -4.105   7.089  -9.571  1.00  0.00     0.017 C 
ATOM     37  C   UNL     1      -4.791   6.301  -8.442  1.00  0.00     0.010 C 
ATOM     38  C   UNL     1      -2.673   6.556  -9.699  1.00  0.00     0.010 C 
ENDBRANCH  35  36
BRANCH  35  39
ATOM     39  C   UNL     1      -3.748   9.440 -10.563  1.00  0.00     0.329 C 
ATOM     40  O   UNL     1      -2.809  10.226 -10.585  1.00  0.00    -0.250 OA
BRANCH  39  41
ATOM     41  O   UNL     1      -4.491   9.121 -11.667  1.00  0.00    -0.458 OA
BRANCH  41  42
ATOM     42  C   UNL     1      -4.525  10.109 -12.724  1.00  0.00     0.205 CG0
ATOM     43  C   UNL     1      -5.597  11.132 -12.356  1.00  0.00     0.056 C 
ATOM     44  G   UNL     1      -4.824   9.393 -14.056  1.00  0.00     0.000 G0
ENDBRANCH  41  42
ENDBRANCH  39  41
ENDBRANCH  35  39
ENDBRANCH  33  35
ENDBRANCH  23  31
ENDBRANCH  21  23
ENDBRANCH  19  21
ENDBRANCH  14  19
ENDBRANCH   7  14
ENDBRANCH   2   5
BRANCH   3  45
ATOM     45  C   UNL     1      -1.261   9.295   3.624  1.00  0.00     0.171 C 
BRANCH  45  46
ATOM     46  N   UNL     1      -0.578   8.094   4.085  1.00  0.00    -0.342 N 
ATOM     47  C   UNL     1       0.455   8.134   4.987  1.00  0.00     0.247 C 
ATOM     48  O   UNL     1       0.832   9.175   5.526  1.00  0.00    -0.273 OA
ATOM     49  H   UNL     1      -0.896   7.203   3.706  1.00  0.00     0.164 HD
BRANCH  47  50
ATOM     50  C   UNL     1       1.134   6.784   5.258  1.00  0.00     0.212 CG0
ATOM     51  G   UNL     1       2.144   6.991   6.404  1.00  0.00     0.000 G0
BRANCH  50  52
ATOM     52  N   UNL     1       0.051   5.866   5.603  1.00  0.00    -0.339 N 
ATOM     53  C   UNL     1      -0.173   5.406   6.878  1.00  0.00     0.243 C 
ATOM     54  O   UNL     1       0.557   5.692   7.822  1.00  0.00    -0.273 OA
ATOM     55  H   UNL     1      -0.522   5.504   4.843  1.00  0.00     0.164 HD
BRANCH  53  56
ATOM     56  C   UNL     1      -1.319   4.380   6.982  1.00  0.00     0.182 C 
BRANCH  56  57
ATOM     57  N   UNL     1      -1.102   3.461   8.104  1.00  0.00    -0.344 N 
ATOM     58  C   UNL     1      -2.083   3.178   9.024  1.00  0.00     0.220 C 
ATOM     59  O   UNL     1      -3.179   3.726   9.014  1.00  0.00    -0.275 OA
ATOM     60  H   UNL     1      -0.247   2.911   8.091  1.00  0.00     0.164 HD
BRANCH  58  61
ATOM     61  C   UNL     1      -1.656   2.157  10.062  1.00  0.00     0.100 C 
BRANCH  61  62
ATOM     62  C   UNL     1      -2.236   0.762   9.829  1.00  0.00     0.010 C 
BRANCH  62  63
ATOM     63  C   UNL     1      -3.300   0.345  10.852  1.00  0.00     0.000 C 
BRANCH  63  64
ATOM     64  C   UNL     1      -3.564   1.385  11.941  1.00  0.00    -0.003 C 
ATOM     65  C   UNL     1      -4.855   2.147  11.679  1.00  0.00     0.004 C 
ENDBRANCH  63  64
ENDBRANCH  62  63
ENDBRANCH  61  62
ENDBRANCH  58  61
ENDBRANCH  56  57
BRANCH  56  66
ATOM     66  C   UNL     1      -1.530   3.639   5.663  1.00  0.00     0.157 C 
BRANCH  66  67
ATOM     67  C   UNL     1      -2.810   2.855   5.677  1.00  0.00     0.305 C 
ATOM     68  O   UNL     1      -3.932   3.280   5.448  1.00  0.00    -0.252 OA
BRANCH  67  69
ATOM     69  O   UNL     1      -2.608   1.548   5.932  1.00  0.00    -0.481 OA
ATOM     70  H   UNL     1      -2.771   1.099   5.076  1.00  0.00     0.296 HD
ENDBRANCH  67  69
ENDBRANCH  66  67
ENDBRANCH  56  66
ENDBRANCH  53  56
ENDBRANCH  50  52
ENDBRANCH  47  50
ENDBRANCH  45  46
BRANCH  45  71
ATOM     71  C   UNL     1      -2.714   9.342   4.111  1.00  0.00     0.037 C 
BRANCH  71  72
ATOM     72  C   UNL     1      -2.808   9.493   5.631  1.00  0.00     0.026 C 
BRANCH  72  73
ATOM     73  C   UNL     1      -4.198   9.126   6.146  1.00  0.00     0.146 C 
BRANCH  73  74
ATOM     74  N   UNL     1      -4.030   8.365   7.381  1.00  0.00    -0.254 NA
ATOM     75  C   UNL     1      -4.142   7.090   7.318  1.00  0.00     0.185 C 
ATOM     76  N   UNL     1      -3.992   6.363   8.437  1.00  0.00    -0.370 N 
ATOM     77  N   UNL     1      -4.399   6.316   6.250  1.00  0.00    -0.370 N 
ATOM     78  H   UNL     1      -3.803   6.869   9.290  1.00  0.00     0.159 HD
ATOM     79  H   UNL     1      -4.206   5.383   8.493  1.00  0.00     0.159 HD
ATOM     80  H   UNL     1      -4.532   6.726   5.338  1.00  0.00     0.159 HD
ATOM     81  H   UNL     1      -4.349   5.311   6.301  1.00  0.00     0.159 HD
ENDBRANCH  73  74
ENDBRANCH  72  73
ENDBRANCH  71  72
ENDBRANCH  45  71
ENDBRANCH   3  45
TORSDOF 20
ENDMDL
MODEL 34
REMARK VINA RESULT:    -4.535     11.842     15.219
REMARK INTER + INTRA:         -19.664
REMARK INTER:                 -14.662
REMARK INTRA:                  -5.002
REMARK UNBOUND:                -6.644
REMARK SMILES CCCCCC(=O)N[C@H](CC(=O)O)C(=O)N[C@H]1C(=O)N[C@H](CCCN=C(N)N)C(=O)N[C@@H]2CC[C@H](O)N(C2=O)[C@@H](CC(C)C)C(=O)N(C)[C@@H](Cc2ccccc2)C(=O)N[C@H](C(C)C)C(=O)O[C@@H]1C
REMARK SMILES IDX 30 1 31 2 29 3 32 5 35 6 37 7 34 8 38 9 33 10 39 11 36 12
REMARK SMILES IDX 40 14 41 15 42 16 43 17 44 18 45 19 46 20 47 21 48 22 49 23
REMARK SMILES IDX 50 24 51 25 52 26 56 27 53 28 55 29 54 30 57 31 58 32 59 33
REMARK SMILES IDX 60 35 61 36 62 37 63 38 64 39 65 40 66 41 67 42 68 43 21 45
REMARK SMILES IDX 20 46 18 47 19 48 17 50 16 52 14 53 15 54 9 56 8 57 6 58
REMARK SMILES IDX 7 59 5 61 4 62 3 63 2 64 1 65 10 66 11 67 12 68 13 69 22 71
REMARK SMILES IDX 23 72 24 73 25 74 26 75 27 76 28 77
REMARK H PARENT 31 4 36 13 59 34 20 49 16 55 8 60 13 70 27 78 27 79 28 80
REMARK H PARENT 28 81
REMARK Flexibility Score:  259.900
ROOT
ATOM      1  O   UNL     1      -7.443   4.537  -4.299  1.00  0.00    -0.273 OA
ATOM      2  N   UNL     1      -5.434   5.366  -5.012  1.00  0.00    -0.343 N 
ATOM      3  C   UNL     1      -6.268   4.818  -4.061  1.00  0.00     0.243 C 
ATOM      4  H   UNL     1      -4.469   5.571  -4.785  1.00  0.00     0.164 HD
ENDROOT
BRANCH   2   5
ATOM      5  C   UNL     1      -5.951   5.750  -6.321  1.00  0.00     0.171 C 
ATOM      6  C   UNL     1      -4.715   6.970  -8.642  1.00  0.00     0.214 C 
ATOM      7  N   UNL     1      -5.325   7.810  -7.638  1.00  0.00    -0.303 N 
ATOM      8  C   UNL     1      -5.371   5.604  -8.764  1.00  0.00     0.057 C 
ATOM      9  C   UNL     1      -5.888   7.296  -6.482  1.00  0.00     0.247 C 
ATOM     10  C   UNL     1      -5.333   4.896  -7.427  1.00  0.00     0.040 C 
ATOM     11  O   UNL     1      -6.331   8.027  -5.586  1.00  0.00    -0.272 OA
BRANCH   6  12
ATOM     12  O   UNL     1      -3.350   6.833  -8.318  1.00  0.00    -0.373 OA
ATOM     13  H   UNL     1      -3.172   7.438  -7.566  1.00  0.00     0.213 HD
ENDBRANCH   6  12
BRANCH   7  14
ATOM     14  C   UNL     1      -5.198   9.272  -7.820  1.00  0.00     0.177 C 
BRANCH  14  15
ATOM     15  C   UNL     1      -6.529  10.047  -7.855  1.00  0.00     0.038 C 
BRANCH  15  16
ATOM     16  C   UNL     1      -6.588  11.428  -8.545  1.00  0.00    -0.015 C 
ATOM     17  C   UNL     1      -5.797  11.460  -9.856  1.00  0.00     0.007 C 
ATOM     18  C   UNL     1      -6.011  12.499  -7.610  1.00  0.00     0.007 C 
ENDBRANCH  15  16
ENDBRANCH  14  15
BRANCH  14  19
ATOM     19  C   UNL     1      -3.866   9.786  -7.172  1.00  0.00     0.245 C 
ATOM     20  O   UNL     1      -3.855   9.904  -5.936  1.00  0.00    -0.272 OA
BRANCH  19  21
ATOM     21  N   UNL     1      -2.769  10.212  -7.900  1.00  0.00    -0.332 N 
ATOM     22  C   UNL     1      -2.509   9.899  -9.294  1.00  0.00     0.147 C 
BRANCH  21  23
ATOM     23  C   UNL     1      -1.757  11.054  -7.204  1.00  0.00     0.178 C 
BRANCH  23  24
ATOM     24  C   UNL     1      -0.521  10.286  -6.691  1.00  0.00     0.070 C 
BRANCH  24  25
ATOM     25  C   UNL     1      -0.525   9.867  -5.239  1.00  0.00    -0.045 A 
ATOM     26  C   UNL     1      -0.712   8.526  -4.879  1.00  0.00     0.004 A 
ATOM     27  C   UNL     1      -0.345  10.822  -4.227  1.00  0.00     0.004 A 
ATOM     28  C   UNL     1      -0.731   8.150  -3.535  1.00  0.00     0.000 A 
ATOM     29  C   UNL     1      -0.364  10.445  -2.884  1.00  0.00     0.000 A 
ATOM     30  C   UNL     1      -0.560   9.109  -2.538  1.00  0.00     0.000 A 
ENDBRANCH  24  25
ENDBRANCH  23  24
BRANCH  23  31
ATOM     31  C   UNL     1      -1.440  12.366  -7.960  1.00  0.00     0.243 C 
ATOM     32  O   UNL     1      -2.282  13.214  -8.247  1.00  0.00    -0.273 OA
ATOM     33  N   UNL     1      -0.148  12.422  -8.455  1.00  0.00    -0.341 N 
ATOM     34  H   UNL     1       0.506  11.683  -8.186  1.00  0.00     0.164 HD
BRANCH  33  35
ATOM     35  C   UNL     1       0.336  13.515  -9.302  1.00  0.00     0.194 C 
BRANCH  35  36
ATOM     36  C   UNL     1       0.439  13.152 -10.810  1.00  0.00     0.017 C 
ATOM     37  C   UNL     1      -0.398  14.110 -11.675  1.00  0.00     0.010 C 
ATOM     38  C   UNL     1      -0.029  11.725 -11.121  1.00  0.00     0.010 C 
ENDBRANCH  35  36
BRANCH  35  39
ATOM     39  C   UNL     1       1.650  14.149  -8.766  1.00  0.00     0.329 C 
ATOM     40  O   UNL     1       1.825  14.484  -7.601  1.00  0.00    -0.250 OA
BRANCH  39  41
ATOM     41  O   UNL     1       2.625  14.212  -9.724  1.00  0.00    -0.458 OA
BRANCH  41  42
ATOM     42  C   UNL     1       3.094  15.535 -10.075  1.00  0.00     0.205 CG0
ATOM     43  C   UNL     1       3.044  15.645 -11.598  1.00  0.00     0.056 C 
ATOM     44  G   UNL     1       4.520  15.716  -9.518  1.00  0.00     0.000 G0
ENDBRANCH  41  42
ENDBRANCH  39  41
ENDBRANCH  35  39
ENDBRANCH  33  35
ENDBRANCH  23  31
ENDBRANCH  21  23
ENDBRANCH  19  21
ENDBRANCH  14  19
ENDBRANCH   7  14
ENDBRANCH   2   5
BRANCH   3  45
ATOM     45  C   UNL     1      -5.624   4.563  -2.692  1.00  0.00     0.171 C 
BRANCH  45  46
ATOM     46  N   UNL     1      -6.432   3.525  -2.064  1.00  0.00    -0.342 N 
ATOM     47  C   UNL     1      -5.882   2.523  -1.305  1.00  0.00     0.247 C 
ATOM     48  O   UNL     1      -4.681   2.468  -1.039  1.00  0.00    -0.273 OA
ATOM     49  H   UNL     1      -7.438   3.565  -2.213  1.00  0.00     0.164 HD
BRANCH  47  50
ATOM     50  C   UNL     1      -6.872   1.450  -0.830  1.00  0.00     0.212 CG0
ATOM     51  G   UNL     1      -6.554   1.143   0.647  1.00  0.00     0.000 G0
BRANCH  50  52
ATOM     52  N   UNL     1      -8.198   2.030  -1.026  1.00  0.00    -0.339 N 
ATOM     53  C   UNL     1      -8.899   1.933  -2.204  1.00  0.00     0.243 C 
ATOM     54  O   UNL     1      -8.438   1.393  -3.206  1.00  0.00    -0.273 OA
ATOM     55  H   UNL     1      -8.588   2.586  -0.268  1.00  0.00     0.164 HD
BRANCH  53  56
ATOM     56  C   UNL     1     -10.238   2.698  -2.202  1.00  0.00     0.182 C 
BRANCH  56  57
ATOM     57  N   UNL     1     -10.504   3.291  -0.887  1.00  0.00    -0.344 N 
ATOM     58  C   UNL     1      -9.926   4.469  -0.481  1.00  0.00     0.220 C 
ATOM     59  O   UNL     1      -9.094   5.067  -1.155  1.00  0.00    -0.275 OA
ATOM     60  H   UNL     1     -11.260   2.884  -0.343  1.00  0.00     0.164 HD
BRANCH  58  61
ATOM     61  C   UNL     1     -10.389   4.924   0.890  1.00  0.00     0.100 C 
BRANCH  61  62
ATOM     62  C   UNL     1     -11.024   6.315   0.895  1.00  0.00     0.010 C 
BRANCH  62  63
ATOM     63  C   UNL     1     -10.031   7.457   1.146  1.00  0.00     0.000 C 
BRANCH  63  64
ATOM     64  C   UNL     1     -10.618   8.853   0.944  1.00  0.00    -0.003 C 
ATOM     65  C   UNL     1     -11.298   9.358   2.208  1.00  0.00     0.004 C 
ENDBRANCH  63  64
ENDBRANCH  62  63
ENDBRANCH  61  62
ENDBRANCH  58  61
ENDBRANCH  56  57
BRANCH  56  66
ATOM     66  C   UNL     1     -11.389   1.813  -2.678  1.00  0.00     0.157 C 
BRANCH  66  67
ATOM     67  C   UNL     1     -12.316   2.568  -3.587  1.00  0.00     0.305 C 
ATOM     68  O   UNL     1     -12.466   3.779  -3.637  1.00  0.00    -0.252 OA
BRANCH  67  69
ATOM     69  O   UNL     1     -12.978   1.756  -4.433  1.00  0.00    -0.481 OA
ATOM     70  H   UNL     1     -13.085   0.915  -3.939  1.00  0.00     0.296 HD
ENDBRANCH  67  69
ENDBRANCH  66  67
ENDBRANCH  56  66
ENDBRANCH  53  56
ENDBRANCH  50  52
ENDBRANCH  47  50
ENDBRANCH  45  46
BRANCH  45  71
ATOM     71  C   UNL     1      -5.611   5.850  -1.860  1.00  0.00     0.037 C 
BRANCH  71  72
ATOM     72  C   UNL     1      -4.218   6.481  -1.797  1.00  0.00     0.026 C 
BRANCH  72  73
ATOM     73  C   UNL     1      -4.270   7.900  -1.234  1.00  0.00     0.146 C 
BRANCH  73  74
ATOM     74  N   UNL     1      -4.042   8.828  -2.337  1.00  0.00    -0.254 NA
ATOM     75  C   UNL     1      -3.975  10.078  -2.064  1.00  0.00     0.185 C 
ATOM     76  N   UNL     1      -3.765  10.957  -3.058  1.00  0.00    -0.370 N 
ATOM     77  N   UNL     1      -4.086  10.690  -0.872  1.00  0.00    -0.370 N 
ATOM     78  H   UNL     1      -3.677  10.580  -3.991  1.00  0.00     0.159 HD
ATOM     79  H   UNL     1      -3.844  11.952  -2.943  1.00  0.00     0.159 HD
ATOM     80  H   UNL     1      -4.242  10.153  -0.032  1.00  0.00     0.159 HD
ATOM     81  H   UNL     1      -3.899  11.673  -0.763  1.00  0.00     0.159 HD
ENDBRANCH  73  74
ENDBRANCH  72  73
ENDBRANCH  71  72
ENDBRANCH  45  71
ENDBRANCH   3  45
TORSDOF 20
ENDMDL
MODEL 35
REMARK VINA RESULT:    -4.531      3.416      7.480
REMARK INTER + INTRA:         -19.651
REMARK INTER:                 -13.799
REMARK INTRA:                  -5.852
REMARK UNBOUND:                -6.644
REMARK SMILES CCCCCC(=O)N[C@H](CC(=O)O)C(=O)N[C@H]1C(=O)N[C@H](CCCN=C(N)N)C(=O)N[C@@H]2CC[C@H](O)N(C2=O)[C@@H](CC(C)C)C(=O)N(C)[C@@H](Cc2ccccc2)C(=O)N[C@H](C(C)C)C(=O)O[C@@H]1C
REMARK SMILES IDX 30 1 31 2 29 3 32 5 35 6 37 7 34 8 38 9 33 10 39 11 36 12
REMARK SMILES IDX 40 14 41 15 42 16 43 17 44 18 45 19 46 20 47 21 48 22 49 23
REMARK SMILES IDX 50 24 51 25 52 26 56 27 53 28 55 29 54 30 57 31 58 32 59 33
REMARK SMILES IDX 60 35 61 36 62 37 63 38 64 39 65 40 66 41 67 42 68 43 21 45
REMARK SMILES IDX 20 46 18 47 19 48 17 50 16 52 14 53 15 54 9 56 8 57 6 58
REMARK SMILES IDX 7 59 5 61 4 62 3 63 2 64 1 65 10 66 11 67 12 68 13 69 22 71
REMARK SMILES IDX 23 72 24 73 25 74 26 75 27 76 28 77
REMARK H PARENT 31 4 36 13 59 34 20 49 16 55 8 60 13 70 27 78 27 79 28 80
REMARK H PARENT 28 81
REMARK Flexibility Score:  259.900
ROOT
ATOM      1  O   UNL     1       0.454  10.699   6.173  1.00  0.00    -0.273 OA
ATOM      2  N   UNL     1      -1.136  10.176   7.731  1.00  0.00    -0.343 N 
ATOM      3  C   UNL     1      -0.528  10.033   6.502  1.00  0.00     0.243 C 
ATOM      4  H   UNL     1      -1.933   9.600   7.974  1.00  0.00     0.164 HD
ENDROOT
BRANCH   2   5
ATOM      5  C   UNL     1      -0.706  11.219   8.656  1.00  0.00     0.171 C 
ATOM      6  C   UNL     1       1.347  13.260   8.497  1.00  0.00     0.214 C 
ATOM      7  N   UNL     1       1.668  11.973   9.068  1.00  0.00    -0.303 N 
ATOM      8  C   UNL     1      -0.107  13.661   8.695  1.00  0.00     0.057 C 
ATOM      9  C   UNL     1       0.749  10.937   9.128  1.00  0.00     0.247 C 
ATOM     10  C   UNL     1      -1.015  12.607   8.098  1.00  0.00     0.040 C 
ATOM     11  O   UNL     1       1.057   9.811   9.540  1.00  0.00    -0.272 OA
BRANCH   6  12
ATOM     12  O   UNL     1       1.662  13.213   7.124  1.00  0.00    -0.373 OA
ATOM     13  H   UNL     1       2.319  12.494   7.005  1.00  0.00     0.213 HD
ENDBRANCH   6  12
BRANCH   7  14
ATOM     14  C   UNL     1       3.075  11.746   9.461  1.00  0.00     0.177 C 
BRANCH  14  15
ATOM     15  C   UNL     1       4.127  12.339   8.504  1.00  0.00     0.038 C 
BRANCH  15  16
ATOM     16  C   UNL     1       5.573  12.555   9.002  1.00  0.00    -0.015 C 
ATOM     17  C   UNL     1       5.943  14.038   9.097  1.00  0.00     0.007 C 
ATOM     18  C   UNL     1       6.559  11.875   8.044  1.00  0.00     0.007 C 
ENDBRANCH  15  16
ENDBRANCH  14  15
BRANCH  14  19
ATOM     19  C   UNL     1       3.200  11.687  11.022  1.00  0.00     0.245 C 
ATOM     20  O   UNL     1       3.225  12.774  11.623  1.00  0.00    -0.272 OA
BRANCH  19  21
ATOM     21  N   UNL     1       3.394  10.518  11.737  1.00  0.00    -0.332 N 
ATOM     22  C   UNL     1       2.509  10.002  12.765  1.00  0.00     0.147 C 
BRANCH  21  23
ATOM     23  C   UNL     1       4.615   9.718  11.443  1.00  0.00     0.178 C 
BRANCH  23  24
ATOM     24  C   UNL     1       5.539   9.482  12.656  1.00  0.00     0.070 C 
BRANCH  24  25
ATOM     25  C   UNL     1       6.456  10.616  13.053  1.00  0.00    -0.045 A 
ATOM     26  C   UNL     1       6.872  10.771  14.382  1.00  0.00     0.004 A 
ATOM     27  C   UNL     1       6.901  11.536  12.092  1.00  0.00     0.004 A 
ATOM     28  C   UNL     1       7.706  11.831  14.744  1.00  0.00     0.000 A 
ATOM     29  C   UNL     1       7.735  12.594  12.455  1.00  0.00     0.000 A 
ATOM     30  C   UNL     1       8.135  12.743  13.781  1.00  0.00     0.000 A 
ENDBRANCH  24  25
ENDBRANCH  23  24
BRANCH  23  31
ATOM     31  C   UNL     1       4.323   8.459  10.593  1.00  0.00     0.243 C 
ATOM     32  O   UNL     1       4.099   7.347  11.066  1.00  0.00    -0.273 OA
ATOM     33  N   UNL     1       4.518   8.650   9.236  1.00  0.00    -0.341 N 
ATOM     34  H   UNL     1       4.708   9.598   8.902  1.00  0.00     0.164 HD
BRANCH  33  35
ATOM     35  C   UNL     1       4.414   7.567   8.254  1.00  0.00     0.194 C 
BRANCH  35  36
ATOM     36  C   UNL     1       5.587   7.522   7.233  1.00  0.00     0.017 C 
ATOM     37  C   UNL     1       6.947   7.435   7.947  1.00  0.00     0.010 C 
ATOM     38  C   UNL     1       5.631   8.745   6.309  1.00  0.00     0.010 C 
ENDBRANCH  35  36
BRANCH  35  39
ATOM     39  C   UNL     1       3.030   7.530   7.549  1.00  0.00     0.329 C 
ATOM     40  O   UNL     1       2.514   8.495   6.997  1.00  0.00    -0.250 OA
BRANCH  39  41
ATOM     41  O   UNL     1       2.487   6.275   7.536  1.00  0.00    -0.458 OA
BRANCH  41  42
ATOM     42  C   UNL     1       1.213   6.120   8.206  1.00  0.00     0.205 CG0
ATOM     43  C   UNL     1       1.392   5.052   9.282  1.00  0.00     0.056 C 
ATOM     44  G   UNL     1       0.150   5.731   7.159  1.00  0.00     0.000 G0
ENDBRANCH  41  42
ENDBRANCH  39  41
ENDBRANCH  35  39
ENDBRANCH  33  35
ENDBRANCH  23  31
ENDBRANCH  21  23
ENDBRANCH  19  21
ENDBRANCH  14  19
ENDBRANCH   7  14
ENDBRANCH   2   5
BRANCH   3  45
ATOM     45  C   UNL     1      -1.147   8.972   5.582  1.00  0.00     0.171 C 
BRANCH  45  46
ATOM     46  N   UNL     1      -0.441   7.733   5.880  1.00  0.00    -0.342 N 
ATOM     47  C   UNL     1      -0.800   6.913   6.920  1.00  0.00     0.247 C 
ATOM     48  O   UNL     1      -1.784   7.125   7.630  1.00  0.00    -0.273 OA
ATOM     49  H   UNL     1       0.346   7.490   5.282  1.00  0.00     0.164 HD
BRANCH  47  50
ATOM     50  C   UNL     1       0.134   5.718   7.158  1.00  0.00     0.212 CG0
ATOM     51  G   UNL     1       1.179   6.143   8.208  1.00  0.00     0.000 G0
BRANCH  50  52
ATOM     52  N   UNL     1      -0.731   4.632   7.612  1.00  0.00    -0.339 N 
ATOM     53  C   UNL     1      -1.298   3.712   6.763  1.00  0.00     0.243 C 
ATOM     54  O   UNL     1      -1.162   3.765   5.544  1.00  0.00    -0.273 OA
ATOM     55  H   UNL     1      -0.972   4.601   8.601  1.00  0.00     0.164 HD
BRANCH  53  56
ATOM     56  C   UNL     1      -2.242   2.713   7.462  1.00  0.00     0.182 C 
BRANCH  56  57
ATOM     57  N   UNL     1      -3.643   3.118   7.310  1.00  0.00    -0.344 N 
ATOM     58  C   UNL     1      -4.495   2.507   6.423  1.00  0.00     0.220 C 
ATOM     59  O   UNL     1      -4.127   1.632   5.646  1.00  0.00    -0.275 OA
ATOM     60  H   UNL     1      -4.012   3.765   8.002  1.00  0.00     0.164 HD
BRANCH  58  61
ATOM     61  C   UNL     1      -5.911   3.049   6.478  1.00  0.00     0.100 C 
BRANCH  61  62
ATOM     62  C   UNL     1      -6.108   4.156   7.514  1.00  0.00     0.010 C 
BRANCH  62  63
ATOM     63  C   UNL     1      -7.469   4.120   8.219  1.00  0.00     0.000 C 
BRANCH  63  64
ATOM     64  C   UNL     1      -7.384   4.005   9.740  1.00  0.00    -0.003 C 
ATOM     65  C   UNL     1      -5.951   3.776  10.200  1.00  0.00     0.004 C 
ENDBRANCH  63  64
ENDBRANCH  62  63
ENDBRANCH  61  62
ENDBRANCH  58  61
ENDBRANCH  56  57
BRANCH  56  66
ATOM     66  C   UNL     1      -1.856   2.507   8.926  1.00  0.00     0.157 C 
BRANCH  66  67
ATOM     67  C   UNL     1      -2.695   1.437   9.564  1.00  0.00     0.305 C 
ATOM     68  O   UNL     1      -3.199   1.468  10.676  1.00  0.00    -0.252 OA
BRANCH  67  69
ATOM     69  O   UNL     1      -2.905   0.392   8.741  1.00  0.00    -0.481 OA
ATOM     70  H   UNL     1      -2.471   0.645   7.899  1.00  0.00     0.296 HD
ENDBRANCH  67  69
ENDBRANCH  66  67
ENDBRANCH  56  66
ENDBRANCH  53  56
ENDBRANCH  50  52
ENDBRANCH  47  50
ENDBRANCH  45  46
BRANCH  45  71
ATOM     71  C   UNL     1      -0.982   9.378   4.113  1.00  0.00     0.037 C 
BRANCH  71  72
ATOM     72  C   UNL     1      -0.530   8.205   3.239  1.00  0.00     0.026 C 
BRANCH  72  73
ATOM     73  C   UNL     1      -1.333   8.131   1.942  1.00  0.00     0.146 C 
BRANCH  73  74
ATOM     74  N   UNL     1      -0.431   7.689   0.883  1.00  0.00    -0.254 NA
ATOM     75  C   UNL     1      -0.058   8.555   0.014  1.00  0.00     0.185 C 
ATOM     76  N   UNL     1       0.773   8.179  -0.972  1.00  0.00    -0.370 N 
ATOM     77  N   UNL     1      -0.383   9.856  -0.076  1.00  0.00    -0.370 N 
ATOM     78  H   UNL     1       1.061   7.211  -0.983  1.00  0.00     0.159 HD
ATOM     79  H   UNL     1       0.990   8.758  -1.764  1.00  0.00     0.159 HD
ATOM     80  H   UNL     1      -0.998  10.280   0.602  1.00  0.00     0.159 HD
ATOM     81  H   UNL     1       0.065  10.468  -0.738  1.00  0.00     0.159 HD
ENDBRANCH  73  74
ENDBRANCH  72  73
ENDBRANCH  71  72
ENDBRANCH  45  71
ENDBRANCH   3  45
TORSDOF 20
ENDMDL
MODEL 36
REMARK VINA RESULT:    -4.505      4.798      9.117
REMARK INTER + INTRA:         -19.576
REMARK INTER:                 -15.446
REMARK INTRA:                  -4.130
REMARK UNBOUND:                -6.644
REMARK SMILES CCCCCC(=O)N[C@H](CC(=O)O)C(=O)N[C@H]1C(=O)N[C@H](CCCN=C(N)N)C(=O)N[C@@H]2CC[C@H](O)N(C2=O)[C@@H](CC(C)C)C(=O)N(C)[C@@H](Cc2ccccc2)C(=O)N[C@H](C(C)C)C(=O)O[C@@H]1C
REMARK SMILES IDX 30 1 31 2 29 3 32 5 35 6 37 7 34 8 38 9 33 10 39 11 36 12
REMARK SMILES IDX 40 14 41 15 42 16 43 17 44 18 45 19 46 20 47 21 48 22 49 23
REMARK SMILES IDX 50 24 51 25 52 26 56 27 53 28 55 29 54 30 57 31 58 32 59 33
REMARK SMILES IDX 60 35 61 36 62 37 63 38 64 39 65 40 66 41 67 42 68 43 21 45
REMARK SMILES IDX 20 46 18 47 19 48 17 50 16 52 14 53 15 54 9 56 8 57 6 58
REMARK SMILES IDX 7 59 5 61 4 62 3 63 2 64 1 65 10 66 11 67 12 68 13 69 22 71
REMARK SMILES IDX 23 72 24 73 25 74 26 75 27 76 28 77
REMARK H PARENT 31 4 36 13 59 34 20 49 16 55 8 60 13 70 27 78 27 79 28 80
REMARK H PARENT 28 81
REMARK Flexibility Score:  259.900
ROOT
ATOM      1  O   UNL     1      -0.123  10.213  14.193  1.00  0.00    -0.273 OA
ATOM      2  N   UNL     1       1.538  10.346  15.759  1.00  0.00    -0.343 N 
ATOM      3  C   UNL     1       0.273  10.619  15.286  1.00  0.00     0.243 C 
ATOM      4  H   UNL     1       1.824  10.685  16.670  1.00  0.00     0.164 HD
ENDROOT
BRANCH   2   5
ATOM      5  C   UNL     1       2.512   9.656  14.921  1.00  0.00     0.171 C 
ATOM      6  C   UNL     1       5.411   9.647  14.877  1.00  0.00     0.214 C 
ATOM      7  N   UNL     1       4.691  10.599  14.063  1.00  0.00    -0.303 N 
ATOM      8  C   UNL     1       4.652   8.348  15.096  1.00  0.00     0.057 C 
ATOM      9  C   UNL     1       3.308  10.691  14.075  1.00  0.00     0.247 C 
ATOM     10  C   UNL     1       3.311   8.638  15.733  1.00  0.00     0.040 C 
ATOM     11  O   UNL     1       2.703  11.565  13.442  1.00  0.00    -0.272 OA
BRANCH   6  12
ATOM     12  O   UNL     1       5.696  10.265  16.110  1.00  0.00    -0.373 OA
ATOM     13  H   UNL     1       6.274   9.651  16.612  1.00  0.00     0.213 HD
ENDBRANCH   6  12
BRANCH   7  14
ATOM     14  C   UNL     1       5.497  11.586  13.314  1.00  0.00     0.177 C 
BRANCH  14  15
ATOM     15  C   UNL     1       5.652  12.959  13.995  1.00  0.00     0.038 C 
BRANCH  15  16
ATOM     16  C   UNL     1       7.008  13.696  13.922  1.00  0.00    -0.015 C 
ATOM     17  C   UNL     1       7.811  13.572  15.221  1.00  0.00     0.007 C 
ATOM     18  C   UNL     1       6.774  15.186  13.642  1.00  0.00     0.007 C 
ENDBRANCH  15  16
ENDBRANCH  14  15
BRANCH  14  19
ATOM     19  C   UNL     1       6.604  10.859  12.475  1.00  0.00     0.245 C 
ATOM     20  O   UNL     1       7.564  10.387  13.107  1.00  0.00    -0.272 OA
BRANCH  19  21
ATOM     21  N   UNL     1       6.622  10.818  11.092  1.00  0.00    -0.332 N 
ATOM     22  C   UNL     1       6.361  11.943  10.212  1.00  0.00     0.147 C 
BRANCH  21  23
ATOM     23  C   UNL     1       6.921   9.514  10.439  1.00  0.00     0.178 C 
BRANCH  23  24
ATOM     24  C   UNL     1       5.774   8.944   9.579  1.00  0.00     0.070 C 
BRANCH  24  25
ATOM     25  C   UNL     1       4.417   8.824  10.234  1.00  0.00    -0.045 A 
ATOM     26  C   UNL     1       3.360   9.660   9.852  1.00  0.00     0.004 A 
ATOM     27  C   UNL     1       4.200   7.874  11.243  1.00  0.00     0.004 A 
ATOM     28  C   UNL     1       2.114   9.554  10.474  1.00  0.00     0.000 A 
ATOM     29  C   UNL     1       2.954   7.769  11.863  1.00  0.00     0.000 A 
ATOM     30  C   UNL     1       1.912   8.612  11.479  1.00  0.00     0.000 A 
ENDBRANCH  24  25
ENDBRANCH  23  24
BRANCH  23  31
ATOM     31  C   UNL     1       8.315   9.480   9.769  1.00  0.00     0.243 C 
ATOM     32  O   UNL     1       9.363   9.756  10.348  1.00  0.00    -0.273 OA
ATOM     33  N   UNL     1       8.266   9.290   8.398  1.00  0.00    -0.341 N 
ATOM     34  H   UNL     1       7.363   9.069   7.971  1.00  0.00     0.164 HD
BRANCH  33  35
ATOM     35  C   UNL     1       9.454   9.340   7.542  1.00  0.00     0.194 C 
BRANCH  35  36
ATOM     36  C   UNL     1       9.264  10.172   6.242  1.00  0.00     0.017 C 
ATOM     37  C   UNL     1      10.615  10.655   5.684  1.00  0.00     0.010 C 
ATOM     38  C   UNL     1       8.381  11.410   6.440  1.00  0.00     0.010 C 
ENDBRANCH  35  36
BRANCH  35  39
ATOM     39  C   UNL     1      10.040   7.931   7.248  1.00  0.00     0.329 C 
ATOM     40  O   UNL     1       9.408   7.019   6.729  1.00  0.00    -0.250 OA
BRANCH  39  41
ATOM     41  O   UNL     1      11.370   7.847   7.556  1.00  0.00    -0.458 OA
BRANCH  41  42
ATOM     42  C   UNL     1      12.006   6.570   7.308  1.00  0.00     0.205 CG0
ATOM     43  C   UNL     1      12.911   6.275   8.502  1.00  0.00     0.056 C 
ATOM     44  G   UNL     1      12.789   6.659   5.983  1.00  0.00     0.000 G0
ENDBRANCH  41  42
ENDBRANCH  39  41
ENDBRANCH  35  39
ENDBRANCH  33  35
ENDBRANCH  23  31
ENDBRANCH  21  23
ENDBRANCH  19  21
ENDBRANCH  14  19
ENDBRANCH   7  14
ENDBRANCH   2   5
BRANCH   3  45
ATOM     45  C   UNL     1      -0.616  11.446  16.224  1.00  0.00     0.171 C 
BRANCH  45  46
ATOM     46  N   UNL     1      -1.758  10.597  16.536  1.00  0.00    -0.342 N 
ATOM     47  C   UNL     1      -2.946  10.681  15.855  1.00  0.00     0.247 C 
ATOM     48  O   UNL     1      -3.110  11.425  14.887  1.00  0.00    -0.273 OA
ATOM     49  H   UNL     1      -1.646   9.926  17.294  1.00  0.00     0.164 HD
BRANCH  47  50
ATOM     50  C   UNL     1      -4.074   9.796  16.404  1.00  0.00     0.212 CG0
ATOM     51  G   UNL     1      -4.925  10.660  17.355  1.00  0.00     0.000 G0
BRANCH  50  52
ATOM     52  N   UNL     1      -4.810   9.331  15.231  1.00  0.00    -0.339 N 
ATOM     53  C   UNL     1      -5.548   8.173  15.212  1.00  0.00     0.243 C 
ATOM     54  O   UNL     1      -5.602   7.406  16.170  1.00  0.00    -0.273 OA
ATOM     55  H   UNL     1      -4.715   9.866  14.370  1.00  0.00     0.164 HD
BRANCH  53  56
ATOM     56  C   UNL     1      -6.166   7.844  13.838  1.00  0.00     0.182 C 
BRANCH  56  57
ATOM     57  N   UNL     1      -5.969   6.432  13.496  1.00  0.00    -0.344 N 
ATOM     58  C   UNL     1      -6.769   5.775  12.593  1.00  0.00     0.220 C 
ATOM     59  O   UNL     1      -7.745   6.299  12.067  1.00  0.00    -0.275 OA
ATOM     60  H   UNL     1      -5.116   5.992  13.830  1.00  0.00     0.164 HD
BRANCH  58  61
ATOM     61  C   UNL     1      -6.347   4.338  12.350  1.00  0.00     0.100 C 
BRANCH  61  62
ATOM     62  C   UNL     1      -7.016   3.696  11.135  1.00  0.00     0.010 C 
BRANCH  62  63
ATOM     63  C   UNL     1      -6.176   3.753   9.853  1.00  0.00     0.000 C 
BRANCH  63  64
ATOM     64  C   UNL     1      -6.985   4.022   8.585  1.00  0.00    -0.003 C 
ATOM     65  C   UNL     1      -6.181   3.697   7.334  1.00  0.00     0.004 C 
ENDBRANCH  63  64
ENDBRANCH  62  63
ENDBRANCH  61  62
ENDBRANCH  58  61
ENDBRANCH  56  57
BRANCH  56  66
ATOM     66  C   UNL     1      -5.640   8.779  12.750  1.00  0.00     0.157 C 
BRANCH  66  67
ATOM     67  C   UNL     1      -4.336   8.285  12.192  1.00  0.00     0.305 C 
ATOM     68  O   UNL     1      -3.258   8.258  12.764  1.00  0.00    -0.252 OA
BRANCH  67  69
ATOM     69  O   UNL     1      -4.467   7.796  10.944  1.00  0.00    -0.481 OA
ATOM     70  H   UNL     1      -4.854   6.903  11.064  1.00  0.00     0.296 HD
ENDBRANCH  67  69
ENDBRANCH  66  67
ENDBRANCH  56  66
ENDBRANCH  53  56
ENDBRANCH  50  52
ENDBRANCH  47  50
ENDBRANCH  45  46
BRANCH  45  71
ATOM     71  C   UNL     1      -1.050  12.747  15.539  1.00  0.00     0.037 C 
BRANCH  71  72
ATOM     72  C   UNL     1      -1.126  13.918  16.523  1.00  0.00     0.026 C 
BRANCH  72  73
ATOM     73  C   UNL     1       0.020  14.904  16.311  1.00  0.00     0.146 C 
BRANCH  73  74
ATOM     74  N   UNL     1       0.583  14.658  14.986  1.00  0.00    -0.254 NA
ATOM     75  C   UNL     1       1.858  14.678  14.864  1.00  0.00     0.185 C 
ATOM     76  N   UNL     1       2.405  14.453  13.658  1.00  0.00    -0.370 N 
ATOM     77  N   UNL     1       2.794  14.900  15.804  1.00  0.00    -0.370 N 
ATOM     78  H   UNL     1       1.770  14.284  12.892  1.00  0.00     0.159 HD
ATOM     79  H   UNL     1       3.380  14.595  13.457  1.00  0.00     0.159 HD
ATOM     80  H   UNL     1       2.529  15.079  16.760  1.00  0.00     0.159 HD
ATOM     81  H   UNL     1       3.775  14.776  15.612  1.00  0.00     0.159 HD
ENDBRANCH  73  74
ENDBRANCH  72  73
ENDBRANCH  71  72
ENDBRANCH  45  71
ENDBRANCH   3  45
TORSDOF 20
ENDMDL
MODEL 37
REMARK VINA RESULT:    -4.502      7.827     12.962
REMARK INTER + INTRA:         -19.567
REMARK INTER:                 -14.530
REMARK INTRA:                  -5.037
REMARK UNBOUND:                -6.644
REMARK SMILES CCCCCC(=O)N[C@H](CC(=O)O)C(=O)N[C@H]1C(=O)N[C@H](CCCN=C(N)N)C(=O)N[C@@H]2CC[C@H](O)N(C2=O)[C@@H](CC(C)C)C(=O)N(C)[C@@H](Cc2ccccc2)C(=O)N[C@H](C(C)C)C(=O)O[C@@H]1C
REMARK SMILES IDX 30 1 31 2 29 3 32 5 35 6 37 7 34 8 38 9 33 10 39 11 36 12
REMARK SMILES IDX 40 14 41 15 42 16 43 17 44 18 45 19 46 20 47 21 48 22 49 23
REMARK SMILES IDX 50 24 51 25 52 26 56 27 53 28 55 29 54 30 57 31 58 32 59 33
REMARK SMILES IDX 60 35 61 36 62 37 63 38 64 39 65 40 66 41 67 42 68 43 21 45
REMARK SMILES IDX 20 46 18 47 19 48 17 50 16 52 14 53 15 54 9 56 8 57 6 58
REMARK SMILES IDX 7 59 5 61 4 62 3 63 2 64 1 65 10 66 11 67 12 68 13 69 22 71
REMARK SMILES IDX 23 72 24 73 25 74 26 75 27 76 28 77
REMARK H PARENT 31 4 36 13 59 34 20 49 16 55 8 60 13 70 27 78 27 79 28 80
REMARK H PARENT 28 81
REMARK Flexibility Score:  259.900
ROOT
ATOM      1  O   UNL     1      -0.845  10.050   1.770  1.00  0.00    -0.273 OA
ATOM      2  N   UNL     1      -1.034   7.784   2.011  1.00  0.00    -0.343 N 
ATOM      3  C   UNL     1      -1.040   9.074   2.495  1.00  0.00     0.243 C 
ATOM      4  H   UNL     1      -1.213   7.006   2.634  1.00  0.00     0.164 HD
ENDROOT
BRANCH   2   5
ATOM      5  C   UNL     1      -0.675   7.513   0.623  1.00  0.00     0.171 C 
ATOM      6  C   UNL     1      -0.377   9.224  -1.698  1.00  0.00     0.214 C 
ATOM      7  N   UNL     1      -1.658   8.615  -1.424  1.00  0.00    -0.303 N 
ATOM      8  C   UNL     1       0.800   8.393  -1.214  1.00  0.00     0.057 C 
ATOM      9  C   UNL     1      -1.882   7.829  -0.306  1.00  0.00     0.247 C 
ATOM     10  C   UNL     1       0.673   8.142   0.273  1.00  0.00     0.040 C 
ATOM     11  O   UNL     1      -3.004   7.382  -0.032  1.00  0.00    -0.272 OA
BRANCH   6  12
ATOM     12  O   UNL     1      -0.366  10.495  -1.091  1.00  0.00    -0.373 OA
ATOM     13  H   UNL     1       0.534  10.630  -0.724  1.00  0.00     0.213 HD
ENDBRANCH   6  12
BRANCH   7  14
ATOM     14  C   UNL     1      -2.780   8.983  -2.314  1.00  0.00     0.177 C 
BRANCH  14  15
ATOM     15  C   UNL     1      -3.329  10.410  -2.120  1.00  0.00     0.038 C 
BRANCH  15  16
ATOM     16  C   UNL     1      -4.513  10.645  -1.155  1.00  0.00    -0.015 C 
ATOM     17  C   UNL     1      -4.061  10.771   0.303  1.00  0.00     0.007 C 
ATOM     18  C   UNL     1      -5.501   9.476  -1.253  1.00  0.00     0.007 C 
ENDBRANCH  15  16
ENDBRANCH  14  15
BRANCH  14  19
ATOM     19  C   UNL     1      -2.650   8.240  -3.688  1.00  0.00     0.245 C 
ATOM     20  O   UNL     1      -2.948   7.033  -3.701  1.00  0.00    -0.272 OA
BRANCH  19  21
ATOM     21  N   UNL     1      -2.126   8.817  -4.831  1.00  0.00    -0.332 N 
ATOM     22  C   UNL     1      -0.724   8.817  -5.209  1.00  0.00     0.147 C 
BRANCH  21  23
ATOM     23  C   UNL     1      -3.067   9.510  -5.754  1.00  0.00     0.178 C 
BRANCH  23  24
ATOM     24  C   UNL     1      -3.063  11.048  -5.645  1.00  0.00     0.070 C 
BRANCH  24  25
ATOM     25  C   UNL     1      -1.721  11.724  -5.486  1.00  0.00    -0.045 A 
ATOM     26  C   UNL     1      -1.213  12.020  -4.215  1.00  0.00     0.004 A 
ATOM     27  C   UNL     1      -0.965  12.070  -6.616  1.00  0.00     0.004 A 
ATOM     28  C   UNL     1       0.021  12.660  -4.078  1.00  0.00     0.000 A 
ATOM     29  C   UNL     1       0.268  12.708  -6.477  1.00  0.00     0.000 A 
ATOM     30  C   UNL     1       0.759  13.006  -5.207  1.00  0.00     0.000 A 
ENDBRANCH  24  25
ENDBRANCH  23  24
BRANCH  23  31
ATOM     31  C   UNL     1      -3.009   8.960  -7.199  1.00  0.00     0.243 C 
ATOM     32  O   UNL     1      -3.039   7.764  -7.481  1.00  0.00    -0.273 OA
ATOM     33  N   UNL     1      -2.732   9.928  -8.149  1.00  0.00    -0.341 N 
ATOM     34  H   UNL     1      -2.714  10.907  -7.853  1.00  0.00     0.164 HD
BRANCH  33  35
ATOM     35  C   UNL     1      -2.514   9.619  -9.565  1.00  0.00     0.194 C 
BRANCH  35  36
ATOM     36  C   UNL     1      -1.147  10.110 -10.119  1.00  0.00     0.017 C 
ATOM     37  C   UNL     1       0.010   9.715  -9.185  1.00  0.00     0.010 C 
ATOM     38  C   UNL     1      -1.084  11.631 -10.310  1.00  0.00     0.010 C 
ENDBRANCH  35  36
BRANCH  35  39
ATOM     39  C   UNL     1      -3.700  10.068 -10.465  1.00  0.00     0.329 C 
ATOM     40  O   UNL     1      -4.693  10.654 -10.049  1.00  0.00    -0.250 OA
BRANCH  39  41
ATOM     41  O   UNL     1      -3.474   9.813 -11.789  1.00  0.00    -0.458 OA
BRANCH  41  42
ATOM     42  C   UNL     1      -4.469   9.010 -12.467  1.00  0.00     0.205 CG0
ATOM     43  C   UNL     1      -4.131   7.545 -12.197  1.00  0.00     0.056 C 
ATOM     44  G   UNL     1      -4.439   9.355 -13.969  1.00  0.00     0.000 G0
ENDBRANCH  41  42
ENDBRANCH  39  41
ENDBRANCH  35  39
ENDBRANCH  33  35
ENDBRANCH  23  31
ENDBRANCH  21  23
ENDBRANCH  19  21
ENDBRANCH  14  19
ENDBRANCH   7  14
ENDBRANCH   2   5
BRANCH   3  45
ATOM     45  C   UNL     1      -1.327   9.211   3.996  1.00  0.00     0.171 C 
BRANCH  45  46
ATOM     46  N   UNL     1      -0.989   7.921   4.581  1.00  0.00    -0.342 N 
ATOM     47  C   UNL     1       0.144   7.726   5.331  1.00  0.00     0.247 C 
ATOM     48  O   UNL     1       0.917   8.640   5.623  1.00  0.00    -0.273 OA
ATOM     49  H   UNL     1      -1.631   7.149   4.411  1.00  0.00     0.164 HD
BRANCH  47  50
ATOM     50  C   UNL     1       0.399   6.274   5.759  1.00  0.00     0.212 CG0
ATOM     51  G   UNL     1       1.271   6.308   7.030  1.00  0.00     0.000 G0
BRANCH  50  52
ATOM     52  N   UNL     1      -0.923   5.696   5.982  1.00  0.00    -0.339 N 
ATOM     53  C   UNL     1      -1.173   4.716   6.912  1.00  0.00     0.243 C 
ATOM     54  O   UNL     1      -0.286   4.210   7.594  1.00  0.00    -0.273 OA
ATOM     55  H   UNL     1      -1.679   5.995   5.369  1.00  0.00     0.164 HD
BRANCH  53  56
ATOM     56  C   UNL     1      -2.626   4.201   6.906  1.00  0.00     0.182 C 
BRANCH  56  57
ATOM     57  N   UNL     1      -2.990   3.638   8.210  1.00  0.00    -0.344 N 
ATOM     58  C   UNL     1      -3.884   4.252   9.053  1.00  0.00     0.220 C 
ATOM     59  O   UNL     1      -4.382   5.346   8.809  1.00  0.00    -0.275 OA
ATOM     60  H   UNL     1      -2.681   2.690   8.405  1.00  0.00     0.164 HD
BRANCH  58  61
ATOM     61  C   UNL     1      -4.155   3.463  10.321  1.00  0.00     0.100 C 
BRANCH  61  62
ATOM     62  C   UNL     1      -4.217   1.951  10.104  1.00  0.00     0.010 C 
BRANCH  62  63
ATOM     63  C   UNL     1      -3.898   1.124  11.356  1.00  0.00     0.000 C 
BRANCH  63  64
ATOM     64  C   UNL     1      -2.593   0.335  11.270  1.00  0.00    -0.003 C 
ATOM     65  C   UNL     1      -1.478   1.020  12.048  1.00  0.00     0.004 C 
ENDBRANCH  63  64
ENDBRANCH  62  63
ENDBRANCH  61  62
ENDBRANCH  58  61
ENDBRANCH  56  57
BRANCH  56  66
ATOM     66  C   UNL     1      -2.866   3.214   5.765  1.00  0.00     0.157 C 
BRANCH  66  67
ATOM     67  C   UNL     1      -3.504   1.950   6.264  1.00  0.00     0.305 C 
ATOM     68  O   UNL     1      -4.700   1.708   6.327  1.00  0.00    -0.252 OA
BRANCH  67  69
ATOM     69  O   UNL     1      -2.594   1.021   6.616  1.00  0.00    -0.481 OA
ATOM     70  H   UNL     1      -1.803   1.230   6.076  1.00  0.00     0.296 HD
ENDBRANCH  67  69
ENDBRANCH  66  67
ENDBRANCH  56  66
ENDBRANCH  53  56
ENDBRANCH  50  52
ENDBRANCH  47  50
ENDBRANCH  45  46
BRANCH  45  71
ATOM     71  C   UNL     1      -2.800   9.568   4.227  1.00  0.00     0.037 C 
BRANCH  71  72
ATOM     72  C   UNL     1      -3.361   8.909   5.490  1.00  0.00     0.026 C 
BRANCH  72  73
ATOM     73  C   UNL     1      -4.830   9.268   5.704  1.00  0.00     0.146 C 
BRANCH  73  74
ATOM     74  N   UNL     1      -5.601   8.029   5.683  1.00  0.00    -0.254 NA
ATOM     75  C   UNL     1      -5.947   7.520   6.808  1.00  0.00     0.185 C 
ATOM     76  N   UNL     1      -6.658   6.381   6.821  1.00  0.00    -0.370 N 
ATOM     77  N   UNL     1      -5.699   7.969   8.051  1.00  0.00    -0.370 N 
ATOM     78  H   UNL     1      -6.882   5.971   5.926  1.00  0.00     0.159 HD
ATOM     79  H   UNL     1      -6.838   5.851   7.655  1.00  0.00     0.159 HD
ATOM     80  H   UNL     1      -5.176   8.820   8.195  1.00  0.00     0.159 HD
ATOM     81  H   UNL     1      -6.122   7.545   8.860  1.00  0.00     0.159 HD
ENDBRANCH  73  74
ENDBRANCH  72  73
ENDBRANCH  71  72
ENDBRANCH  45  71
ENDBRANCH   3  45
TORSDOF 20
ENDMDL
MODEL 38
REMARK VINA RESULT:    -4.479      5.693     12.124
REMARK INTER + INTRA:         -19.502
REMARK INTER:                 -12.862
REMARK INTRA:                  -6.640
REMARK UNBOUND:                -6.644
REMARK SMILES CCCCCC(=O)N[C@H](CC(=O)O)C(=O)N[C@H]1C(=O)N[C@H](CCCN=C(N)N)C(=O)N[C@@H]2CC[C@H](O)N(C2=O)[C@@H](CC(C)C)C(=O)N(C)[C@@H](Cc2ccccc2)C(=O)N[C@H](C(C)C)C(=O)O[C@@H]1C
REMARK SMILES IDX 30 1 31 2 29 3 32 5 35 6 37 7 34 8 38 9 33 10 39 11 36 12
REMARK SMILES IDX 40 14 41 15 42 16 43 17 44 18 45 19 46 20 47 21 48 22 49 23
REMARK SMILES IDX 50 24 51 25 52 26 56 27 53 28 55 29 54 30 57 31 58 32 59 33
REMARK SMILES IDX 60 35 61 36 62 37 63 38 64 39 65 40 66 41 67 42 68 43 21 45
REMARK SMILES IDX 20 46 18 47 19 48 17 50 16 52 14 53 15 54 9 56 8 57 6 58
REMARK SMILES IDX 7 59 5 61 4 62 3 63 2 64 1 65 10 66 11 67 12 68 13 69 22 71
REMARK SMILES IDX 23 72 24 73 25 74 26 75 27 76 28 77
REMARK H PARENT 31 4 36 13 59 34 20 49 16 55 8 60 13 70 27 78 27 79 28 80
REMARK H PARENT 28 81
REMARK Flexibility Score:  259.900
ROOT
ATOM      1  O   UNL     1       0.050   6.870   2.749  1.00  0.00    -0.273 OA
ATOM      2  N   UNL     1       0.304   8.820   3.917  1.00  0.00    -0.343 N 
ATOM      3  C   UNL     1       0.238   8.087   2.752  1.00  0.00     0.243 C 
ATOM      4  H   UNL     1       0.446   9.821   3.881  1.00  0.00     0.164 HD
ENDROOT
BRANCH   2   5
ATOM      5  C   UNL     1       0.270   8.155   5.215  1.00  0.00     0.171 C 
ATOM      6  C   UNL     1      -0.537   5.495   6.040  1.00  0.00     0.214 C 
ATOM      7  N   UNL     1      -1.508   6.564   6.041  1.00  0.00    -0.303 N 
ATOM      8  C   UNL     1       0.883   5.971   6.302  1.00  0.00     0.057 C 
ATOM      9  C   UNL     1      -1.202   7.846   5.611  1.00  0.00     0.247 C 
ATOM     10  C   UNL     1       1.275   7.005   5.269  1.00  0.00     0.040 C 
ATOM     11  O   UNL     1      -2.061   8.734   5.534  1.00  0.00    -0.272 OA
BRANCH   6  12
ATOM     12  O   UNL     1      -0.616   4.844   4.793  1.00  0.00    -0.373 OA
ATOM     13  H   UNL     1      -0.278   3.932   4.923  1.00  0.00     0.213 HD
ENDBRANCH   6  12
BRANCH   7  14
ATOM     14  C   UNL     1      -2.900   6.205   6.385  1.00  0.00     0.177 C 
BRANCH  14  15
ATOM     15  C   UNL     1      -3.473   4.995   5.622  1.00  0.00     0.038 C 
BRANCH  15  16
ATOM     16  C   UNL     1      -4.023   3.788   6.414  1.00  0.00    -0.015 C 
ATOM     17  C   UNL     1      -2.952   2.726   6.679  1.00  0.00     0.007 C 
ATOM     18  C   UNL     1      -5.167   3.132   5.630  1.00  0.00     0.007 C 
ENDBRANCH  15  16
ENDBRANCH  14  15
BRANCH  14  19
ATOM     19  C   UNL     1      -3.198   6.557   7.883  1.00  0.00     0.245 C 
ATOM     20  O   UNL     1      -3.233   5.609   8.684  1.00  0.00    -0.272 OA
BRANCH  19  21
ATOM     21  N   UNL     1      -3.529   7.826   8.326  1.00  0.00    -0.332 N 
ATOM     22  C   UNL     1      -2.679   8.686   9.130  1.00  0.00     0.147 C 
BRANCH  21  23
ATOM     23  C   UNL     1      -4.870   8.362   7.964  1.00  0.00     0.178 C 
BRANCH  23  24
ATOM     24  C   UNL     1      -5.963   8.139   9.030  1.00  0.00     0.070 C 
BRANCH  24  25
ATOM     25  C   UNL     1      -6.495   6.733   9.186  1.00  0.00    -0.045 A 
ATOM     26  C   UNL     1      -6.403   6.063  10.412  1.00  0.00     0.004 A 
ATOM     27  C   UNL     1      -7.088   6.076   8.097  1.00  0.00     0.004 A 
ATOM     28  C   UNL     1      -6.882   4.758  10.543  1.00  0.00     0.000 A 
ATOM     29  C   UNL     1      -7.567   4.772   8.230  1.00  0.00     0.000 A 
ATOM     30  C   UNL     1      -7.461   4.113   9.453  1.00  0.00     0.000 A 
ENDBRANCH  24  25
ENDBRANCH  23  24
BRANCH  23  31
ATOM     31  C   UNL     1      -4.811   9.794   7.382  1.00  0.00     0.243 C 
ATOM     32  O   UNL     1      -4.820  10.815   8.066  1.00  0.00    -0.273 OA
ATOM     33  N   UNL     1      -4.934   9.836   6.004  1.00  0.00    -0.341 N 
ATOM     34  H   UNL     1      -4.927   8.952   5.489  1.00  0.00     0.164 HD
BRANCH  33  35
ATOM     35  C   UNL     1      -5.024  11.088   5.247  1.00  0.00     0.194 C 
BRANCH  35  36
ATOM     36  C   UNL     1      -6.228  11.153   4.265  1.00  0.00     0.017 C 
ATOM     37  C   UNL     1      -6.933  12.518   4.334  1.00  0.00     0.010 C 
ATOM     38  C   UNL     1      -7.285  10.075   4.535  1.00  0.00     0.010 C 
ENDBRANCH  35  36
BRANCH  35  39
ATOM     39  C   UNL     1      -3.686  11.462   4.550  1.00  0.00     0.329 C 
ATOM     40  O   UNL     1      -2.726  11.959   5.128  1.00  0.00    -0.250 OA
BRANCH  39  41
ATOM     41  O   UNL     1      -3.665  11.094   3.233  1.00  0.00    -0.458 OA
BRANCH  41  42
ATOM     42  C   UNL     1      -3.043  12.027   2.317  1.00  0.00     0.205 CG0
ATOM     43  C   UNL     1      -4.061  13.128   2.029  1.00  0.00     0.056 C 
ATOM     44  G   UNL     1      -2.627  11.262   1.045  1.00  0.00     0.000 G0
ENDBRANCH  41  42
ENDBRANCH  39  41
ENDBRANCH  35  39
ENDBRANCH  33  35
ENDBRANCH  23  31
ENDBRANCH  21  23
ENDBRANCH  19  21
ENDBRANCH  14  19
ENDBRANCH   7  14
ENDBRANCH   2   5
BRANCH   3  45
ATOM     45  C   UNL     1       0.395   8.895   1.457  1.00  0.00     0.171 C 
BRANCH  45  46
ATOM     46  N   UNL     1      -0.916   9.472   1.192  1.00  0.00    -0.342 N 
ATOM     47  C   UNL     1      -1.143  10.825   1.212  1.00  0.00     0.247 C 
ATOM     48  O   UNL     1      -0.246  11.651   1.383  1.00  0.00    -0.273 OA
ATOM     49  H   UNL     1      -1.677   8.825   0.990  1.00  0.00     0.164 HD
BRANCH  47  50
ATOM     50  C   UNL     1      -2.611  11.240   1.033  1.00  0.00     0.212 CG0
ATOM     51  G   UNL     1      -3.025  12.041   2.283  1.00  0.00     0.000 G0
BRANCH  50  52
ATOM     52  N   UNL     1      -2.645  12.030  -0.195  1.00  0.00    -0.339 N 
ATOM     53  C   UNL     1      -3.157  11.561  -1.381  1.00  0.00     0.243 C 
ATOM     54  O   UNL     1      -3.580  10.415  -1.512  1.00  0.00    -0.273 OA
ATOM     55  H   UNL     1      -2.207  12.949  -0.179  1.00  0.00     0.164 HD
BRANCH  53  56
ATOM     56  C   UNL     1      -3.006  12.541  -2.561  1.00  0.00     0.182 C 
BRANCH  56  57
ATOM     57  N   UNL     1      -2.609  11.836  -3.784  1.00  0.00    -0.344 N 
ATOM     58  C   UNL     1      -3.123  12.154  -5.017  1.00  0.00     0.220 C 
ATOM     59  O   UNL     1      -4.001  12.996  -5.173  1.00  0.00    -0.275 OA
ATOM     60  H   UNL     1      -1.814  11.205  -3.714  1.00  0.00     0.164 HD
BRANCH  58  61
ATOM     61  C   UNL     1      -2.526  11.335  -6.147  1.00  0.00     0.100 C 
BRANCH  61  62
ATOM     62  C   UNL     1      -2.907   9.855  -6.103  1.00  0.00     0.010 C 
BRANCH  62  63
ATOM     63  C   UNL     1      -1.786   8.906  -6.547  1.00  0.00     0.000 C 
BRANCH  63  64
ATOM     64  C   UNL     1      -0.542   8.948  -5.661  1.00  0.00    -0.003 C 
ATOM     65  C   UNL     1      -0.866   8.546  -4.229  1.00  0.00     0.004 C 
ENDBRANCH  63  64
ENDBRANCH  62  63
ENDBRANCH  61  62
ENDBRANCH  58  61
ENDBRANCH  56  57
BRANCH  56  66
ATOM     66  C   UNL     1      -2.053  13.686  -2.220  1.00  0.00     0.157 C 
BRANCH  66  67
ATOM     67  C   UNL     1      -0.653  13.379  -2.668  1.00  0.00     0.305 C 
ATOM     68  O   UNL     1      -0.108  13.772  -3.688  1.00  0.00    -0.252 OA
BRANCH  67  69
ATOM     69  O   UNL     1       0.018  12.628  -1.774  1.00  0.00    -0.481 OA
ATOM     70  H   UNL     1       0.892  12.468  -2.188  1.00  0.00     0.296 HD
ENDBRANCH  67  69
ENDBRANCH  66  67
ENDBRANCH  56  66
ENDBRANCH  53  56
ENDBRANCH  50  52
ENDBRANCH  47  50
ENDBRANCH  45  46
BRANCH  45  71
ATOM     71  C   UNL     1       0.856   7.986   0.312  1.00  0.00     0.037 C 
BRANCH  71  72
ATOM     72  C   UNL     1      -0.177   7.913  -0.815  1.00  0.00     0.026 C 
BRANCH  72  73
ATOM     73  C   UNL     1      -1.125   6.730  -0.630  1.00  0.00     0.146 C 
BRANCH  73  74
ATOM     74  N   UNL     1      -2.483   7.256  -0.538  1.00  0.00    -0.254 NA
ATOM     75  C   UNL     1      -3.319   6.921  -1.450  1.00  0.00     0.185 C 
ATOM     76  N   UNL     1      -4.577   7.388  -1.391  1.00  0.00    -0.370 N 
ATOM     77  N   UNL     1      -3.129   6.130  -2.521  1.00  0.00    -0.370 N 
ATOM     78  H   UNL     1      -4.802   7.999  -0.619  1.00  0.00     0.159 HD
ATOM     79  H   UNL     1      -5.240   7.289  -2.140  1.00  0.00     0.159 HD
ATOM     80  H   UNL     1      -2.231   5.704  -2.692  1.00  0.00     0.159 HD
ATOM     81  H   UNL     1      -3.895   5.844  -3.109  1.00  0.00     0.159 HD
ENDBRANCH  73  74
ENDBRANCH  72  73
ENDBRANCH  71  72
ENDBRANCH  45  71
ENDBRANCH   3  45
TORSDOF 20
ENDMDL
MODEL 39
REMARK VINA RESULT:    -4.457      8.671     12.582
REMARK INTER + INTRA:         -19.439
REMARK INTER:                 -13.806
REMARK INTRA:                  -5.633
REMARK UNBOUND:                -6.644
REMARK SMILES CCCCCC(=O)N[C@H](CC(=O)O)C(=O)N[C@H]1C(=O)N[C@H](CCCN=C(N)N)C(=O)N[C@@H]2CC[C@H](O)N(C2=O)[C@@H](CC(C)C)C(=O)N(C)[C@@H](Cc2ccccc2)C(=O)N[C@H](C(C)C)C(=O)O[C@@H]1C
REMARK SMILES IDX 30 1 31 2 29 3 32 5 35 6 37 7 34 8 38 9 33 10 39 11 36 12
REMARK SMILES IDX 40 14 41 15 42 16 43 17 44 18 45 19 46 20 47 21 48 22 49 23
REMARK SMILES IDX 50 24 51 25 52 26 56 27 53 28 55 29 54 30 57 31 58 32 59 33
REMARK SMILES IDX 60 35 61 36 62 37 63 38 64 39 65 40 66 41 67 42 68 43 21 45
REMARK SMILES IDX 20 46 18 47 19 48 17 50 16 52 14 53 15 54 9 56 8 57 6 58
REMARK SMILES IDX 7 59 5 61 4 62 3 63 2 64 1 65 10 66 11 67 12 68 13 69 22 71
REMARK SMILES IDX 23 72 24 73 25 74 26 75 27 76 28 77
REMARK H PARENT 31 4 36 13 59 34 20 49 16 55 8 60 13 70 27 78 27 79 28 80
REMARK H PARENT 28 81
REMARK Flexibility Score:  259.900
ROOT
ATOM      1  O   UNL     1     -10.403   5.068  -2.718  1.00  0.00    -0.273 OA
ATOM      2  N   UNL     1      -8.212   5.346  -2.125  1.00  0.00    -0.343 N 
ATOM      3  C   UNL     1      -9.563   5.326  -1.855  1.00  0.00     0.243 C 
ATOM      4  H   UNL     1      -7.549   5.549  -1.387  1.00  0.00     0.164 HD
ENDROOT
BRANCH   2   5
ATOM      5  C   UNL     1      -7.724   5.176  -3.489  1.00  0.00     0.171 C 
ATOM      6  C   UNL     1      -5.190   4.275  -4.572  1.00  0.00     0.214 C 
ATOM      7  N   UNL     1      -5.397   5.683  -4.326  1.00  0.00    -0.303 N 
ATOM      8  C   UNL     1      -6.470   3.530  -4.918  1.00  0.00     0.057 C 
ATOM      9  C   UNL     1      -6.563   6.175  -3.763  1.00  0.00     0.247 C 
ATOM     10  C   UNL     1      -7.480   3.701  -3.804  1.00  0.00     0.040 C 
ATOM     11  O   UNL     1      -6.699   7.372  -3.475  1.00  0.00    -0.272 OA
BRANCH   6  12
ATOM     12  O   UNL     1      -4.594   3.720  -3.423  1.00  0.00    -0.373 OA
ATOM     13  H   UNL     1      -3.899   4.347  -3.128  1.00  0.00     0.213 HD
ENDBRANCH   6  12
BRANCH   7  14
ATOM     14  C   UNL     1      -4.247   6.581  -4.563  1.00  0.00     0.177 C 
BRANCH  14  15
ATOM     15  C   UNL     1      -4.398   7.537  -5.762  1.00  0.00     0.038 C 
BRANCH  15  16
ATOM     16  C   UNL     1      -3.569   7.289  -7.042  1.00  0.00    -0.015 C 
ATOM     17  C   UNL     1      -2.783   8.529  -7.478  1.00  0.00     0.007 C 
ATOM     18  C   UNL     1      -4.500   6.882  -8.191  1.00  0.00     0.007 C 
ENDBRANCH  15  16
ENDBRANCH  14  15
BRANCH  14  19
ATOM     19  C   UNL     1      -3.541   6.930  -3.208  1.00  0.00     0.245 C 
ATOM     20  O   UNL     1      -3.743   6.157  -2.256  1.00  0.00    -0.272 OA
BRANCH  19  21
ATOM     21  N   UNL     1      -2.814   8.087  -2.992  1.00  0.00    -0.332 N 
ATOM     22  C   UNL     1      -1.656   8.510  -3.759  1.00  0.00     0.147 C 
BRANCH  21  23
ATOM     23  C   UNL     1      -3.238   8.978  -1.877  1.00  0.00     0.178 C 
BRANCH  23  24
ATOM     24  C   UNL     1      -2.080   9.647  -1.109  1.00  0.00     0.070 C 
BRANCH  24  25
ATOM     25  C   UNL     1      -1.473   8.869   0.036  1.00  0.00    -0.045 A 
ATOM     26  C   UNL     1      -0.542   7.850  -0.203  1.00  0.00     0.004 A 
ATOM     27  C   UNL     1      -1.841   9.155   1.359  1.00  0.00     0.004 A 
ATOM     28  C   UNL     1       0.001   7.125   0.859  1.00  0.00     0.000 A 
ATOM     29  C   UNL     1      -1.296   8.430   2.420  1.00  0.00     0.000 A 
ATOM     30  C   UNL     1      -0.377   7.413   2.169  1.00  0.00     0.000 A 
ENDBRANCH  24  25
ENDBRANCH  23  24
BRANCH  23  31
ATOM     31  C   UNL     1      -4.394   9.928  -2.270  1.00  0.00     0.243 C 
ATOM     32  O   UNL     1      -4.492  10.476  -3.365  1.00  0.00    -0.273 OA
ATOM     33  N   UNL     1      -5.222  10.260  -1.210  1.00  0.00    -0.341 N 
ATOM     34  H   UNL     1      -5.088   9.774  -0.320  1.00  0.00     0.164 HD
BRANCH  33  35
ATOM     35  C   UNL     1      -6.309  11.236  -1.321  1.00  0.00     0.194 C 
BRANCH  35  36
ATOM     36  C   UNL     1      -6.347  12.278  -0.168  1.00  0.00     0.017 C 
ATOM     37  C   UNL     1      -5.907  13.669  -0.657  1.00  0.00     0.010 C 
ATOM     38  C   UNL     1      -5.448  11.902   1.016  1.00  0.00     0.010 C 
ENDBRANCH  35  36
BRANCH  35  39
ATOM     39  C   UNL     1      -7.694  10.565  -1.542  1.00  0.00     0.329 C 
ATOM     40  O   UNL     1      -7.905   9.682  -2.366  1.00  0.00    -0.250 OA
BRANCH  39  41
ATOM     41  O   UNL     1      -8.634  11.008  -0.654  1.00  0.00    -0.458 OA
BRANCH  41  42
ATOM     42  C   UNL     1      -9.682  10.071  -0.308  1.00  0.00     0.205 CG0
ATOM     43  C   UNL     1     -10.911  10.888   0.085  1.00  0.00     0.056 C 
ATOM     44  G   UNL     1      -9.179   9.173   0.840  1.00  0.00     0.000 G0
ENDBRANCH  41  42
ENDBRANCH  39  41
ENDBRANCH  35  39
ENDBRANCH  33  35
ENDBRANCH  23  31
ENDBRANCH  21  23
ENDBRANCH  19  21
ENDBRANCH  14  19
ENDBRANCH   7  14
ENDBRANCH   2   5
BRANCH   3  45
ATOM     45  C   UNL     1      -9.947   5.627  -0.400  1.00  0.00     0.171 C 
BRANCH  45  46
ATOM     46  N   UNL     1      -9.337   6.913  -0.089  1.00  0.00    -0.342 N 
ATOM     47  C   UNL     1      -9.927   7.824   0.750  1.00  0.00     0.247 C 
ATOM     48  O   UNL     1     -10.974   7.594   1.356  1.00  0.00    -0.273 OA
ATOM     49  H   UNL     1      -8.441   7.121  -0.527  1.00  0.00     0.164 HD
BRANCH  47  50
ATOM     50  C   UNL     1      -9.201   9.172   0.860  1.00  0.00     0.212 CG0
ATOM     51  G   UNL     1      -9.681  10.058  -0.307  1.00  0.00     0.000 G0
BRANCH  50  52
ATOM     52  N   UNL     1      -9.560   9.702   2.172  1.00  0.00    -0.339 N 
ATOM     53  C   UNL     1      -8.658   9.859   3.196  1.00  0.00     0.243 C 
ATOM     54  O   UNL     1      -7.483   9.514   3.103  1.00  0.00    -0.273 OA
ATOM     55  H   UNL     1     -10.542   9.903   2.349  1.00  0.00     0.164 HD
BRANCH  53  56
ATOM     56  C   UNL     1      -9.286  10.355   4.515  1.00  0.00     0.182 C 
BRANCH  56  57
ATOM     57  N   UNL     1      -9.201   9.327   5.557  1.00  0.00    -0.344 N 
ATOM     58  C   UNL     1      -8.161   9.271   6.453  1.00  0.00     0.220 C 
ATOM     59  O   UNL     1      -7.198  10.028   6.400  1.00  0.00    -0.275 OA
ATOM     60  H   UNL     1     -10.023   8.747   5.700  1.00  0.00     0.164 HD
BRANCH  58  61
ATOM     61  C   UNL     1      -8.310   8.162   7.479  1.00  0.00     0.100 C 
BRANCH  61  62
ATOM     62  C   UNL     1      -7.214   7.099   7.399  1.00  0.00     0.010 C 
BRANCH  62  63
ATOM     63  C   UNL     1      -7.711   5.667   7.637  1.00  0.00     0.000 C 
BRANCH  63  64
ATOM     64  C   UNL     1      -6.625   4.599   7.521  1.00  0.00    -0.003 C 
ATOM     65  C   UNL     1      -5.542   5.014   6.535  1.00  0.00     0.004 C 
ENDBRANCH  63  64
ENDBRANCH  62  63
ENDBRANCH  61  62
ENDBRANCH  58  61
ENDBRANCH  56  57
BRANCH  56  66
ATOM     66  C   UNL     1     -10.717  10.846   4.304  1.00  0.00     0.157 C 
BRANCH  66  67
ATOM     67  C   UNL     1     -11.715   9.844   4.810  1.00  0.00     0.305 C 
ATOM     68  O   UNL     1     -12.344   9.900   5.856  1.00  0.00    -0.252 OA
BRANCH  67  69
ATOM     69  O   UNL     1     -11.914   8.835   3.940  1.00  0.00    -0.481 OA
ATOM     70  H   UNL     1     -12.549   8.239   4.390  1.00  0.00     0.296 HD
ENDBRANCH  67  69
ENDBRANCH  66  67
ENDBRANCH  56  66
ENDBRANCH  53  56
ENDBRANCH  50  52
ENDBRANCH  47  50
ENDBRANCH  45  46
BRANCH  45  71
ATOM     71  C   UNL     1      -9.435   4.519   0.527  1.00  0.00     0.037 C 
BRANCH  71  72
ATOM     72  C   UNL     1      -7.961   4.710   0.892  1.00  0.00     0.026 C 
BRANCH  72  73
ATOM     73  C   UNL     1      -7.237   3.371   1.021  1.00  0.00     0.146 C 
BRANCH  73  74
ATOM     74  N   UNL     1      -7.854   2.438   0.083  1.00  0.00    -0.254 NA
ATOM     75  C   UNL     1      -7.096   1.859  -0.772  1.00  0.00     0.185 C 
ATOM     76  N   UNL     1      -7.634   0.994  -1.647  1.00  0.00    -0.370 N 
ATOM     77  N   UNL     1      -5.768   1.984  -0.946  1.00  0.00    -0.370 N 
ATOM     78  H   UNL     1      -8.632   0.847  -1.590  1.00  0.00     0.159 HD
ATOM     79  H   UNL     1      -7.133   0.616  -2.432  1.00  0.00     0.159 HD
ATOM     80  H   UNL     1      -5.229   2.599  -0.355  1.00  0.00     0.159 HD
ATOM     81  H   UNL     1      -5.260   1.388  -1.578  1.00  0.00     0.159 HD
ENDBRANCH  73  74
ENDBRANCH  72  73
ENDBRANCH  71  72
ENDBRANCH  45  71
ENDBRANCH   3  45
TORSDOF 20
ENDMDL
MODEL 40
REMARK VINA RESULT:    -4.415     11.280     15.349
REMARK INTER + INTRA:         -19.319
REMARK INTER:                 -14.472
REMARK INTRA:                  -4.847
REMARK UNBOUND:                -6.644
REMARK SMILES CCCCCC(=O)N[C@H](CC(=O)O)C(=O)N[C@H]1C(=O)N[C@H](CCCN=C(N)N)C(=O)N[C@@H]2CC[C@H](O)N(C2=O)[C@@H](CC(C)C)C(=O)N(C)[C@@H](Cc2ccccc2)C(=O)N[C@H](C(C)C)C(=O)O[C@@H]1C
REMARK SMILES IDX 30 1 31 2 29 3 32 5 35 6 37 7 34 8 38 9 33 10 39 11 36 12
REMARK SMILES IDX 40 14 41 15 42 16 43 17 44 18 45 19 46 20 47 21 48 22 49 23
REMARK SMILES IDX 50 24 51 25 52 26 56 27 53 28 55 29 54 30 57 31 58 32 59 33
REMARK SMILES IDX 60 35 61 36 62 37 63 38 64 39 65 40 66 41 67 42 68 43 21 45
REMARK SMILES IDX 20 46 18 47 19 48 17 50 16 52 14 53 15 54 9 56 8 57 6 58
REMARK SMILES IDX 7 59 5 61 4 62 3 63 2 64 1 65 10 66 11 67 12 68 13 69 22 71
REMARK SMILES IDX 23 72 24 73 25 74 26 75 27 76 28 77
REMARK H PARENT 31 4 36 13 59 34 20 49 16 55 8 60 13 70 27 78 27 79 28 80
REMARK H PARENT 28 81
REMARK Flexibility Score:  259.900
ROOT
ATOM      1  O   UNL     1      -6.391   4.776  -8.954  1.00  0.00    -0.273 OA
ATOM      2  N   UNL     1      -5.648   6.330  -7.449  1.00  0.00    -0.343 N 
ATOM      3  C   UNL     1      -6.374   5.213  -7.803  1.00  0.00     0.243 C 
ATOM      4  H   UNL     1      -5.645   6.652  -6.489  1.00  0.00     0.164 HD
ENDROOT
BRANCH   2   5
ATOM      5  C   UNL     1      -4.956   7.117  -8.463  1.00  0.00     0.171 C 
ATOM      6  C   UNL     1      -2.579   8.776  -8.379  1.00  0.00     0.214 C 
ATOM      7  N   UNL     1      -3.871   9.372  -8.131  1.00  0.00    -0.303 N 
ATOM      8  C   UNL     1      -2.638   7.583  -9.321  1.00  0.00     0.057 C 
ATOM      9  C   UNL     1      -5.040   8.629  -8.106  1.00  0.00     0.247 C 
ATOM     10  C   UNL     1      -3.575   6.535  -8.762  1.00  0.00     0.040 C 
ATOM     11  O   UNL     1      -6.131   9.132  -7.807  1.00  0.00    -0.272 OA
BRANCH   6  12
ATOM     12  O   UNL     1      -2.034   8.395  -7.137  1.00  0.00    -0.373 OA
ATOM     13  H   UNL     1      -1.106   8.712  -7.121  1.00  0.00     0.213 HD
ENDBRANCH   6  12
BRANCH   7  14
ATOM     14  C   UNL     1      -3.888  10.802  -7.754  1.00  0.00     0.177 C 
BRANCH  14  15
ATOM     15  C   UNL     1      -4.697  11.718  -8.692  1.00  0.00     0.038 C 
BRANCH  15  16
ATOM     16  C   UNL     1      -3.953  12.701  -9.623  1.00  0.00    -0.015 C 
ATOM     17  C   UNL     1      -2.892  12.005 -10.481  1.00  0.00     0.007 C 
ATOM     18  C   UNL     1      -3.259  13.784  -8.786  1.00  0.00     0.007 C 
ENDBRANCH  15  16
ENDBRANCH  14  15
BRANCH  14  19
ATOM     19  C   UNL     1      -3.793  10.954  -6.197  1.00  0.00     0.245 C 
ATOM     20  O   UNL     1      -4.679  10.399  -5.526  1.00  0.00    -0.272 OA
BRANCH  19  21
ATOM     21  N   UNL     1      -2.861  11.751  -5.555  1.00  0.00    -0.332 N 
ATOM     22  C   UNL     1      -3.109  13.081  -5.029  1.00  0.00     0.147 C 
BRANCH  21  23
ATOM     23  C   UNL     1      -1.482  11.214  -5.393  1.00  0.00     0.178 C 
BRANCH  23  24
ATOM     24  C   UNL     1      -0.380  12.288  -5.285  1.00  0.00     0.070 C 
BRANCH  24  25
ATOM     25  C   UNL     1       0.174  12.838  -6.579  1.00  0.00    -0.045 A 
ATOM     26  C   UNL     1       0.967  13.993  -6.587  1.00  0.00     0.004 A 
ATOM     27  C   UNL     1      -0.104  12.198  -7.796  1.00  0.00     0.004 A 
ATOM     28  C   UNL     1       1.461  14.505  -7.789  1.00  0.00     0.000 A 
ATOM     29  C   UNL     1       0.391  12.710  -8.997  1.00  0.00     0.000 A 
ATOM     30  C   UNL     1       1.171  13.865  -8.992  1.00  0.00     0.000 A 
ENDBRANCH  24  25
ENDBRANCH  23  24
BRANCH  23  31
ATOM     31  C   UNL     1      -1.393  10.083  -4.341  1.00  0.00     0.243 C 
ATOM     32  O   UNL     1      -0.551   9.189  -4.363  1.00  0.00    -0.273 OA
ATOM     33  N   UNL     1      -2.467  10.056  -3.467  1.00  0.00    -0.341 N 
ATOM     34  H   UNL     1      -3.140  10.825  -3.500  1.00  0.00     0.164 HD
BRANCH  33  35
ATOM     35  C   UNL     1      -2.654   9.003  -2.465  1.00  0.00     0.194 C 
BRANCH  35  36
ATOM     36  C   UNL     1      -1.463   8.846  -1.478  1.00  0.00     0.017 C 
ATOM     37  C   UNL     1      -1.797   7.851  -0.353  1.00  0.00     0.010 C 
ATOM     38  C   UNL     1      -1.050  10.166  -0.815  1.00  0.00     0.010 C 
ENDBRANCH  35  36
BRANCH  35  39
ATOM     39  C   UNL     1      -3.068   7.644  -3.096  1.00  0.00     0.329 C 
ATOM     40  O   UNL     1      -2.358   6.997  -3.858  1.00  0.00    -0.250 OA
BRANCH  39  41
ATOM     41  O   UNL     1      -4.279   7.205  -2.638  1.00  0.00    -0.458 OA
BRANCH  41  42
ATOM     42  C   UNL     1      -5.272   6.897  -3.646  1.00  0.00     0.205 CG0
ATOM     43  C   UNL     1      -6.091   8.165  -3.878  1.00  0.00     0.056 C 
ATOM     44  G   UNL     1      -6.134   5.722  -3.144  1.00  0.00     0.000 G0
ENDBRANCH  41  42
ENDBRANCH  39  41
ENDBRANCH  35  39
ENDBRANCH  33  35
ENDBRANCH  23  31
ENDBRANCH  21  23
ENDBRANCH  19  21
ENDBRANCH  14  19
ENDBRANCH   7  14
ENDBRANCH   2   5
BRANCH   3  45
ATOM     45  C   UNL     1      -7.143   4.540  -6.658  1.00  0.00     0.171 C 
BRANCH  45  46
ATOM     46  N   UNL     1      -6.424   4.892  -5.440  1.00  0.00    -0.342 N 
ATOM     47  C   UNL     1      -7.068   5.267  -4.288  1.00  0.00     0.247 C 
ATOM     48  O   UNL     1      -8.295   5.263  -4.176  1.00  0.00    -0.273 OA
ATOM     49  H   UNL     1      -5.407   4.854  -5.472  1.00  0.00     0.164 HD
BRANCH  47  50
ATOM     50  C   UNL     1      -6.147   5.722  -3.147  1.00  0.00     0.212 CG0
ATOM     51  G   UNL     1      -5.277   6.878  -3.681  1.00  0.00     0.000 G0
BRANCH  50  52
ATOM     52  N   UNL     1      -7.039   6.124  -2.063  1.00  0.00    -0.339 N 
ATOM     53  C   UNL     1      -7.177   5.415  -0.895  1.00  0.00     0.243 C 
ATOM     54  O   UNL     1      -6.596   4.351  -0.694  1.00  0.00    -0.273 OA
ATOM     55  H   UNL     1      -7.631   6.938  -2.216  1.00  0.00     0.164 HD
BRANCH  53  56
ATOM     56  C   UNL     1      -8.240   5.986   0.065  1.00  0.00     0.182 C 
BRANCH  56  57
ATOM     57  N   UNL     1      -9.568   5.439  -0.235  1.00  0.00    -0.344 N 
ATOM     58  C   UNL     1     -10.062   4.322   0.392  1.00  0.00     0.220 C 
ATOM     59  O   UNL     1      -9.404   3.663   1.190  1.00  0.00    -0.275 OA
ATOM     60  H   UNL     1     -10.181   6.010  -0.811  1.00  0.00     0.164 HD
BRANCH  58  61
ATOM     61  C   UNL     1     -11.477   3.971  -0.031  1.00  0.00     0.100 C 
BRANCH  61  62
ATOM     62  C   UNL     1     -11.657   3.858  -1.544  1.00  0.00     0.010 C 
BRANCH  62  63
ATOM     63  C   UNL     1     -10.939   2.658  -2.174  1.00  0.00     0.000 C 
BRANCH  63  64
ATOM     64  C   UNL     1     -11.792   1.863  -3.161  1.00  0.00    -0.003 C 
ATOM     65  C   UNL     1     -11.235   0.463  -3.375  1.00  0.00     0.004 C 
ENDBRANCH  63  64
ENDBRANCH  62  63
ENDBRANCH  61  62
ENDBRANCH  58  61
ENDBRANCH  56  57
BRANCH  56  66
ATOM     66  C   UNL     1      -8.232   7.513   0.064  1.00  0.00     0.157 C 
BRANCH  66  67
ATOM     67  C   UNL     1      -9.100   8.062   1.160  1.00  0.00     0.305 C 
ATOM     68  O   UNL     1     -10.164   7.605   1.550  1.00  0.00    -0.252 OA
BRANCH  67  69
ATOM     69  O   UNL     1      -8.556   9.142   1.751  1.00  0.00    -0.481 OA
ATOM     70  H   UNL     1      -7.846   8.783   2.324  1.00  0.00     0.296 HD
ENDBRANCH  67  69
ENDBRANCH  66  67
ENDBRANCH  56  66
ENDBRANCH  53  56
ENDBRANCH  50  52
ENDBRANCH  47  50
ENDBRANCH  45  46
BRANCH  45  71
ATOM     71  C   UNL     1      -7.191   3.022  -6.867  1.00  0.00     0.037 C 
BRANCH  71  72
ATOM     72  C   UNL     1      -7.865   2.301  -5.698  1.00  0.00     0.026 C 
BRANCH  72  73
ATOM     73  C   UNL     1      -6.907   1.330  -5.011  1.00  0.00     0.146 C 
BRANCH  73  74
ATOM     74  N   UNL     1      -7.552   0.852  -3.792  1.00  0.00    -0.254 NA
ATOM     75  C   UNL     1      -7.134   1.313  -2.672  1.00  0.00     0.185 C 
ATOM     76  N   UNL     1      -7.709   0.892  -1.533  1.00  0.00    -0.370 N 
ATOM     77  N   UNL     1      -6.154   2.202  -2.437  1.00  0.00    -0.370 N 
ATOM     78  H   UNL     1      -8.452   0.214  -1.620  1.00  0.00     0.159 HD
ATOM     79  H   UNL     1      -7.343   1.096  -0.620  1.00  0.00     0.159 HD
ATOM     80  H   UNL     1      -5.635   2.608  -3.201  1.00  0.00     0.159 HD
ATOM     81  H   UNL     1      -5.990   2.578  -1.518  1.00  0.00     0.159 HD
ENDBRANCH  73  74
ENDBRANCH  72  73
ENDBRANCH  71  72
ENDBRANCH  45  71
ENDBRANCH   3  45
TORSDOF 20
ENDMDL
MODEL 41
REMARK VINA RESULT:    -4.409      4.864      8.700
REMARK INTER + INTRA:         -19.301
REMARK INTER:                 -14.698
REMARK INTRA:                  -4.603
REMARK UNBOUND:                -6.644
REMARK SMILES CCCCCC(=O)N[C@H](CC(=O)O)C(=O)N[C@H]1C(=O)N[C@H](CCCN=C(N)N)C(=O)N[C@@H]2CC[C@H](O)N(C2=O)[C@@H](CC(C)C)C(=O)N(C)[C@@H](Cc2ccccc2)C(=O)N[C@H](C(C)C)C(=O)O[C@@H]1C
REMARK SMILES IDX 30 1 31 2 29 3 32 5 35 6 37 7 34 8 38 9 33 10 39 11 36 12
REMARK SMILES IDX 40 14 41 15 42 16 43 17 44 18 45 19 46 20 47 21 48 22 49 23
REMARK SMILES IDX 50 24 51 25 52 26 56 27 53 28 55 29 54 30 57 31 58 32 59 33
REMARK SMILES IDX 60 35 61 36 62 37 63 38 64 39 65 40 66 41 67 42 68 43 21 45
REMARK SMILES IDX 20 46 18 47 19 48 17 50 16 52 14 53 15 54 9 56 8 57 6 58
REMARK SMILES IDX 7 59 5 61 4 62 3 63 2 64 1 65 10 66 11 67 12 68 13 69 22 71
REMARK SMILES IDX 23 72 24 73 25 74 26 75 27 76 28 77
REMARK H PARENT 31 4 36 13 59 34 20 49 16 55 8 60 13 70 27 78 27 79 28 80
REMARK H PARENT 28 81
REMARK Flexibility Score:  259.900
ROOT
ATOM      1  O   UNL     1      -0.012  10.062  13.912  1.00  0.00    -0.273 OA
ATOM      2  N   UNL     1       1.678  10.314  15.433  1.00  0.00    -0.343 N 
ATOM      3  C   UNL     1       0.396  10.532  14.975  1.00  0.00     0.243 C 
ATOM      4  H   UNL     1       1.974  10.704  16.319  1.00  0.00     0.164 HD
ENDROOT
BRANCH   2   5
ATOM      5  C   UNL     1       2.651   9.608  14.607  1.00  0.00     0.171 C 
ATOM      6  C   UNL     1       5.550   9.561  14.595  1.00  0.00     0.214 C 
ATOM      7  N   UNL     1       4.852  10.519  13.770  1.00  0.00    -0.303 N 
ATOM      8  C   UNL     1       4.772   8.272  14.810  1.00  0.00     0.057 C 
ATOM      9  C   UNL     1       3.471  10.629  13.767  1.00  0.00     0.247 C 
ATOM     10  C   UNL     1       3.428   8.582  15.432  1.00  0.00     0.040 C 
ATOM     11  O   UNL     1       2.884  11.510  13.124  1.00  0.00    -0.272 OA
BRANCH   6  12
ATOM     12  O   UNL     1       5.830  10.179  15.829  1.00  0.00    -0.373 OA
ATOM     13  H   UNL     1       5.023  10.667  16.096  1.00  0.00     0.213 HD
ENDBRANCH   6  12
BRANCH   7  14
ATOM     14  C   UNL     1       5.679  11.493  13.026  1.00  0.00     0.177 C 
BRANCH  14  15
ATOM     15  C   UNL     1       5.892  12.846  13.731  1.00  0.00     0.038 C 
BRANCH  15  16
ATOM     16  C   UNL     1       5.141  14.096  13.221  1.00  0.00    -0.015 C 
ATOM     17  C   UNL     1       6.087  15.258  12.906  1.00  0.00     0.007 C 
ATOM     18  C   UNL     1       4.137  14.567  14.281  1.00  0.00     0.007 C 
ENDBRANCH  15  16
ENDBRANCH  14  15
BRANCH  14  19
ATOM     19  C   UNL     1       6.748  10.745  12.157  1.00  0.00     0.245 C 
ATOM     20  O   UNL     1       7.783  10.377  12.737  1.00  0.00    -0.272 OA
BRANCH  19  21
ATOM     21  N   UNL     1       6.648  10.580  10.786  1.00  0.00    -0.332 N 
ATOM     22  C   UNL     1       6.192  11.589   9.847  1.00  0.00     0.147 C 
BRANCH  21  23
ATOM     23  C   UNL     1       7.027   9.258  10.216  1.00  0.00     0.178 C 
BRANCH  23  24
ATOM     24  C   UNL     1       5.928   8.581   9.371  1.00  0.00     0.070 C 
BRANCH  24  25
ATOM     25  C   UNL     1       4.535   8.544   9.955  1.00  0.00    -0.045 A 
ATOM     26  C   UNL     1       3.489   9.263   9.362  1.00  0.00     0.004 A 
ATOM     27  C   UNL     1       4.271   7.789  11.107  1.00  0.00     0.004 A 
ATOM     28  C   UNL     1       2.209   9.238   9.918  1.00  0.00     0.000 A 
ATOM     29  C   UNL     1       2.990   7.764  11.661  1.00  0.00     0.000 A 
ATOM     30  C   UNL     1       1.960   8.491  11.067  1.00  0.00     0.000 A 
ENDBRANCH  24  25
ENDBRANCH  23  24
BRANCH  23  31
ATOM     31  C   UNL     1       8.435   9.258   9.574  1.00  0.00     0.243 C 
ATOM     32  O   UNL     1       9.302  10.093   9.820  1.00  0.00    -0.273 OA
ATOM     33  N   UNL     1       8.576   8.338   8.550  1.00  0.00    -0.341 N 
ATOM     34  H   UNL     1       7.817   7.671   8.388  1.00  0.00     0.164 HD
BRANCH  33  35
ATOM     35  C   UNL     1       9.782   8.242   7.722  1.00  0.00     0.194 C 
BRANCH  35  36
ATOM     36  C   UNL     1       9.498   8.064   6.204  1.00  0.00     0.017 C 
ATOM     37  C   UNL     1      10.114   9.208   5.381  1.00  0.00     0.010 C 
ATOM     38  C   UNL     1       8.001   8.013   5.871  1.00  0.00     0.010 C 
ENDBRANCH  35  36
BRANCH  35  39
ATOM     39  C   UNL     1      10.789   7.183   8.252  1.00  0.00     0.329 C 
ATOM     40  O   UNL     1      10.494   6.289   9.037  1.00  0.00    -0.250 OA
BRANCH  39  41
ATOM     41  O   UNL     1      12.023   7.306   7.678  1.00  0.00    -0.458 OA
BRANCH  41  42
ATOM     42  C   UNL     1      12.623   6.086   7.179  1.00  0.00     0.205 CG0
ATOM     43  C   UNL     1      13.955   5.906   7.906  1.00  0.00     0.056 C 
ATOM     44  G   UNL     1      12.797   6.212   5.653  1.00  0.00     0.000 G0
ENDBRANCH  41  42
ENDBRANCH  39  41
ENDBRANCH  35  39
ENDBRANCH  33  35
ENDBRANCH  23  31
ENDBRANCH  21  23
ENDBRANCH  19  21
ENDBRANCH  14  19
ENDBRANCH   7  14
ENDBRANCH   2   5
BRANCH   3  45
ATOM     45  C   UNL     1      -0.494  11.381  15.892  1.00  0.00     0.171 C 
BRANCH  45  46
ATOM     46  N   UNL     1      -1.620  10.529  16.248  1.00  0.00    -0.342 N 
ATOM     47  C   UNL     1      -2.782  10.500  15.517  1.00  0.00     0.247 C 
ATOM     48  O   UNL     1      -2.929  11.134  14.472  1.00  0.00    -0.273 OA
ATOM     49  H   UNL     1      -1.519   9.944  17.076  1.00  0.00     0.164 HD
BRANCH  47  50
ATOM     50  C   UNL     1      -3.903   9.638  16.113  1.00  0.00     0.212 CG0
ATOM     51  G   UNL     1      -4.717  10.527  17.073  1.00  0.00     0.000 G0
BRANCH  50  52
ATOM     52  N   UNL     1      -4.678   9.163  14.970  1.00  0.00    -0.339 N 
ATOM     53  C   UNL     1      -5.861   8.474  15.092  1.00  0.00     0.243 C 
ATOM     54  O   UNL     1      -6.333   8.157  16.181  1.00  0.00    -0.273 OA
ATOM     55  H   UNL     1      -4.283   9.297  14.042  1.00  0.00     0.164 HD
BRANCH  53  56
ATOM     56  C   UNL     1      -6.453   8.000  13.749  1.00  0.00     0.182 C 
BRANCH  56  57
ATOM     57  N   UNL     1      -5.529   7.096  13.057  1.00  0.00    -0.344 N 
ATOM     58  C   UNL     1      -5.935   5.901  12.517  1.00  0.00     0.220 C 
ATOM     59  O   UNL     1      -7.077   5.471  12.639  1.00  0.00    -0.275 OA
ATOM     60  H   UNL     1      -4.602   7.458  12.845  1.00  0.00     0.164 HD
BRANCH  58  61
ATOM     61  C   UNL     1      -4.825   5.158  11.797  1.00  0.00     0.100 C 
BRANCH  61  62
ATOM     62  C   UNL     1      -5.193   3.726  11.407  1.00  0.00     0.010 C 
BRANCH  62  63
ATOM     63  C   UNL     1      -4.003   2.759  11.372  1.00  0.00     0.000 C 
BRANCH  63  64
ATOM     64  C   UNL     1      -4.365   1.307  11.682  1.00  0.00    -0.003 C 
ATOM     65  C   UNL     1      -3.457   0.338  10.940  1.00  0.00     0.004 C 
ENDBRANCH  63  64
ENDBRANCH  62  63
ENDBRANCH  61  62
ENDBRANCH  58  61
ENDBRANCH  56  57
BRANCH  56  66
ATOM     66  C   UNL     1      -6.870   9.180  12.874  1.00  0.00     0.157 C 
BRANCH  66  67
ATOM     67  C   UNL     1      -8.316   9.081  12.481  1.00  0.00     0.305 C 
ATOM     68  O   UNL     1      -9.064  10.005  12.201  1.00  0.00    -0.252 OA
BRANCH  67  69
ATOM     69  O   UNL     1      -8.741   7.805  12.410  1.00  0.00    -0.481 OA
ATOM     70  H   UNL     1      -8.836   7.521  13.343  1.00  0.00     0.296 HD
ENDBRANCH  67  69
ENDBRANCH  66  67
ENDBRANCH  56  66
ENDBRANCH  53  56
ENDBRANCH  50  52
ENDBRANCH  47  50
ENDBRANCH  45  46
BRANCH  45  71
ATOM     71  C   UNL     1      -0.952  12.650  15.164  1.00  0.00     0.037 C 
BRANCH  71  72
ATOM     72  C   UNL     1       0.219  13.577  14.829  1.00  0.00     0.026 C 
BRANCH  72  73
ATOM     73  C   UNL     1       0.226  13.959  13.350  1.00  0.00     0.146 C 
BRANCH  73  74
ATOM     74  N   UNL     1      -0.986  13.417  12.743  1.00  0.00    -0.254 NA
ATOM     75  C   UNL     1      -0.855  12.479  11.879  1.00  0.00     0.185 C 
ATOM     76  N   UNL     1      -1.951  11.960  11.303  1.00  0.00    -0.370 N 
ATOM     77  N   UNL     1       0.270  11.897  11.428  1.00  0.00    -0.370 N 
ATOM     78  H   UNL     1      -2.841  12.348  11.581  1.00  0.00     0.159 HD
ATOM     79  H   UNL     1      -1.921  11.331  10.520  1.00  0.00     0.159 HD
ATOM     80  H   UNL     1       1.172  12.184  11.775  1.00  0.00     0.159 HD
ATOM     81  H   UNL     1       0.242  11.087  10.830  1.00  0.00     0.159 HD
ENDBRANCH  73  74
ENDBRANCH  72  73
ENDBRANCH  71  72
ENDBRANCH  45  71
ENDBRANCH   3  45
TORSDOF 20
ENDMDL
MODEL 42
REMARK VINA RESULT:    -4.399      5.773      9.873
REMARK INTER + INTRA:         -19.273
REMARK INTER:                 -14.125
REMARK INTRA:                  -5.148
REMARK UNBOUND:                -6.644
REMARK SMILES CCCCCC(=O)N[C@H](CC(=O)O)C(=O)N[C@H]1C(=O)N[C@H](CCCN=C(N)N)C(=O)N[C@@H]2CC[C@H](O)N(C2=O)[C@@H](CC(C)C)C(=O)N(C)[C@@H](Cc2ccccc2)C(=O)N[C@H](C(C)C)C(=O)O[C@@H]1C
REMARK SMILES IDX 30 1 31 2 29 3 32 5 35 6 37 7 34 8 38 9 33 10 39 11 36 12
REMARK SMILES IDX 40 14 41 15 42 16 43 17 44 18 45 19 46 20 47 21 48 22 49 23
REMARK SMILES IDX 50 24 51 25 52 26 56 27 53 28 55 29 54 30 57 31 58 32 59 33
REMARK SMILES IDX 60 35 61 36 62 37 63 38 64 39 65 40 66 41 67 42 68 43 21 45
REMARK SMILES IDX 20 46 18 47 19 48 17 50 16 52 14 53 15 54 9 56 8 57 6 58
REMARK SMILES IDX 7 59 5 61 4 62 3 63 2 64 1 65 10 66 11 67 12 68 13 69 22 71
REMARK SMILES IDX 23 72 24 73 25 74 26 75 27 76 28 77
REMARK H PARENT 31 4 36 13 59 34 20 49 16 55 8 60 13 70 27 78 27 79 28 80
REMARK H PARENT 28 81
REMARK Flexibility Score:  259.900
ROOT
ATOM      1  O   UNL     1       0.273   6.876   1.490  1.00  0.00    -0.273 OA
ATOM      2  N   UNL     1      -0.956   7.684   3.242  1.00  0.00    -0.343 N 
ATOM      3  C   UNL     1      -0.631   7.602   1.904  1.00  0.00     0.243 C 
ATOM      4  H   UNL     1      -1.715   8.281   3.545  1.00  0.00     0.164 HD
ENDROOT
BRANCH   2   5
ATOM      5  C   UNL     1      -0.152   6.994   4.244  1.00  0.00     0.171 C 
ATOM      6  C   UNL     1      -0.659   6.260   7.003  1.00  0.00     0.214 C 
ATOM      7  N   UNL     1      -0.040   7.531   6.708  1.00  0.00    -0.303 N 
ATOM      8  C   UNL     1      -0.338   5.183   5.979  1.00  0.00     0.057 C 
ATOM      9  C   UNL     1       0.184   7.965   5.412  1.00  0.00     0.247 C 
ATOM     10  C   UNL     1      -0.765   5.641   4.602  1.00  0.00     0.040 C 
ATOM     11  O   UNL     1       0.635   9.092   5.165  1.00  0.00    -0.272 OA
BRANCH   6  12
ATOM     12  O   UNL     1      -2.050   6.466   7.080  1.00  0.00    -0.373 OA
ATOM     13  H   UNL     1      -2.413   6.322   6.180  1.00  0.00     0.213 HD
ENDBRANCH   6  12
BRANCH   7  14
ATOM     14  C   UNL     1       0.219   8.432   7.851  1.00  0.00     0.177 C 
BRANCH  14  15
ATOM     15  C   UNL     1      -1.021   8.801   8.689  1.00  0.00     0.038 C 
BRANCH  15  16
ATOM     16  C   UNL     1      -1.756  10.132   8.416  1.00  0.00    -0.015 C 
ATOM     17  C   UNL     1      -2.874   9.980   7.380  1.00  0.00     0.007 C 
ATOM     18  C   UNL     1      -0.760  11.177   7.899  1.00  0.00     0.007 C 
ENDBRANCH  15  16
ENDBRANCH  14  15
BRANCH  14  19
ATOM     19  C   UNL     1       1.659   8.189   8.421  1.00  0.00     0.245 C 
ATOM     20  O   UNL     1       2.336   7.306   7.869  1.00  0.00    -0.272 OA
BRANCH  19  21
ATOM     21  N   UNL     1       2.157   8.813   9.550  1.00  0.00    -0.332 N 
ATOM     22  C   UNL     1       2.533  10.213   9.643  1.00  0.00     0.147 C 
BRANCH  21  23
ATOM     23  C   UNL     1       2.339   7.990  10.777  1.00  0.00     0.178 C 
BRANCH  23  24
ATOM     24  C   UNL     1       3.753   7.401  10.956  1.00  0.00     0.070 C 
BRANCH  24  25
ATOM     25  C   UNL     1       4.897   8.148  10.309  1.00  0.00    -0.045 A 
ATOM     26  C   UNL     1       5.527   9.209  10.971  1.00  0.00     0.004 A 
ATOM     27  C   UNL     1       5.340   7.789   9.027  1.00  0.00     0.004 A 
ATOM     28  C   UNL     1       6.572   9.905  10.360  1.00  0.00     0.000 A 
ATOM     29  C   UNL     1       6.385   8.485   8.417  1.00  0.00     0.000 A 
ATOM     30  C   UNL     1       6.998   9.545   9.083  1.00  0.00     0.000 A 
ENDBRANCH  24  25
ENDBRANCH  23  24
BRANCH  23  31
ATOM     31  C   UNL     1       1.745   8.654  12.043  1.00  0.00     0.243 C 
ATOM     32  O   UNL     1       0.587   9.053  12.130  1.00  0.00    -0.273 OA
ATOM     33  N   UNL     1       2.690   8.930  13.017  1.00  0.00    -0.341 N 
ATOM     34  H   UNL     1       3.640   8.576  12.886  1.00  0.00     0.164 HD
BRANCH  33  35
ATOM     35  C   UNL     1       2.377   9.661  14.248  1.00  0.00     0.194 C 
BRANCH  35  36
ATOM     36  C   UNL     1       2.662  11.187  14.170  1.00  0.00     0.017 C 
ATOM     37  C   UNL     1       1.367  11.988  13.949  1.00  0.00     0.010 C 
ATOM     38  C   UNL     1       3.633  11.563  13.044  1.00  0.00     0.010 C 
ENDBRANCH  35  36
BRANCH  35  39
ATOM     39  C   UNL     1       3.019   9.014  15.508  1.00  0.00     0.329 C 
ATOM     40  O   UNL     1       2.423   8.826  16.562  1.00  0.00    -0.250 OA
BRANCH  39  41
ATOM     41  O   UNL     1       4.301   8.596  15.281  1.00  0.00    -0.458 OA
BRANCH  41  42
ATOM     42  C   UNL     1       5.266   8.898  16.318  1.00  0.00     0.205 CG0
ATOM     43  C   UNL     1       5.746  10.330  16.089  1.00  0.00     0.056 C 
ATOM     44  G   UNL     1       6.413   7.871  16.235  1.00  0.00     0.000 G0
ENDBRANCH  41  42
ENDBRANCH  39  41
ENDBRANCH  35  39
ENDBRANCH  33  35
ENDBRANCH  23  31
ENDBRANCH  21  23
ENDBRANCH  19  21
ENDBRANCH  14  19
ENDBRANCH   7  14
ENDBRANCH   2   5
BRANCH   3  45
ATOM     45  C   UNL     1      -1.488   8.463   0.966  1.00  0.00     0.171 C 
BRANCH  45  46
ATOM     46  N   UNL     1      -1.732   7.639  -0.210  1.00  0.00    -0.342 N 
ATOM     47  C   UNL     1      -2.915   7.681  -0.905  1.00  0.00     0.247 C 
ATOM     48  O   UNL     1      -3.824   8.465  -0.632  1.00  0.00    -0.273 OA
ATOM     49  H   UNL     1      -0.983   7.016  -0.506  1.00  0.00     0.164 HD
BRANCH  47  50
ATOM     50  C   UNL     1      -3.038   6.654  -2.040  1.00  0.00     0.212 CG0
ATOM     51  G   UNL     1      -1.659   5.987  -2.218  1.00  0.00     0.000 G0
BRANCH  50  52
ATOM     52  N   UNL     1      -4.078   5.723  -1.612  1.00  0.00    -0.339 N 
ATOM     53  C   UNL     1      -5.358   5.739  -2.112  1.00  0.00     0.243 C 
ATOM     54  O   UNL     1      -5.742   6.577  -2.923  1.00  0.00    -0.273 OA
ATOM     55  H   UNL     1      -3.853   5.075  -0.860  1.00  0.00     0.164 HD
BRANCH  53  56
ATOM     56  C   UNL     1      -6.304   4.718  -1.446  1.00  0.00     0.182 C 
BRANCH  56  57
ATOM     57  N   UNL     1      -6.756   3.712  -2.412  1.00  0.00    -0.344 N 
ATOM     58  C   UNL     1      -5.967   2.655  -2.798  1.00  0.00     0.220 C 
ATOM     59  O   UNL     1      -4.808   2.520  -2.421  1.00  0.00    -0.275 OA
ATOM     60  H   UNL     1      -7.739   3.730  -2.670  1.00  0.00     0.164 HD
BRANCH  58  61
ATOM     61  C   UNL     1      -6.660   1.708  -3.760  1.00  0.00     0.100 C 
BRANCH  61  62
ATOM     62  C   UNL     1      -7.311   2.408  -4.953  1.00  0.00     0.010 C 
BRANCH  62  63
ATOM     63  C   UNL     1      -8.772   2.007  -5.194  1.00  0.00     0.000 C 
BRANCH  63  64
ATOM     64  C   UNL     1      -9.768   2.667  -4.241  1.00  0.00    -0.003 C 
ATOM     65  C   UNL     1     -10.399   1.647  -3.304  1.00  0.00     0.004 C 
ENDBRANCH  63  64
ENDBRANCH  62  63
ENDBRANCH  61  62
ENDBRANCH  58  61
ENDBRANCH  56  57
BRANCH  56  66
ATOM     66  C   UNL     1      -7.472   5.411  -0.746  1.00  0.00     0.157 C 
BRANCH  66  67
ATOM     67  C   UNL     1      -8.756   5.203  -1.496  1.00  0.00     0.305 C 
ATOM     68  O   UNL     1      -9.121   5.791  -2.502  1.00  0.00    -0.252 OA
BRANCH  67  69
ATOM     69  O   UNL     1      -9.504   4.216  -0.965  1.00  0.00    -0.481 OA
ATOM     70  H   UNL     1      -8.871   3.670  -0.453  1.00  0.00     0.296 HD
ENDBRANCH  67  69
ENDBRANCH  66  67
ENDBRANCH  56  66
ENDBRANCH  53  56
ENDBRANCH  50  52
ENDBRANCH  47  50
ENDBRANCH  45  46
BRANCH  45  71
ATOM     71  C   UNL     1      -0.751   9.758   0.607  1.00  0.00     0.037 C 
BRANCH  71  72
ATOM     72  C   UNL     1      -1.555  11.003   0.989  1.00  0.00     0.026 C 
BRANCH  72  73
ATOM     73  C   UNL     1      -2.711  10.658   1.926  1.00  0.00     0.146 C 
BRANCH  73  74
ATOM     74  N   UNL     1      -2.960  11.820   2.774  1.00  0.00    -0.254 NA
ATOM     75  C   UNL     1      -2.276  11.932   3.853  1.00  0.00     0.185 C 
ATOM     76  N   UNL     1      -2.482  12.990   4.653  1.00  0.00    -0.370 N 
ATOM     77  N   UNL     1      -1.330  11.112   4.342  1.00  0.00    -0.370 N 
ATOM     78  H   UNL     1      -3.185  13.654   4.362  1.00  0.00     0.159 HD
ATOM     79  H   UNL     1      -2.094  13.070   5.576  1.00  0.00     0.159 HD
ATOM     80  H   UNL     1      -1.067  10.275   3.843  1.00  0.00     0.159 HD
ATOM     81  H   UNL     1      -0.777  11.363   5.145  1.00  0.00     0.159 HD
ENDBRANCH  73  74
ENDBRANCH  72  73
ENDBRANCH  71  72
ENDBRANCH  45  71
ENDBRANCH   3  45
TORSDOF 20
ENDMDL
MODEL 43
REMARK VINA RESULT:    -4.399      3.354     10.434
REMARK INTER + INTRA:         -19.272
REMARK INTER:                 -14.919
REMARK INTRA:                  -4.353
REMARK UNBOUND:                -6.644
REMARK SMILES CCCCCC(=O)N[C@H](CC(=O)O)C(=O)N[C@H]1C(=O)N[C@H](CCCN=C(N)N)C(=O)N[C@@H]2CC[C@H](O)N(C2=O)[C@@H](CC(C)C)C(=O)N(C)[C@@H](Cc2ccccc2)C(=O)N[C@H](C(C)C)C(=O)O[C@@H]1C
REMARK SMILES IDX 30 1 31 2 29 3 32 5 35 6 37 7 34 8 38 9 33 10 39 11 36 12
REMARK SMILES IDX 40 14 41 15 42 16 43 17 44 18 45 19 46 20 47 21 48 22 49 23
REMARK SMILES IDX 50 24 51 25 52 26 56 27 53 28 55 29 54 30 57 31 58 32 59 33
REMARK SMILES IDX 60 35 61 36 62 37 63 38 64 39 65 40 66 41 67 42 68 43 21 45
REMARK SMILES IDX 20 46 18 47 19 48 17 50 16 52 14 53 15 54 9 56 8 57 6 58
REMARK SMILES IDX 7 59 5 61 4 62 3 63 2 64 1 65 10 66 11 67 12 68 13 69 22 71
REMARK SMILES IDX 23 72 24 73 25 74 26 75 27 76 28 77
REMARK H PARENT 31 4 36 13 59 34 20 49 16 55 8 60 13 70 27 78 27 79 28 80
REMARK H PARENT 28 81
REMARK Flexibility Score:  259.900
ROOT
ATOM      1  O   UNL     1      -2.333   5.682   5.621  1.00  0.00    -0.273 OA
ATOM      2  N   UNL     1      -1.027   3.810   5.772  1.00  0.00    -0.343 N 
ATOM      3  C   UNL     1      -1.257   5.120   5.410  1.00  0.00     0.243 C 
ATOM      4  H   UNL     1      -0.125   3.386   5.596  1.00  0.00     0.164 HD
ENDROOT
BRANCH   2   5
ATOM      5  C   UNL     1      -2.102   2.991   6.319  1.00  0.00     0.171 C 
ATOM      6  C   UNL     1      -4.823   3.597   7.115  1.00  0.00     0.214 C 
ATOM      7  N   UNL     1      -3.762   3.681   8.091  1.00  0.00    -0.303 N 
ATOM      8  C   UNL     1      -4.563   2.562   6.032  1.00  0.00     0.057 C 
ATOM      9  C   UNL     1      -2.435   3.455   7.767  1.00  0.00     0.247 C 
ATOM     10  C   UNL     1      -3.260   2.872   5.329  1.00  0.00     0.040 C 
ATOM     11  O   UNL     1      -1.522   3.614   8.588  1.00  0.00    -0.272 OA
BRANCH   6  12
ATOM     12  O   UNL     1      -4.987   4.875   6.546  1.00  0.00    -0.373 OA
ATOM     13  H   UNL     1      -4.101   5.173   6.248  1.00  0.00     0.213 HD
ENDBRANCH   6  12
BRANCH   7  14
ATOM     14  C   UNL     1      -4.128   4.168   9.438  1.00  0.00     0.177 C 
BRANCH  14  15
ATOM     15  C   UNL     1      -3.616   3.307  10.609  1.00  0.00     0.038 C 
BRANCH  15  16
ATOM     16  C   UNL     1      -4.410   2.051  11.034  1.00  0.00    -0.015 C 
ATOM     17  C   UNL     1      -5.881   2.361  11.325  1.00  0.00     0.007 C 
ATOM     18  C   UNL     1      -3.786   1.447  12.298  1.00  0.00     0.007 C 
ENDBRANCH  15  16
ENDBRANCH  14  15
BRANCH  14  19
ATOM     19  C   UNL     1      -4.232   5.732   9.441  1.00  0.00     0.245 C 
ATOM     20  O   UNL     1      -3.389   6.350   8.771  1.00  0.00    -0.272 OA
BRANCH  19  21
ATOM     21  N   UNL     1      -5.124   6.444  10.224  1.00  0.00    -0.332 N 
ATOM     22  C   UNL     1      -5.533   6.088  11.571  1.00  0.00     0.147 C 
BRANCH  21  23
ATOM     23  C   UNL     1      -5.730   7.675   9.645  1.00  0.00     0.178 C 
BRANCH  23  24
ATOM     24  C   UNL     1      -7.006   8.164  10.359  1.00  0.00     0.070 C 
BRANCH  24  25
ATOM     25  C   UNL     1      -7.632   9.442   9.852  1.00  0.00    -0.045 A 
ATOM     26  C   UNL     1      -8.207   9.503   8.576  1.00  0.00     0.004 A 
ATOM     27  C   UNL     1      -7.642  10.593  10.655  1.00  0.00     0.004 A 
ATOM     28  C   UNL     1      -8.768  10.693   8.108  1.00  0.00     0.000 A 
ATOM     29  C   UNL     1      -8.204  11.781  10.186  1.00  0.00     0.000 A 
ATOM     30  C   UNL     1      -8.764  11.831   8.911  1.00  0.00     0.000 A 
ENDBRANCH  24  25
ENDBRANCH  23  24
BRANCH  23  31
ATOM     31  C   UNL     1      -4.687   8.779   9.346  1.00  0.00     0.243 C 
ATOM     32  O   UNL     1      -4.162   9.478  10.209  1.00  0.00    -0.273 OA
ATOM     33  N   UNL     1      -4.529   9.040   7.996  1.00  0.00    -0.341 N 
ATOM     34  H   UNL     1      -4.997   8.426   7.325  1.00  0.00     0.164 HD
BRANCH  33  35
ATOM     35  C   UNL     1      -3.685  10.123   7.485  1.00  0.00     0.194 C 
BRANCH  35  36
ATOM     36  C   UNL     1      -4.469  11.250   6.755  1.00  0.00     0.017 C 
ATOM     37  C   UNL     1      -5.045  12.268   7.754  1.00  0.00     0.010 C 
ATOM     38  C   UNL     1      -5.636  10.724   5.910  1.00  0.00     0.010 C 
ENDBRANCH  35  36
BRANCH  35  39
ATOM     39  C   UNL     1      -2.492   9.602   6.636  1.00  0.00     0.329 C 
ATOM     40  O   UNL     1      -2.613   9.059   5.543  1.00  0.00    -0.250 OA
BRANCH  39  41
ATOM     41  O   UNL     1      -1.283   9.893   7.203  1.00  0.00    -0.458 OA
BRANCH  41  42
ATOM     42  C   UNL     1      -0.577   8.786   7.813  1.00  0.00     0.205 CG0
ATOM     43  C   UNL     1      -0.518   9.058   9.315  1.00  0.00     0.056 C 
ATOM     44  G   UNL     1       0.823   8.684   7.177  1.00  0.00     0.000 G0
ENDBRANCH  41  42
ENDBRANCH  39  41
ENDBRANCH  35  39
ENDBRANCH  33  35
ENDBRANCH  23  31
ENDBRANCH  21  23
ENDBRANCH  19  21
ENDBRANCH  14  19
ENDBRANCH   7  14
ENDBRANCH   2   5
BRANCH   3  45
ATOM     45  C   UNL     1      -0.074   5.837   4.746  1.00  0.00     0.171 C 
BRANCH  45  46
ATOM     46  N   UNL     1       0.053   7.112   5.439  1.00  0.00    -0.342 N 
ATOM     47  C   UNL     1       0.936   7.305   6.471  1.00  0.00     0.247 C 
ATOM     48  O   UNL     1       1.734   6.442   6.838  1.00  0.00    -0.273 OA
ATOM     49  H   UNL     1      -0.550   7.872   5.129  1.00  0.00     0.164 HD
BRANCH  47  50
ATOM     50  C   UNL     1       0.842   8.674   7.160  1.00  0.00     0.212 CG0
ATOM     51  G   UNL     1      -0.556   8.778   7.803  1.00  0.00     0.000 G0
BRANCH  50  52
ATOM     52  N   UNL     1       1.929   8.694   8.135  1.00  0.00    -0.339 N 
ATOM     53  C   UNL     1       2.906   9.659   8.157  1.00  0.00     0.243 C 
ATOM     54  O   UNL     1       2.972  10.554   7.319  1.00  0.00    -0.273 OA
ATOM     55  H   UNL     1       1.993   7.916   8.788  1.00  0.00     0.164 HD
BRANCH  53  56
ATOM     56  C   UNL     1       3.996   9.425   9.222  1.00  0.00     0.182 C 
BRANCH  56  57
ATOM     57  N   UNL     1       5.265   9.031   8.600  1.00  0.00    -0.344 N 
ATOM     58  C   UNL     1       6.459   9.066   9.278  1.00  0.00     0.220 C 
ATOM     59  O   UNL     1       6.560   9.497  10.422  1.00  0.00    -0.275 OA
ATOM     60  H   UNL     1       5.210   8.574   7.694  1.00  0.00     0.164 HD
BRANCH  58  61
ATOM     61  C   UNL     1       7.631   8.559   8.458  1.00  0.00     0.100 C 
BRANCH  61  62
ATOM     62  C   UNL     1       7.266   7.431   7.493  1.00  0.00     0.010 C 
BRANCH  62  63
ATOM     63  C   UNL     1       7.415   7.798   6.012  1.00  0.00     0.000 C 
BRANCH  63  64
ATOM     64  C   UNL     1       8.822   8.244   5.615  1.00  0.00    -0.003 C 
ATOM     65  C   UNL     1       9.726   7.050   5.343  1.00  0.00     0.004 C 
ENDBRANCH  63  64
ENDBRANCH  62  63
ENDBRANCH  61  62
ENDBRANCH  58  61
ENDBRANCH  56  57
BRANCH  56  66
ATOM     66  C   UNL     1       3.538   8.423  10.281  1.00  0.00     0.157 C 
BRANCH  66  67
ATOM     67  C   UNL     1       3.191   7.099   9.664  1.00  0.00     0.305 C 
ATOM     68  O   UNL     1       2.198   6.425   9.887  1.00  0.00    -0.252 OA
BRANCH  67  69
ATOM     69  O   UNL     1       4.097   6.709   8.747  1.00  0.00    -0.481 OA
ATOM     70  H   UNL     1       3.674   5.957   8.281  1.00  0.00     0.296 HD
ENDBRANCH  67  69
ENDBRANCH  66  67
ENDBRANCH  56  66
ENDBRANCH  53  56
ENDBRANCH  50  52
ENDBRANCH  47  50
ENDBRANCH  45  46
BRANCH  45  71
ATOM     71  C   UNL     1      -0.339   6.030   3.249  1.00  0.00     0.037 C 
BRANCH  71  72
ATOM     72  C   UNL     1       0.296   7.315   2.713  1.00  0.00     0.026 C 
BRANCH  72  73
ATOM     73  C   UNL     1      -0.447   7.838   1.486  1.00  0.00     0.146 C 
BRANCH  73  74
ATOM     74  N   UNL     1      -0.425   6.790   0.470  1.00  0.00    -0.254 NA
ATOM     75  C   UNL     1      -1.361   6.785  -0.406  1.00  0.00     0.185 C 
ATOM     76  N   UNL     1      -1.368   5.834  -1.354  1.00  0.00    -0.370 N 
ATOM     77  N   UNL     1      -2.400   7.628  -0.537  1.00  0.00    -0.370 N 
ATOM     78  H   UNL     1      -0.623   5.153  -1.323  1.00  0.00     0.159 HD
ATOM     79  H   UNL     1      -2.139   5.680  -1.979  1.00  0.00     0.159 HD
ATOM     80  H   UNL     1      -2.522   8.397   0.105  1.00  0.00     0.159 HD
ATOM     81  H   UNL     1      -3.011   7.594  -1.337  1.00  0.00     0.159 HD
ENDBRANCH  73  74
ENDBRANCH  72  73
ENDBRANCH  71  72
ENDBRANCH  45  71
ENDBRANCH   3  45
TORSDOF 20
ENDMDL
MODEL 44
REMARK VINA RESULT:    -4.368      8.019     12.969
REMARK INTER + INTRA:         -19.183
REMARK INTER:                 -14.165
REMARK INTRA:                  -5.018
REMARK UNBOUND:                -6.644
REMARK SMILES CCCCCC(=O)N[C@H](CC(=O)O)C(=O)N[C@H]1C(=O)N[C@H](CCCN=C(N)N)C(=O)N[C@@H]2CC[C@H](O)N(C2=O)[C@@H](CC(C)C)C(=O)N(C)[C@@H](Cc2ccccc2)C(=O)N[C@H](C(C)C)C(=O)O[C@@H]1C
REMARK SMILES IDX 30 1 31 2 29 3 32 5 35 6 37 7 34 8 38 9 33 10 39 11 36 12
REMARK SMILES IDX 40 14 41 15 42 16 43 17 44 18 45 19 46 20 47 21 48 22 49 23
REMARK SMILES IDX 50 24 51 25 52 26 56 27 53 28 55 29 54 30 57 31 58 32 59 33
REMARK SMILES IDX 60 35 61 36 62 37 63 38 64 39 65 40 66 41 67 42 68 43 21 45
REMARK SMILES IDX 20 46 18 47 19 48 17 50 16 52 14 53 15 54 9 56 8 57 6 58
REMARK SMILES IDX 7 59 5 61 4 62 3 63 2 64 1 65 10 66 11 67 12 68 13 69 22 71
REMARK SMILES IDX 23 72 24 73 25 74 26 75 27 76 28 77
REMARK H PARENT 31 4 36 13 59 34 20 49 16 55 8 60 13 70 27 78 27 79 28 80
REMARK H PARENT 28 81
REMARK Flexibility Score:  259.900
ROOT
ATOM      1  O   UNL     1      -0.717   9.884   1.735  1.00  0.00    -0.273 OA
ATOM      2  N   UNL     1      -1.106   7.635   1.886  1.00  0.00    -0.343 N 
ATOM      3  C   UNL     1      -1.023   8.905   2.417  1.00  0.00     0.243 C 
ATOM      4  H   UNL     1      -1.375   6.855   2.474  1.00  0.00     0.164 HD
ENDROOT
BRANCH   2   5
ATOM      5  C   UNL     1      -0.714   7.381   0.504  1.00  0.00     0.171 C 
ATOM      6  C   UNL     1      -0.356   9.119  -1.788  1.00  0.00     0.214 C 
ATOM      7  N   UNL     1      -1.645   8.511  -1.552  1.00  0.00    -0.303 N 
ATOM      8  C   UNL     1       0.807   8.279  -1.285  1.00  0.00     0.057 C 
ATOM      9  C   UNL     1      -1.898   7.712  -0.449  1.00  0.00     0.247 C 
ATOM     10  C   UNL     1       0.643   8.010   0.195  1.00  0.00     0.040 C 
ATOM     11  O   UNL     1      -3.027   7.265  -0.208  1.00  0.00    -0.272 OA
BRANCH   6  12
ATOM     12  O   UNL     1      -0.356  10.383  -1.164  1.00  0.00    -0.373 OA
ATOM     13  H   UNL     1       0.535  10.511  -0.775  1.00  0.00     0.213 HD
ENDBRANCH   6  12
BRANCH   7  14
ATOM     14  C   UNL     1      -2.744   8.894  -2.463  1.00  0.00     0.177 C 
BRANCH  14  15
ATOM     15  C   UNL     1      -3.369  10.277  -2.193  1.00  0.00     0.038 C 
BRANCH  15  16
ATOM     16  C   UNL     1      -4.240  10.485  -0.935  1.00  0.00    -0.015 C 
ATOM     17  C   UNL     1      -5.605  11.097  -1.264  1.00  0.00     0.007 C 
ATOM     18  C   UNL     1      -3.519  11.419   0.046  1.00  0.00     0.007 C 
ENDBRANCH  15  16
ENDBRANCH  14  15
BRANCH  14  19
ATOM     19  C   UNL     1      -2.521   8.261  -3.880  1.00  0.00     0.245 C 
ATOM     20  O   UNL     1      -2.510   7.020  -3.942  1.00  0.00    -0.272 OA
BRANCH  19  21
ATOM     21  N   UNL     1      -2.229   8.995  -5.016  1.00  0.00    -0.332 N 
ATOM     22  C   UNL     1      -1.187  10.000  -5.125  1.00  0.00     0.147 C 
BRANCH  21  23
ATOM     23  C   UNL     1      -3.054   8.752  -6.232  1.00  0.00     0.178 C 
BRANCH  23  24
ATOM     24  C   UNL     1      -4.568   8.976  -6.041  1.00  0.00     0.070 C 
BRANCH  24  25
ATOM     25  C   UNL     1      -5.460   7.760  -6.130  1.00  0.00    -0.045 A 
ATOM     26  C   UNL     1      -5.871   7.261  -7.373  1.00  0.00     0.004 A 
ATOM     27  C   UNL     1      -5.894   7.114  -4.963  1.00  0.00     0.004 A 
ATOM     28  C   UNL     1      -6.710   6.147  -7.446  1.00  0.00     0.000 A 
ATOM     29  C   UNL     1      -6.732   6.000  -5.037  1.00  0.00     0.000 A 
ATOM     30  C   UNL     1      -7.141   5.519  -6.279  1.00  0.00     0.000 A 
ENDBRANCH  24  25
ENDBRANCH  23  24
BRANCH  23  31
ATOM     31  C   UNL     1      -2.455   9.396  -7.505  1.00  0.00     0.243 C 
ATOM     32  O   UNL     1      -1.550   8.895  -8.168  1.00  0.00    -0.273 OA
ATOM     33  N   UNL     1      -2.902  10.686  -7.735  1.00  0.00    -0.341 N 
ATOM     34  H   UNL     1      -3.654  11.051  -7.146  1.00  0.00     0.164 HD
BRANCH  33  35
ATOM     35  C   UNL     1      -2.383  11.531  -8.814  1.00  0.00     0.194 C 
BRANCH  35  36
ATOM     36  C   UNL     1      -1.451  12.678  -8.329  1.00  0.00     0.017 C 
ATOM     37  C   UNL     1       0.019  12.226  -8.291  1.00  0.00     0.010 C 
ATOM     38  C   UNL     1      -1.809  13.197  -6.931  1.00  0.00     0.010 C 
ENDBRANCH  35  36
BRANCH  35  39
ATOM     39  C   UNL     1      -3.503  12.053  -9.757  1.00  0.00     0.329 C 
ATOM     40  O   UNL     1      -4.514  11.419 -10.037  1.00  0.00    -0.250 OA
BRANCH  39  41
ATOM     41  O   UNL     1      -3.277  13.336 -10.172  1.00  0.00    -0.458 OA
BRANCH  41  42
ATOM     42  C   UNL     1      -3.268  13.554 -11.603  1.00  0.00     0.205 CG0
ATOM     43  C   UNL     1      -1.837  13.329 -12.088  1.00  0.00     0.056 C 
ATOM     44  G   UNL     1      -3.767  14.985 -11.886  1.00  0.00     0.000 G0
ENDBRANCH  41  42
ENDBRANCH  39  41
ENDBRANCH  35  39
ENDBRANCH  33  35
ENDBRANCH  23  31
ENDBRANCH  21  23
ENDBRANCH  19  21
ENDBRANCH  14  19
ENDBRANCH   7  14
ENDBRANCH   2   5
BRANCH   3  45
ATOM     45  C   UNL     1      -1.359   9.016   3.910  1.00  0.00     0.171 C 
BRANCH  45  46
ATOM     46  N   UNL     1      -0.952   7.748   4.501  1.00  0.00    -0.342 N 
ATOM     47  C   UNL     1       0.012   7.664   5.473  1.00  0.00     0.247 C 
ATOM     48  O   UNL     1       0.550   8.656   5.968  1.00  0.00    -0.273 OA
ATOM     49  H   UNL     1      -1.414   6.906   4.160  1.00  0.00     0.164 HD
BRANCH  47  50
ATOM     50  C   UNL     1       0.397   6.237   5.886  1.00  0.00     0.212 CG0
ATOM     51  G   UNL     1       1.251   6.334   7.166  1.00  0.00     0.000 G0
BRANCH  50  52
ATOM     52  N   UNL     1      -0.868   5.535   6.089  1.00  0.00    -0.339 N 
ATOM     53  C   UNL     1      -1.059   4.587   7.064  1.00  0.00     0.243 C 
ATOM     54  O   UNL     1      -0.158   4.215   7.811  1.00  0.00    -0.273 OA
ATOM     55  H   UNL     1      -1.622   5.719   5.429  1.00  0.00     0.164 HD
BRANCH  53  56
ATOM     56  C   UNL     1      -2.450   3.922   7.029  1.00  0.00     0.182 C 
BRANCH  56  57
ATOM     57  N   UNL     1      -2.877   3.524   8.375  1.00  0.00    -0.344 N 
ATOM     58  C   UNL     1      -3.760   4.270   9.117  1.00  0.00     0.220 C 
ATOM     59  O   UNL     1      -4.195   5.352   8.739  1.00  0.00    -0.275 OA
ATOM     60  H   UNL     1      -2.621   2.590   8.682  1.00  0.00     0.164 HD
BRANCH  58  61
ATOM     61  C   UNL     1      -4.105   3.639  10.453  1.00  0.00     0.100 C 
BRANCH  61  62
ATOM     62  C   UNL     1      -4.442   2.151  10.364  1.00  0.00     0.010 C 
BRANCH  62  63
ATOM     63  C   UNL     1      -3.912   1.315  11.536  1.00  0.00     0.000 C 
BRANCH  63  64
ATOM     64  C   UNL     1      -2.640   0.530  11.221  1.00  0.00    -0.003 C 
ATOM     65  C   UNL     1      -1.465   1.020  12.055  1.00  0.00     0.004 C 
ENDBRANCH  63  64
ENDBRANCH  62  63
ENDBRANCH  61  62
ENDBRANCH  58  61
ENDBRANCH  56  57
BRANCH  56  66
ATOM     66  C   UNL     1      -2.489   2.755   6.044  1.00  0.00     0.157 C 
BRANCH  66  67
ATOM     67  C   UNL     1      -3.146   1.550   6.653  1.00  0.00     0.305 C 
ATOM     68  O   UNL     1      -2.607   0.681   7.321  1.00  0.00    -0.252 OA
BRANCH  67  69
ATOM     69  O   UNL     1      -4.474   1.526   6.433  1.00  0.00    -0.481 OA
ATOM     70  H   UNL     1      -4.656   0.621   6.100  1.00  0.00     0.296 HD
ENDBRANCH  67  69
ENDBRANCH  66  67
ENDBRANCH  56  66
ENDBRANCH  53  56
ENDBRANCH  50  52
ENDBRANCH  47  50
ENDBRANCH  45  46
BRANCH  45  71
ATOM     71  C   UNL     1      -2.857   9.275   4.102  1.00  0.00     0.037 C 
BRANCH  71  72
ATOM     72  C   UNL     1      -3.363   8.754   5.449  1.00  0.00     0.026 C 
BRANCH  72  73
ATOM     73  C   UNL     1      -4.829   9.118   5.676  1.00  0.00     0.146 C 
BRANCH  73  74
ATOM     74  N   UNL     1      -5.602   7.880   5.679  1.00  0.00    -0.254 NA
ATOM     75  C   UNL     1      -5.984   7.415   6.811  1.00  0.00     0.185 C 
ATOM     76  N   UNL     1      -6.698   6.278   6.846  1.00  0.00    -0.370 N 
ATOM     77  N   UNL     1      -5.773   7.911   8.043  1.00  0.00    -0.370 N 
ATOM     78  H   UNL     1      -6.895   5.834   5.961  1.00  0.00     0.159 HD
ATOM     79  H   UNL     1      -6.905   5.781   7.694  1.00  0.00     0.159 HD
ATOM     80  H   UNL     1      -5.253   8.766   8.170  1.00  0.00     0.159 HD
ATOM     81  H   UNL     1      -6.222   7.519   8.854  1.00  0.00     0.159 HD
ENDBRANCH  73  74
ENDBRANCH  72  73
ENDBRANCH  71  72
ENDBRANCH  45  71
ENDBRANCH   3  45
TORSDOF 20
ENDMDL
MODEL 45
REMARK VINA RESULT:    -4.348      3.275      6.351
REMARK INTER + INTRA:         -19.125
REMARK INTER:                 -13.908
REMARK INTRA:                  -5.217
REMARK UNBOUND:                -6.644
REMARK SMILES CCCCCC(=O)N[C@H](CC(=O)O)C(=O)N[C@H]1C(=O)N[C@H](CCCN=C(N)N)C(=O)N[C@@H]2CC[C@H](O)N(C2=O)[C@@H](CC(C)C)C(=O)N(C)[C@@H](Cc2ccccc2)C(=O)N[C@H](C(C)C)C(=O)O[C@@H]1C
REMARK SMILES IDX 30 1 31 2 29 3 32 5 35 6 37 7 34 8 38 9 33 10 39 11 36 12
REMARK SMILES IDX 40 14 41 15 42 16 43 17 44 18 45 19 46 20 47 21 48 22 49 23
REMARK SMILES IDX 50 24 51 25 52 26 56 27 53 28 55 29 54 30 57 31 58 32 59 33
REMARK SMILES IDX 60 35 61 36 62 37 63 38 64 39 65 40 66 41 67 42 68 43 21 45
REMARK SMILES IDX 20 46 18 47 19 48 17 50 16 52 14 53 15 54 9 56 8 57 6 58
REMARK SMILES IDX 7 59 5 61 4 62 3 63 2 64 1 65 10 66 11 67 12 68 13 69 22 71
REMARK SMILES IDX 23 72 24 73 25 74 26 75 27 76 28 77
REMARK H PARENT 31 4 36 13 59 34 20 49 16 55 8 60 13 70 27 78 27 79 28 80
REMARK H PARENT 28 81
REMARK Flexibility Score:  259.900
ROOT
ATOM      1  O   UNL     1      -3.787   7.840  11.806  1.00  0.00    -0.273 OA
ATOM      2  N   UNL     1      -2.748   9.865  11.580  1.00  0.00    -0.343 N 
ATOM      3  C   UNL     1      -3.858   9.048  11.577  1.00  0.00     0.243 C 
ATOM      4  H   UNL     1      -2.847  10.857  11.402  1.00  0.00     0.164 HD
ENDROOT
BRANCH   2   5
ATOM      5  C   UNL     1      -1.412   9.302  11.742  1.00  0.00     0.171 C 
ATOM      6  C   UNL     1       1.227  10.499  11.825  1.00  0.00     0.214 C 
ATOM      7  N   UNL     1       0.687  10.057  10.560  1.00  0.00    -0.303 N 
ATOM      8  C   UNL     1       0.724   9.689  13.010  1.00  0.00     0.057 C 
ATOM      9  C   UNL     1      -0.586   9.523  10.442  1.00  0.00     0.247 C 
ATOM     10  C   UNL     1      -0.787   9.744  13.064  1.00  0.00     0.040 C 
ATOM     11  O   UNL     1      -1.074   9.227   9.344  1.00  0.00    -0.272 OA
BRANCH   6  12
ATOM     12  O   UNL     1       0.896  11.859  11.982  1.00  0.00    -0.373 OA
ATOM     13  H   UNL     1       1.512  12.372  11.417  1.00  0.00     0.213 HD
ENDBRANCH   6  12
BRANCH   7  14
ATOM     14  C   UNL     1       1.496  10.331   9.354  1.00  0.00     0.177 C 
BRANCH  14  15
ATOM     15  C   UNL     1       1.839  11.814   9.117  1.00  0.00     0.038 C 
BRANCH  15  16
ATOM     16  C   UNL     1       0.979  12.648   8.141  1.00  0.00    -0.015 C 
ATOM     17  C   UNL     1       1.815  13.645   7.332  1.00  0.00     0.007 C 
ATOM     18  C   UNL     1      -0.080  13.434   8.925  1.00  0.00     0.007 C 
ENDBRANCH  15  16
ENDBRANCH  14  15
BRANCH  14  19
ATOM     19  C   UNL     1       2.444   9.121   9.048  1.00  0.00     0.245 C 
ATOM     20  O   UNL     1       2.567   8.793   7.856  1.00  0.00    -0.272 OA
BRANCH  19  21
ATOM     21  N   UNL     1       3.047   8.348  10.025  1.00  0.00    -0.332 N 
ATOM     22  C   UNL     1       2.640   7.007  10.409  1.00  0.00     0.147 C 
BRANCH  21  23
ATOM     23  C   UNL     1       4.203   8.931  10.759  1.00  0.00     0.178 C 
BRANCH  23  24
ATOM     24  C   UNL     1       4.701   8.090  11.952  1.00  0.00     0.070 C 
BRANCH  24  25
ATOM     25  C   UNL     1       4.362   8.591  13.337  1.00  0.00    -0.045 A 
ATOM     26  C   UNL     1       4.028   7.696  14.362  1.00  0.00     0.004 A 
ATOM     27  C   UNL     1       4.373   9.966  13.614  1.00  0.00     0.004 A 
ATOM     28  C   UNL     1       3.699   8.168  15.634  1.00  0.00     0.000 A 
ATOM     29  C   UNL     1       4.045  10.436  14.887  1.00  0.00     0.000 A 
ATOM     30  C   UNL     1       3.705   9.536  15.895  1.00  0.00     0.000 A 
ENDBRANCH  24  25
ENDBRANCH  23  24
BRANCH  23  31
ATOM     31  C   UNL     1       5.316   9.450   9.818  1.00  0.00     0.243 C 
ATOM     32  O   UNL     1       5.655  10.628   9.739  1.00  0.00    -0.273 OA
ATOM     33  N   UNL     1       5.779   8.495   8.929  1.00  0.00    -0.341 N 
ATOM     34  H   UNL     1       5.456   7.531   9.042  1.00  0.00     0.164 HD
BRANCH  33  35
ATOM     35  C   UNL     1       6.746   8.792   7.869  1.00  0.00     0.194 C 
BRANCH  35  36
ATOM     36  C   UNL     1       6.274   8.381   6.446  1.00  0.00     0.017 C 
ATOM     37  C   UNL     1       5.479   7.064   6.478  1.00  0.00     0.010 C 
ATOM     38  C   UNL     1       7.431   8.195   5.456  1.00  0.00     0.010 C 
ENDBRANCH  35  36
BRANCH  35  39
ATOM     39  C   UNL     1       8.168   8.250   8.188  1.00  0.00     0.329 C 
ATOM     40  O   UNL     1       8.429   7.065   8.355  1.00  0.00    -0.250 OA
BRANCH  39  41
ATOM     41  O   UNL     1       9.115   9.236   8.174  1.00  0.00    -0.458 OA
BRANCH  41  42
ATOM     42  C   UNL     1      10.495   8.800   8.139  1.00  0.00     0.205 CG0
ATOM     43  C   UNL     1      11.129   9.190   9.473  1.00  0.00     0.056 C 
ATOM     44  G   UNL     1      11.191   9.468   6.937  1.00  0.00     0.000 G0
ENDBRANCH  41  42
ENDBRANCH  39  41
ENDBRANCH  35  39
ENDBRANCH  33  35
ENDBRANCH  23  31
ENDBRANCH  21  23
ENDBRANCH  19  21
ENDBRANCH  14  19
ENDBRANCH   7  14
ENDBRANCH   2   5
BRANCH   3  45
ATOM     45  C   UNL     1      -5.191   9.751  11.288  1.00  0.00     0.171 C 
BRANCH  45  46
ATOM     46  N   UNL     1      -6.188   8.691  11.218  1.00  0.00    -0.342 N 
ATOM     47  C   UNL     1      -7.146   8.516  12.185  1.00  0.00     0.247 C 
ATOM     48  O   UNL     1      -7.279   9.282  13.140  1.00  0.00    -0.273 OA
ATOM     49  H   UNL     1      -6.150   8.069  10.413  1.00  0.00     0.164 HD
BRANCH  47  50
ATOM     50  C   UNL     1      -8.031   7.274  12.006  1.00  0.00     0.212 CG0
ATOM     51  G   UNL     1      -9.246   7.685  11.150  1.00  0.00     0.000 G0
BRANCH  50  52
ATOM     52  N   UNL     1      -7.180   6.279  11.359  1.00  0.00    -0.339 N 
ATOM     53  C   UNL     1      -6.557   5.261  12.039  1.00  0.00     0.243 C 
ATOM     54  O   UNL     1      -6.626   5.140  13.259  1.00  0.00    -0.273 OA
ATOM     55  H   UNL     1      -6.993   6.392  10.364  1.00  0.00     0.164 HD
BRANCH  53  56
ATOM     56  C   UNL     1      -5.641   4.387  11.158  1.00  0.00     0.182 C 
BRANCH  56  57
ATOM     57  N   UNL     1      -5.859   4.664   9.735  1.00  0.00    -0.344 N 
ATOM     58  C   UNL     1      -7.011   4.297   9.082  1.00  0.00     0.220 C 
ATOM     59  O   UNL     1      -7.902   3.651   9.622  1.00  0.00    -0.275 OA
ATOM     60  H   UNL     1      -5.194   5.282   9.278  1.00  0.00     0.164 HD
BRANCH  58  61
ATOM     61  C   UNL     1      -7.044   4.736   7.630  1.00  0.00     0.100 C 
BRANCH  61  62
ATOM     62  C   UNL     1      -6.555   3.667   6.651  1.00  0.00     0.010 C 
BRANCH  62  63
ATOM     63  C   UNL     1      -5.403   4.124   5.748  1.00  0.00     0.000 C 
BRANCH  63  64
ATOM     64  C   UNL     1      -4.175   3.216   5.792  1.00  0.00    -0.003 C 
ATOM     65  C   UNL     1      -4.169   2.350   7.043  1.00  0.00     0.004 C 
ENDBRANCH  63  64
ENDBRANCH  62  63
ENDBRANCH  61  62
ENDBRANCH  58  61
ENDBRANCH  56  57
BRANCH  56  66
ATOM     66  C   UNL     1      -5.796   2.904  11.488  1.00  0.00     0.157 C 
BRANCH  66  67
ATOM     67  C   UNL     1      -4.482   2.184  11.387  1.00  0.00     0.305 C 
ATOM     68  O   UNL     1      -3.664   2.275  10.485  1.00  0.00    -0.252 OA
BRANCH  67  69
ATOM     69  O   UNL     1      -4.236   1.415  12.465  1.00  0.00    -0.481 OA
ATOM     70  H   UNL     1      -4.851   0.656  12.377  1.00  0.00     0.296 HD
ENDBRANCH  67  69
ENDBRANCH  66  67
ENDBRANCH  56  66
ENDBRANCH  53  56
ENDBRANCH  50  52
ENDBRANCH  47  50
ENDBRANCH  45  46
BRANCH  45  71
ATOM     71  C   UNL     1      -5.107  10.537   9.975  1.00  0.00     0.037 C 
BRANCH  71  72
ATOM     72  C   UNL     1      -5.259  12.044  10.195  1.00  0.00     0.026 C 
BRANCH  72  73
ATOM     73  C   UNL     1      -4.019  12.806   9.731  1.00  0.00     0.146 C 
BRANCH  73  74
ATOM     74  N   UNL     1      -2.981  12.630  10.742  1.00  0.00    -0.254 NA
ATOM     75  C   UNL     1      -2.711  13.625  11.503  1.00  0.00     0.185 C 
ATOM     76  N   UNL     1      -1.762  13.493  12.444  1.00  0.00    -0.370 N 
ATOM     77  N   UNL     1      -3.257  14.854  11.513  1.00  0.00    -0.370 N 
ATOM     78  H   UNL     1      -1.295  12.600  12.500  1.00  0.00     0.159 HD
ATOM     79  H   UNL     1      -1.398  14.265  12.975  1.00  0.00     0.159 HD
ATOM     80  H   UNL     1      -3.989  15.096  10.861  1.00  0.00     0.159 HD
ATOM     81  H   UNL     1      -3.044  15.521  12.236  1.00  0.00     0.159 HD
ENDBRANCH  73  74
ENDBRANCH  72  73
ENDBRANCH  71  72
ENDBRANCH  45  71
ENDBRANCH   3  45
TORSDOF 20
ENDMDL
MODEL 46
REMARK VINA RESULT:    -4.319      4.248      7.263
REMARK INTER + INTRA:         -19.042
REMARK INTER:                 -14.014
REMARK INTRA:                  -5.027
REMARK UNBOUND:                -6.644
REMARK SMILES CCCCCC(=O)N[C@H](CC(=O)O)C(=O)N[C@H]1C(=O)N[C@H](CCCN=C(N)N)C(=O)N[C@@H]2CC[C@H](O)N(C2=O)[C@@H](CC(C)C)C(=O)N(C)[C@@H](Cc2ccccc2)C(=O)N[C@H](C(C)C)C(=O)O[C@@H]1C
REMARK SMILES IDX 30 1 31 2 29 3 32 5 35 6 37 7 34 8 38 9 33 10 39 11 36 12
REMARK SMILES IDX 40 14 41 15 42 16 43 17 44 18 45 19 46 20 47 21 48 22 49 23
REMARK SMILES IDX 50 24 51 25 52 26 56 27 53 28 55 29 54 30 57 31 58 32 59 33
REMARK SMILES IDX 60 35 61 36 62 37 63 38 64 39 65 40 66 41 67 42 68 43 21 45
REMARK SMILES IDX 20 46 18 47 19 48 17 50 16 52 14 53 15 54 9 56 8 57 6 58
REMARK SMILES IDX 7 59 5 61 4 62 3 63 2 64 1 65 10 66 11 67 12 68 13 69 22 71
REMARK SMILES IDX 23 72 24 73 25 74 26 75 27 76 28 77
REMARK H PARENT 31 4 36 13 59 34 20 49 16 55 8 60 13 70 27 78 27 79 28 80
REMARK H PARENT 28 81
REMARK Flexibility Score:  259.900
ROOT
ATOM      1  O   UNL     1      -3.183   2.952   7.989  1.00  0.00    -0.273 OA
ATOM      2  N   UNL     1      -2.205   4.996   8.302  1.00  0.00    -0.343 N 
ATOM      3  C   UNL     1      -3.208   4.072   8.500  1.00  0.00     0.243 C 
ATOM      4  H   UNL     1      -2.252   5.902   8.750  1.00  0.00     0.164 HD
ENDROOT
BRANCH   2   5
ATOM      5  C   UNL     1      -1.117   4.721   7.369  1.00  0.00     0.171 C 
ATOM      6  C   UNL     1       1.139   6.301   6.463  1.00  0.00     0.214 C 
ATOM      7  N   UNL     1      -0.103   6.347   5.726  1.00  0.00    -0.303 N 
ATOM      8  C   UNL     1       1.377   4.971   7.159  1.00  0.00     0.057 C 
ATOM      9  C   UNL     1      -1.233   5.657   6.132  1.00  0.00     0.247 C 
ATOM     10  C   UNL     1       0.227   4.669   8.095  1.00  0.00     0.040 C 
ATOM     11  O   UNL     1      -2.317   5.770   5.545  1.00  0.00    -0.272 OA
BRANCH   6  12
ATOM     12  O   UNL     1       1.121   7.352   7.402  1.00  0.00    -0.373 OA
ATOM     13  H   UNL     1       2.053   7.619   7.552  1.00  0.00     0.213 HD
ENDBRANCH   6  12
BRANCH   7  14
ATOM     14  C   UNL     1      -0.171   7.285   4.585  1.00  0.00     0.177 C 
BRANCH  14  15
ATOM     15  C   UNL     1      -0.162   6.626   3.192  1.00  0.00     0.038 C 
BRANCH  15  16
ATOM     16  C   UNL     1       0.224   7.466   1.955  1.00  0.00    -0.015 C 
ATOM     17  C   UNL     1       0.524   8.925   2.310  1.00  0.00     0.007 C 
ATOM     18  C   UNL     1      -0.922   7.445   0.936  1.00  0.00     0.007 C 
ENDBRANCH  15  16
ENDBRANCH  14  15
BRANCH  14  19
ATOM     19  C   UNL     1      -0.991   8.561   4.979  1.00  0.00     0.245 C 
ATOM     20  O   UNL     1      -2.125   8.672   4.485  1.00  0.00    -0.272 OA
BRANCH  19  21
ATOM     21  N   UNL     1      -0.483   9.600   5.740  1.00  0.00    -0.332 N 
ATOM     22  C   UNL     1       0.468  10.595   5.279  1.00  0.00     0.147 C 
BRANCH  21  23
ATOM     23  C   UNL     1      -0.934   9.711   7.155  1.00  0.00     0.178 C 
BRANCH  23  24
ATOM     24  C   UNL     1      -0.581  11.046   7.842  1.00  0.00     0.070 C 
BRANCH  24  25
ATOM     25  C   UNL     1       0.476  11.007   8.921  1.00  0.00    -0.045 A 
ATOM     26  C   UNL     1       1.326  12.100   9.132  1.00  0.00     0.004 A 
ATOM     27  C   UNL     1       0.623   9.868   9.726  1.00  0.00     0.004 A 
ATOM     28  C   UNL     1       2.311  12.050  10.120  1.00  0.00     0.000 A 
ATOM     29  C   UNL     1       1.608   9.820  10.714  1.00  0.00     0.000 A 
ATOM     30  C   UNL     1       2.454  10.910  10.908  1.00  0.00     0.000 A 
ENDBRANCH  24  25
ENDBRANCH  23  24
BRANCH  23  31
ATOM     31  C   UNL     1      -2.391   9.235   7.364  1.00  0.00     0.243 C 
ATOM     32  O   UNL     1      -2.699   8.101   7.720  1.00  0.00    -0.273 OA
ATOM     33  N   UNL     1      -3.338  10.149   6.933  1.00  0.00    -0.341 N 
ATOM     34  H   UNL     1      -3.020  11.076   6.642  1.00  0.00     0.164 HD
BRANCH  33  35
ATOM     35  C   UNL     1      -4.776   9.865   6.924  1.00  0.00     0.194 C 
BRANCH  35  36
ATOM     36  C   UNL     1      -5.392   9.754   5.501  1.00  0.00     0.017 C 
ATOM     37  C   UNL     1      -4.867  10.865   4.576  1.00  0.00     0.010 C 
ATOM     38  C   UNL     1      -6.923   9.839   5.497  1.00  0.00     0.010 C 
ENDBRANCH  35  36
BRANCH  35  39
ATOM     39  C   UNL     1      -5.583  10.836   7.831  1.00  0.00     0.329 C 
ATOM     40  O   UNL     1      -5.788  12.014   7.564  1.00  0.00    -0.250 OA
BRANCH  39  41
ATOM     41  O   UNL     1      -6.115  10.206   8.922  1.00  0.00    -0.458 OA
BRANCH  41  42
ATOM     42  C   UNL     1      -6.089   8.759   8.903  1.00  0.00     0.205 CG0
ATOM     43  C   UNL     1      -7.500   8.275   9.235  1.00  0.00     0.056 C 
ATOM     44  G   UNL     1      -5.043   8.271   9.925  1.00  0.00     0.000 G0
ENDBRANCH  41  42
ENDBRANCH  39  41
ENDBRANCH  35  39
ENDBRANCH  33  35
ENDBRANCH  23  31
ENDBRANCH  21  23
ENDBRANCH  19  21
ENDBRANCH  14  19
ENDBRANCH   7  14
ENDBRANCH   2   5
BRANCH   3  45
ATOM     45  C   UNL     1      -4.349   4.528   9.420  1.00  0.00     0.171 C 
BRANCH  45  46
ATOM     46  N   UNL     1      -4.270   5.982   9.453  1.00  0.00    -0.342 N 
ATOM     47  C   UNL     1      -5.201   6.755  10.100  1.00  0.00     0.247 C 
ATOM     48  O   UNL     1      -6.125   6.277  10.759  1.00  0.00    -0.273 OA
ATOM     49  H   UNL     1      -3.488   6.418   8.967  1.00  0.00     0.164 HD
BRANCH  47  50
ATOM     50  C   UNL     1      -5.025   8.270   9.923  1.00  0.00     0.212 CG0
ATOM     51  G   UNL     1      -6.083   8.748   8.908  1.00  0.00     0.000 G0
BRANCH  50  52
ATOM     52  N   UNL     1      -5.204   8.842  11.254  1.00  0.00    -0.339 N 
ATOM     53  C   UNL     1      -4.170   9.036  12.138  1.00  0.00     0.243 C 
ATOM     54  O   UNL     1      -3.017   8.691  11.894  1.00  0.00    -0.273 OA
ATOM     55  H   UNL     1      -6.154   9.046  11.558  1.00  0.00     0.164 HD
BRANCH  53  56
ATOM     56  C   UNL     1      -4.613   9.572  13.515  1.00  0.00     0.182 C 
BRANCH  56  57
ATOM     57  N   UNL     1      -3.535   9.446  14.501  1.00  0.00    -0.344 N 
ATOM     58  C   UNL     1      -2.862  10.535  14.998  1.00  0.00     0.220 C 
ATOM     59  O   UNL     1      -3.064  11.678  14.601  1.00  0.00    -0.275 OA
ATOM     60  H   UNL     1      -3.407   8.533  14.929  1.00  0.00     0.164 HD
BRANCH  58  61
ATOM     61  C   UNL     1      -1.829  10.175  16.050  1.00  0.00     0.100 C 
BRANCH  61  62
ATOM     62  C   UNL     1      -0.495  10.902  15.877  1.00  0.00     0.010 C 
BRANCH  62  63
ATOM     63  C   UNL     1       0.222  10.591  14.556  1.00  0.00     0.000 C 
BRANCH  63  64
ATOM     64  C   UNL     1       0.144  11.713  13.522  1.00  0.00    -0.003 C 
ATOM     65  C   UNL     1       1.255  12.733  13.724  1.00  0.00     0.004 C 
ENDBRANCH  63  64
ENDBRANCH  62  63
ENDBRANCH  61  62
ENDBRANCH  58  61
ENDBRANCH  56  57
BRANCH  56  66
ATOM     66  C   UNL     1      -5.906   8.907  13.985  1.00  0.00     0.157 C 
BRANCH  66  67
ATOM     67  C   UNL     1      -5.622   7.773  14.927  1.00  0.00     0.305 C 
ATOM     68  O   UNL     1      -5.645   7.812  16.148  1.00  0.00    -0.252 OA
BRANCH  67  69
ATOM     69  O   UNL     1      -5.371   6.620  14.279  1.00  0.00    -0.481 OA
ATOM     70  H   UNL     1      -4.476   6.355  14.577  1.00  0.00     0.296 HD
ENDBRANCH  67  69
ENDBRANCH  66  67
ENDBRANCH  56  66
ENDBRANCH  53  56
ENDBRANCH  50  52
ENDBRANCH  47  50
ENDBRANCH  45  46
BRANCH  45  71
ATOM     71  C   UNL     1      -4.183   3.921  10.818  1.00  0.00     0.037 C 
BRANCH  71  72
ATOM     72  C   UNL     1      -5.097   2.712  11.032  1.00  0.00     0.026 C 
BRANCH  72  73
ATOM     73  C   UNL     1      -4.366   1.577  11.747  1.00  0.00     0.146 C 
BRANCH  73  74
ATOM     74  N   UNL     1      -2.969   1.971  11.900  1.00  0.00    -0.254 NA
ATOM     75  C   UNL     1      -2.139   1.598  10.998  1.00  0.00     0.185 C 
ATOM     76  N   UNL     1      -0.847   1.946  11.111  1.00  0.00    -0.370 N 
ATOM     77  N   UNL     1      -2.365   0.870   9.891  1.00  0.00    -0.370 N 
ATOM     78  H   UNL     1      -0.588   2.490  11.922  1.00  0.00     0.159 HD
ATOM     79  H   UNL     1      -0.119   1.572  10.527  1.00  0.00     0.159 HD
ATOM     80  H   UNL     1      -3.294   0.541   9.673  1.00  0.00     0.159 HD
ATOM     81  H   UNL     1      -1.653   0.736   9.192  1.00  0.00     0.159 HD
ENDBRANCH  73  74
ENDBRANCH  72  73
ENDBRANCH  71  72
ENDBRANCH  45  71
ENDBRANCH   3  45
TORSDOF 20
ENDMDL
MODEL 47
REMARK VINA RESULT:    -4.317      3.439      8.883
REMARK INTER + INTRA:         -19.038
REMARK INTER:                 -13.272
REMARK INTRA:                  -5.766
REMARK UNBOUND:                -6.644
REMARK SMILES CCCCCC(=O)N[C@H](CC(=O)O)C(=O)N[C@H]1C(=O)N[C@H](CCCN=C(N)N)C(=O)N[C@@H]2CC[C@H](O)N(C2=O)[C@@H](CC(C)C)C(=O)N(C)[C@@H](Cc2ccccc2)C(=O)N[C@H](C(C)C)C(=O)O[C@@H]1C
REMARK SMILES IDX 30 1 31 2 29 3 32 5 35 6 37 7 34 8 38 9 33 10 39 11 36 12
REMARK SMILES IDX 40 14 41 15 42 16 43 17 44 18 45 19 46 20 47 21 48 22 49 23
REMARK SMILES IDX 50 24 51 25 52 26 56 27 53 28 55 29 54 30 57 31 58 32 59 33
REMARK SMILES IDX 60 35 61 36 62 37 63 38 64 39 65 40 66 41 67 42 68 43 21 45
REMARK SMILES IDX 20 46 18 47 19 48 17 50 16 52 14 53 15 54 9 56 8 57 6 58
REMARK SMILES IDX 7 59 5 61 4 62 3 63 2 64 1 65 10 66 11 67 12 68 13 69 22 71
REMARK SMILES IDX 23 72 24 73 25 74 26 75 27 76 28 77
REMARK H PARENT 31 4 36 13 59 34 20 49 16 55 8 60 13 70 27 78 27 79 28 80
REMARK H PARENT 28 81
REMARK Flexibility Score:  259.900
ROOT
ATOM      1  O   UNL     1      -4.053   4.278   6.979  1.00  0.00    -0.273 OA
ATOM      2  N   UNL     1      -3.911   3.959   9.239  1.00  0.00    -0.343 N 
ATOM      3  C   UNL     1      -3.427   3.858   7.952  1.00  0.00     0.243 C 
ATOM      4  H   UNL     1      -3.363   3.615  10.017  1.00  0.00     0.164 HD
ENDROOT
BRANCH   2   5
ATOM      5  C   UNL     1      -5.255   4.469   9.489  1.00  0.00     0.171 C 
ATOM      6  C   UNL     1      -7.267   5.634   7.757  1.00  0.00     0.214 C 
ATOM      7  N   UNL     1      -6.314   6.495   8.417  1.00  0.00    -0.303 N 
ATOM      8  C   UNL     1      -7.583   4.370   8.542  1.00  0.00     0.057 C 
ATOM      9  C   UNL     1      -5.297   6.000   9.217  1.00  0.00     0.247 C 
ATOM     10  C   UNL     1      -6.308   3.598   8.805  1.00  0.00     0.040 C 
ATOM     11  O   UNL     1      -4.433   6.737   9.709  1.00  0.00    -0.272 OA
BRANCH   6  12
ATOM     12  O   UNL     1      -6.746   5.308   6.489  1.00  0.00    -0.373 OA
ATOM     13  H   UNL     1      -5.796   5.100   6.614  1.00  0.00     0.213 HD
ENDBRANCH   6  12
BRANCH   7  14
ATOM     14  C   UNL     1      -6.373   7.935   8.090  1.00  0.00     0.177 C 
BRANCH  14  15
ATOM     15  C   UNL     1      -6.984   8.832   9.184  1.00  0.00     0.038 C 
BRANCH  15  16
ATOM     16  C   UNL     1      -8.158   9.772   8.828  1.00  0.00    -0.015 C 
ATOM     17  C   UNL     1      -8.819   9.404   7.497  1.00  0.00     0.007 C 
ATOM     18  C   UNL     1      -7.653  11.218   8.731  1.00  0.00     0.007 C 
ENDBRANCH  15  16
ENDBRANCH  14  15
BRANCH  14  19
ATOM     19  C   UNL     1      -5.176   8.329   7.158  1.00  0.00     0.245 C 
ATOM     20  O   UNL     1      -4.821   7.487   6.316  1.00  0.00    -0.272 OA
BRANCH  19  21
ATOM     21  N   UNL     1      -4.441   9.493   7.297  1.00  0.00    -0.332 N 
ATOM     22  C   UNL     1      -3.839   9.967   8.531  1.00  0.00     0.147 C 
BRANCH  21  23
ATOM     23  C   UNL     1      -4.252  10.346   6.091  1.00  0.00     0.178 C 
BRANCH  23  24
ATOM     24  C   UNL     1      -4.934  11.728   6.165  1.00  0.00     0.070 C 
BRANCH  24  25
ATOM     25  C   UNL     1      -5.321  12.375   4.855  1.00  0.00    -0.045 A 
ATOM     26  C   UNL     1      -5.499  11.605   3.699  1.00  0.00     0.004 A 
ATOM     27  C   UNL     1      -5.503  13.764   4.779  1.00  0.00     0.004 A 
ATOM     28  C   UNL     1      -5.839  12.213   2.489  1.00  0.00     0.000 A 
ATOM     29  C   UNL     1      -5.844  14.370   3.569  1.00  0.00     0.000 A 
ATOM     30  C   UNL     1      -6.009  13.594   2.424  1.00  0.00     0.000 A 
ENDBRANCH  24  25
ENDBRANCH  23  24
BRANCH  23  31
ATOM     31  C   UNL     1      -2.789  10.368   5.590  1.00  0.00     0.243 C 
ATOM     32  O   UNL     1      -1.973  11.236   5.889  1.00  0.00    -0.273 OA
ATOM     33  N   UNL     1      -2.523   9.419   4.617  1.00  0.00    -0.341 N 
ATOM     34  H   UNL     1      -3.245   8.725   4.406  1.00  0.00     0.164 HD
BRANCH  33  35
ATOM     35  C   UNL     1      -1.240   9.332   3.914  1.00  0.00     0.194 C 
BRANCH  35  36
ATOM     36  C   UNL     1      -1.277   9.871   2.457  1.00  0.00     0.017 C 
ATOM     37  C   UNL     1      -0.596  11.247   2.352  1.00  0.00     0.010 C 
ATOM     38  C   UNL     1      -2.699  10.020   1.903  1.00  0.00     0.010 C 
ENDBRANCH  35  36
BRANCH  35  39
ATOM     39  C   UNL     1      -0.610   7.913   3.993  1.00  0.00     0.329 C 
ATOM     40  O   UNL     1      -0.599   7.115   3.063  1.00  0.00    -0.250 OA
BRANCH  39  41
ATOM     41  O   UNL     1       0.010   7.685   5.190  1.00  0.00    -0.458 OA
BRANCH  41  42
ATOM     42  C   UNL     1      -0.590   6.678   6.040  1.00  0.00     0.205 CG0
ATOM     43  C   UNL     1      -1.362   7.411   7.136  1.00  0.00     0.056 C 
ATOM     44  G   UNL     1       0.530   5.783   6.607  1.00  0.00     0.000 G0
ENDBRANCH  41  42
ENDBRANCH  39  41
ENDBRANCH  35  39
ENDBRANCH  33  35
ENDBRANCH  23  31
ENDBRANCH  21  23
ENDBRANCH  19  21
ENDBRANCH  14  19
ENDBRANCH   7  14
ENDBRANCH   2   5
BRANCH   3  45
ATOM     45  C   UNL     1      -2.046   3.203   7.820  1.00  0.00     0.171 C 
BRANCH  45  46
ATOM     46  N   UNL     1      -1.242   4.135   7.039  1.00  0.00    -0.342 N 
ATOM     47  C   UNL     1      -0.107   4.724   7.536  1.00  0.00     0.247 C 
ATOM     48  O   UNL     1       0.355   4.455   8.645  1.00  0.00    -0.273 OA
ATOM     49  H   UNL     1      -1.558   4.342   6.093  1.00  0.00     0.164 HD
BRANCH  47  50
ATOM     50  C   UNL     1       0.538   5.771   6.616  1.00  0.00     0.212 CG0
ATOM     51  G   UNL     1      -0.592   6.650   6.044  1.00  0.00     0.000 G0
BRANCH  50  52
ATOM     52  N   UNL     1       1.472   6.510   7.462  1.00  0.00    -0.339 N 
ATOM     53  C   UNL     1       2.834   6.481   7.288  1.00  0.00     0.243 C 
ATOM     54  O   UNL     1       3.378   5.785   6.435  1.00  0.00    -0.273 OA
ATOM     55  H   UNL     1       1.089   7.018   8.257  1.00  0.00     0.164 HD
BRANCH  53  56
ATOM     56  C   UNL     1       3.620   7.270   8.355  1.00  0.00     0.182 C 
BRANCH  56  57
ATOM     57  N   UNL     1       2.808   8.359   8.908  1.00  0.00    -0.344 N 
ATOM     58  C   UNL     1       2.071   8.216  10.058  1.00  0.00     0.220 C 
ATOM     59  O   UNL     1       1.980   7.152  10.660  1.00  0.00    -0.275 OA
ATOM     60  H   UNL     1       2.935   9.281   8.499  1.00  0.00     0.164 HD
BRANCH  58  61
ATOM     61  C   UNL     1       1.357   9.489  10.476  1.00  0.00     0.100 C 
BRANCH  61  62
ATOM     62  C   UNL     1       2.094  10.283  11.554  1.00  0.00     0.010 C 
BRANCH  62  63
ATOM     63  C   UNL     1       3.615  10.083  11.551  1.00  0.00     0.000 C 
BRANCH  63  64
ATOM     64  C   UNL     1       4.177   9.532  12.861  1.00  0.00    -0.003 C 
ATOM     65  C   UNL     1       4.831   8.173  12.657  1.00  0.00     0.004 C 
ENDBRANCH  63  64
ENDBRANCH  62  63
ENDBRANCH  61  62
ENDBRANCH  58  61
ENDBRANCH  56  57
BRANCH  56  66
ATOM     66  C   UNL     1       4.958   7.766   7.811  1.00  0.00     0.157 C 
BRANCH  66  67
ATOM     67  C   UNL     1       4.844   9.167   7.283  1.00  0.00     0.305 C 
ATOM     68  O   UNL     1       5.227  10.190   7.830  1.00  0.00    -0.252 OA
BRANCH  67  69
ATOM     69  O   UNL     1       4.295   9.207   6.054  1.00  0.00    -0.481 OA
ATOM     70  H   UNL     1       3.986   8.292   5.888  1.00  0.00     0.296 HD
ENDBRANCH  67  69
ENDBRANCH  66  67
ENDBRANCH  56  66
ENDBRANCH  53  56
ENDBRANCH  50  52
ENDBRANCH  47  50
ENDBRANCH  45  46
BRANCH  45  71
ATOM     71  C   UNL     1      -2.164   1.841   7.128  1.00  0.00     0.037 C 
BRANCH  71  72
ATOM     72  C   UNL     1      -2.843   0.799   8.021  1.00  0.00     0.026 C 
BRANCH  72  73
ATOM     73  C   UNL     1      -2.277   0.822   9.439  1.00  0.00     0.146 C 
BRANCH  73  74
ATOM     74  N   UNL     1      -3.398   0.948  10.366  1.00  0.00    -0.254 NA
ATOM     75  C   UNL     1      -3.146   1.332  11.562  1.00  0.00     0.185 C 
ATOM     76  N   UNL     1      -4.157   1.458  12.437  1.00  0.00    -0.370 N 
ATOM     77  N   UNL     1      -1.963   1.649  12.116  1.00  0.00    -0.370 N 
ATOM     78  H   UNL     1      -5.082   1.232  12.103  1.00  0.00     0.159 HD
ATOM     79  H   UNL     1      -4.021   1.612  13.421  1.00  0.00     0.159 HD
ATOM     80  H   UNL     1      -1.113   1.604  11.574  1.00  0.00     0.159 HD
ATOM     81  H   UNL     1      -1.902   2.051  13.037  1.00  0.00     0.159 HD
ENDBRANCH  73  74
ENDBRANCH  72  73
ENDBRANCH  71  72
ENDBRANCH  45  71
ENDBRANCH   3  45
TORSDOF 20
ENDMDL
MODEL 48
REMARK VINA RESULT:    -4.285      2.652      5.409
REMARK INTER + INTRA:         -18.944
REMARK INTER:                 -13.402
REMARK INTRA:                  -5.542
REMARK UNBOUND:                -6.644
REMARK SMILES CCCCCC(=O)N[C@H](CC(=O)O)C(=O)N[C@H]1C(=O)N[C@H](CCCN=C(N)N)C(=O)N[C@@H]2CC[C@H](O)N(C2=O)[C@@H](CC(C)C)C(=O)N(C)[C@@H](Cc2ccccc2)C(=O)N[C@H](C(C)C)C(=O)O[C@@H]1C
REMARK SMILES IDX 30 1 31 2 29 3 32 5 35 6 37 7 34 8 38 9 33 10 39 11 36 12
REMARK SMILES IDX 40 14 41 15 42 16 43 17 44 18 45 19 46 20 47 21 48 22 49 23
REMARK SMILES IDX 50 24 51 25 52 26 56 27 53 28 55 29 54 30 57 31 58 32 59 33
REMARK SMILES IDX 60 35 61 36 62 37 63 38 64 39 65 40 66 41 67 42 68 43 21 45
REMARK SMILES IDX 20 46 18 47 19 48 17 50 16 52 14 53 15 54 9 56 8 57 6 58
REMARK SMILES IDX 7 59 5 61 4 62 3 63 2 64 1 65 10 66 11 67 12 68 13 69 22 71
REMARK SMILES IDX 23 72 24 73 25 74 26 75 27 76 28 77
REMARK H PARENT 31 4 36 13 59 34 20 49 16 55 8 60 13 70 27 78 27 79 28 80
REMARK H PARENT 28 81
REMARK Flexibility Score:  259.900
ROOT
ATOM      1  O   UNL     1      -3.640   7.278  10.871  1.00  0.00    -0.273 OA
ATOM      2  N   UNL     1      -2.925   9.324  10.140  1.00  0.00    -0.343 N 
ATOM      3  C   UNL     1      -3.886   8.351  10.320  1.00  0.00     0.243 C 
ATOM      4  H   UNL     1      -3.167  10.201   9.695  1.00  0.00     0.164 HD
ENDROOT
BRANCH   2   5
ATOM      5  C   UNL     1      -1.534   9.068  10.495  1.00  0.00     0.171 C 
ATOM      6  C   UNL     1       0.765  10.806  10.809  1.00  0.00     0.214 C 
ATOM      7  N   UNL     1       0.498  10.207   9.522  1.00  0.00    -0.303 N 
ATOM      8  C   UNL     1       0.293   9.955  11.978  1.00  0.00     0.057 C 
ATOM      9  C   UNL     1      -0.611   9.409   9.290  1.00  0.00     0.247 C 
ATOM     10  C   UNL     1      -1.191   9.686  11.849  1.00  0.00     0.040 C 
ATOM     11  O   UNL     1      -0.880   8.971   8.164  1.00  0.00    -0.272 OA
BRANCH   6  12
ATOM     12  O   UNL     1       0.141  12.068  10.835  1.00  0.00    -0.373 OA
ATOM     13  H   UNL     1      -0.131  12.274   9.915  1.00  0.00     0.213 HD
ENDBRANCH   6  12
BRANCH   7  14
ATOM     14  C   UNL     1       1.381  10.600   8.404  1.00  0.00     0.177 C 
BRANCH  14  15
ATOM     15  C   UNL     1       1.453  12.114   8.125  1.00  0.00     0.038 C 
BRANCH  15  16
ATOM     16  C   UNL     1       2.831  12.793   7.964  1.00  0.00    -0.015 C 
ATOM     17  C   UNL     1       3.122  13.797   9.084  1.00  0.00     0.007 C 
ATOM     18  C   UNL     1       2.889  13.539   6.625  1.00  0.00     0.007 C 
ENDBRANCH  15  16
ENDBRANCH  14  15
BRANCH  14  19
ATOM     19  C   UNL     1       2.579   9.597   8.279  1.00  0.00     0.245 C 
ATOM     20  O   UNL     1       3.036   9.410   7.139  1.00  0.00    -0.272 OA
BRANCH  19  21
ATOM     21  N   UNL     1       3.066   8.843   9.332  1.00  0.00    -0.332 N 
ATOM     22  C   UNL     1       2.559   7.547   9.747  1.00  0.00     0.147 C 
BRANCH  21  23
ATOM     23  C   UNL     1       4.199   9.401  10.122  1.00  0.00     0.178 C 
BRANCH  23  24
ATOM     24  C   UNL     1       4.584   8.577  11.368  1.00  0.00     0.070 C 
BRANCH  24  25
ATOM     25  C   UNL     1       4.218   9.154  12.715  1.00  0.00    -0.045 A 
ATOM     26  C   UNL     1       4.748  10.379  13.139  1.00  0.00     0.004 A 
ATOM     27  C   UNL     1       3.342   8.463  13.566  1.00  0.00     0.004 A 
ATOM     28  C   UNL     1       4.418  10.897  14.393  1.00  0.00     0.000 A 
ATOM     29  C   UNL     1       3.013   8.983  14.819  1.00  0.00     0.000 A 
ATOM     30  C   UNL     1       3.553  10.198  15.233  1.00  0.00     0.000 A 
ENDBRANCH  24  25
ENDBRANCH  23  24
BRANCH  23  31
ATOM     31  C   UNL     1       5.390   9.844   9.240  1.00  0.00     0.243 C 
ATOM     32  O   UNL     1       5.580  11.001   8.874  1.00  0.00    -0.273 OA
ATOM     33  N   UNL     1       6.130   8.787   8.738  1.00  0.00    -0.341 N 
ATOM     34  H   UNL     1       5.920   7.845   9.075  1.00  0.00     0.164 HD
BRANCH  33  35
ATOM     35  C   UNL     1       7.230   8.963   7.786  1.00  0.00     0.194 C 
BRANCH  35  36
ATOM     36  C   UNL     1       7.126   8.064   6.522  1.00  0.00     0.017 C 
ATOM     37  C   UNL     1       7.235   8.896   5.232  1.00  0.00     0.010 C 
ATOM     38  C   UNL     1       5.813   7.274   6.448  1.00  0.00     0.010 C 
ENDBRANCH  35  36
BRANCH  35  39
ATOM     39  C   UNL     1       8.626   8.858   8.460  1.00  0.00     0.329 C 
ATOM     40  O   UNL     1       8.867   8.155   9.433  1.00  0.00    -0.250 OA
BRANCH  39  41
ATOM     41  O   UNL     1       9.581   9.573   7.791  1.00  0.00    -0.458 OA
BRANCH  41  42
ATOM     42  C   UNL     1      10.902   8.983   7.735  1.00  0.00     0.205 CG0
ATOM     43  C   UNL     1      11.785   9.750   8.717  1.00  0.00     0.056 C 
ATOM     44  G   UNL     1      11.419   9.071   6.285  1.00  0.00     0.000 G0
ENDBRANCH  41  42
ENDBRANCH  39  41
ENDBRANCH  35  39
ENDBRANCH  33  35
ENDBRANCH  23  31
ENDBRANCH  21  23
ENDBRANCH  19  21
ENDBRANCH  14  19
ENDBRANCH   7  14
ENDBRANCH   2   5
BRANCH   3  45
ATOM     45  C   UNL     1      -5.286   8.708   9.804  1.00  0.00     0.171 C 
BRANCH  45  46
ATOM     46  N   UNL     1      -6.070   7.485   9.915  1.00  0.00    -0.342 N 
ATOM     47  C   UNL     1      -7.205   7.405  10.682  1.00  0.00     0.247 C 
ATOM     48  O   UNL     1      -7.684   8.375  11.271  1.00  0.00    -0.273 OA
ATOM     49  H   UNL     1      -5.740   6.672   9.398  1.00  0.00     0.164 HD
BRANCH  47  50
ATOM     50  C   UNL     1      -7.827   6.005  10.778  1.00  0.00     0.212 CG0
ATOM     51  G   UNL     1      -8.762   5.825   9.565  1.00  0.00     0.000 G0
BRANCH  50  52
ATOM     52  N   UNL     1      -6.700   5.076  10.780  1.00  0.00    -0.339 N 
ATOM     53  C   UNL     1      -6.067   4.659  11.926  1.00  0.00     0.243 C 
ATOM     54  O   UNL     1      -6.370   5.078  13.039  1.00  0.00    -0.273 OA
ATOM     55  H   UNL     1      -6.330   4.779   9.879  1.00  0.00     0.164 HD
BRANCH  53  56
ATOM     56  C   UNL     1      -4.849   3.748  11.673  1.00  0.00     0.182 C 
BRANCH  56  57
ATOM     57  N   UNL     1      -4.019   4.268  10.582  1.00  0.00    -0.344 N 
ATOM     58  C   UNL     1      -4.297   4.016   9.261  1.00  0.00     0.220 C 
ATOM     59  O   UNL     1      -5.212   3.281   8.904  1.00  0.00    -0.275 OA
ATOM     60  H   UNL     1      -3.317   4.961  10.828  1.00  0.00     0.164 HD
BRANCH  58  61
ATOM     61  C   UNL     1      -3.341   4.703   8.303  1.00  0.00     0.100 C 
BRANCH  61  62
ATOM     62  C   UNL     1      -2.068   3.904   8.025  1.00  0.00     0.010 C 
BRANCH  62  63
ATOM     63  C   UNL     1      -1.985   3.328   6.606  1.00  0.00     0.000 C 
BRANCH  63  64
ATOM     64  C   UNL     1      -3.177   3.680   5.717  1.00  0.00    -0.003 C 
ATOM     65  C   UNL     1      -4.106   2.489   5.536  1.00  0.00     0.004 C 
ENDBRANCH  63  64
ENDBRANCH  62  63
ENDBRANCH  61  62
ENDBRANCH  58  61
ENDBRANCH  56  57
BRANCH  56  66
ATOM     66  C   UNL     1      -5.273   2.299  11.434  1.00  0.00     0.157 C 
BRANCH  66  67
ATOM     67  C   UNL     1      -4.169   1.344  11.789  1.00  0.00     0.305 C 
ATOM     68  O   UNL     1      -3.952   0.255  11.281  1.00  0.00    -0.252 OA
BRANCH  67  69
ATOM     69  O   UNL     1      -3.353   1.836  12.740  1.00  0.00    -0.481 OA
ATOM     70  H   UNL     1      -3.167   2.757  12.458  1.00  0.00     0.296 HD
ENDBRANCH  67  69
ENDBRANCH  66  67
ENDBRANCH  56  66
ENDBRANCH  53  56
ENDBRANCH  50  52
ENDBRANCH  47  50
ENDBRANCH  45  46
BRANCH  45  71
ATOM     71  C   UNL     1      -5.212   9.203   8.356  1.00  0.00     0.037 C 
BRANCH  71  72
ATOM     72  C   UNL     1      -4.880   8.073   7.378  1.00  0.00     0.026 C 
BRANCH  72  73
ATOM     73  C   UNL     1      -3.938   8.547   6.273  1.00  0.00     0.146 C 
BRANCH  73  74
ATOM     74  N   UNL     1      -3.184   7.389   5.801  1.00  0.00    -0.254 NA
ATOM     75  C   UNL     1      -2.020   7.594   5.306  1.00  0.00     0.185 C 
ATOM     76  N   UNL     1      -1.301   6.549   4.865  1.00  0.00    -0.370 N 
ATOM     77  N   UNL     1      -1.361   8.756   5.148  1.00  0.00    -0.370 N 
ATOM     78  H   UNL     1      -1.727   5.637   4.940  1.00  0.00     0.159 HD
ATOM     79  H   UNL     1      -0.451   6.645   4.338  1.00  0.00     0.159 HD
ATOM     80  H   UNL     1      -1.779   9.627   5.440  1.00  0.00     0.159 HD
ATOM     81  H   UNL     1      -0.399   8.782   4.852  1.00  0.00     0.159 HD
ENDBRANCH  73  74
ENDBRANCH  72  73
ENDBRANCH  71  72
ENDBRANCH  45  71
ENDBRANCH   3  45
TORSDOF 20
ENDMDL
MODEL 49
REMARK VINA RESULT:    -4.284     11.492     14.632
REMARK INTER + INTRA:         -18.941
REMARK INTER:                 -13.137
REMARK INTRA:                  -5.804
REMARK UNBOUND:                -6.644
REMARK SMILES CCCCCC(=O)N[C@H](CC(=O)O)C(=O)N[C@H]1C(=O)N[C@H](CCCN=C(N)N)C(=O)N[C@@H]2CC[C@H](O)N(C2=O)[C@@H](CC(C)C)C(=O)N(C)[C@@H](Cc2ccccc2)C(=O)N[C@H](C(C)C)C(=O)O[C@@H]1C
REMARK SMILES IDX 30 1 31 2 29 3 32 5 35 6 37 7 34 8 38 9 33 10 39 11 36 12
REMARK SMILES IDX 40 14 41 15 42 16 43 17 44 18 45 19 46 20 47 21 48 22 49 23
REMARK SMILES IDX 50 24 51 25 52 26 56 27 53 28 55 29 54 30 57 31 58 32 59 33
REMARK SMILES IDX 60 35 61 36 62 37 63 38 64 39 65 40 66 41 67 42 68 43 21 45
REMARK SMILES IDX 20 46 18 47 19 48 17 50 16 52 14 53 15 54 9 56 8 57 6 58
REMARK SMILES IDX 7 59 5 61 4 62 3 63 2 64 1 65 10 66 11 67 12 68 13 69 22 71
REMARK SMILES IDX 23 72 24 73 25 74 26 75 27 76 28 77
REMARK H PARENT 31 4 36 13 59 34 20 49 16 55 8 60 13 70 27 78 27 79 28 80
REMARK H PARENT 28 81
REMARK Flexibility Score:  259.900
ROOT
ATOM      1  O   UNL     1      -4.839   4.542  -5.886  1.00  0.00    -0.273 OA
ATOM      2  N   UNL     1      -6.965   5.383  -5.825  1.00  0.00    -0.343 N 
ATOM      3  C   UNL     1      -5.982   4.500  -5.431  1.00  0.00     0.243 C 
ATOM      4  H   UNL     1      -7.890   5.328  -5.418  1.00  0.00     0.164 HD
ENDROOT
BRANCH   2   5
ATOM      5  C   UNL     1      -6.717   6.340  -6.898  1.00  0.00     0.171 C 
ATOM      6  C   UNL     1      -4.352   6.985  -8.445  1.00  0.00     0.214 C 
ATOM      7  N   UNL     1      -4.626   7.715  -7.229  1.00  0.00    -0.303 N 
ATOM      8  C   UNL     1      -5.608   6.496  -9.149  1.00  0.00     0.057 C 
ATOM      9  C   UNL     1      -5.709   7.423  -6.416  1.00  0.00     0.247 C 
ATOM     10  C   UNL     1      -6.413   5.622  -8.212  1.00  0.00     0.040 C 
ATOM     11  O   UNL     1      -5.889   7.993  -5.332  1.00  0.00    -0.272 OA
BRANCH   6  12
ATOM     12  O   UNL     1      -3.516   5.900  -8.118  1.00  0.00    -0.373 OA
ATOM     13  H   UNL     1      -3.653   5.214  -8.806  1.00  0.00     0.213 HD
ENDBRANCH   6  12
BRANCH   7  14
ATOM     14  C   UNL     1      -3.614   8.702  -6.797  1.00  0.00     0.177 C 
BRANCH  14  15
ATOM     15  C   UNL     1      -2.153   8.324  -7.109  1.00  0.00     0.038 C 
BRANCH  15  16
ATOM     16  C   UNL     1      -1.044   9.389  -6.965  1.00  0.00    -0.015 C 
ATOM     17  C   UNL     1      -0.138   9.460  -8.198  1.00  0.00     0.007 C 
ATOM     18  C   UNL     1      -0.171   9.067  -5.745  1.00  0.00     0.007 C 
ENDBRANCH  15  16
ENDBRANCH  14  15
BRANCH  14  19
ATOM     19  C   UNL     1      -4.208  10.151  -6.857  1.00  0.00     0.245 C 
ATOM     20  O   UNL     1      -4.354  10.650  -7.986  1.00  0.00    -0.272 OA
BRANCH  19  21
ATOM     21  N   UNL     1      -4.466  10.926  -5.740  1.00  0.00    -0.332 N 
ATOM     22  C   UNL     1      -5.669  11.707  -5.515  1.00  0.00     0.147 C 
BRANCH  21  23
ATOM     23  C   UNL     1      -3.425  10.981  -4.676  1.00  0.00     0.178 C 
BRANCH  23  24
ATOM     24  C   UNL     1      -2.835  12.383  -4.422  1.00  0.00     0.070 C 
BRANCH  24  25
ATOM     25  C   UNL     1      -1.778  12.870  -5.386  1.00  0.00    -0.045 A 
ATOM     26  C   UNL     1      -0.418  12.663  -5.124  1.00  0.00     0.004 A 
ATOM     27  C   UNL     1      -2.147  13.543  -6.561  1.00  0.00     0.004 A 
ATOM     28  C   UNL     1       0.554  13.131  -6.012  1.00  0.00     0.000 A 
ATOM     29  C   UNL     1      -1.175  14.009  -7.447  1.00  0.00     0.000 A 
ATOM     30  C   UNL     1       0.175  13.805  -7.170  1.00  0.00     0.000 A 
ENDBRANCH  24  25
ENDBRANCH  23  24
BRANCH  23  31
ATOM     31  C   UNL     1      -3.824  10.201  -3.401  1.00  0.00     0.243 C 
ATOM     32  O   UNL     1      -4.563  10.647  -2.526  1.00  0.00    -0.273 OA
ATOM     33  N   UNL     1      -3.125   9.018  -3.235  1.00  0.00    -0.341 N 
ATOM     34  H   UNL     1      -2.520   8.701  -3.996  1.00  0.00     0.164 HD
BRANCH  33  35
ATOM     35  C   UNL     1      -3.252   8.175  -2.042  1.00  0.00     0.194 C 
BRANCH  35  36
ATOM     36  C   UNL     1      -1.917   7.953  -1.276  1.00  0.00     0.017 C 
ATOM     37  C   UNL     1      -0.723   8.531  -2.056  1.00  0.00     0.010 C 
ATOM     38  C   UNL     1      -1.616   6.474  -1.004  1.00  0.00     0.010 C 
ENDBRANCH  35  36
BRANCH  35  39
ATOM     39  C   UNL     1      -3.985   6.836  -2.332  1.00  0.00     0.329 C 
ATOM     40  O   UNL     1      -3.742   6.115  -3.293  1.00  0.00    -0.250 OA
BRANCH  39  41
ATOM     41  O   UNL     1      -4.873   6.505  -1.346  1.00  0.00    -0.458 OA
BRANCH  41  42
ATOM     42  C   UNL     1      -6.265   6.805  -1.610  1.00  0.00     0.205 CG0
ATOM     43  C   UNL     1      -6.626   8.041  -0.789  1.00  0.00     0.056 C 
ATOM     44  G   UNL     1      -7.114   5.576  -1.230  1.00  0.00     0.000 G0
ENDBRANCH  41  42
ENDBRANCH  39  41
ENDBRANCH  35  39
ENDBRANCH  33  35
ENDBRANCH  23  31
ENDBRANCH  21  23
ENDBRANCH  19  21
ENDBRANCH  14  19
ENDBRANCH   7  14
ENDBRANCH   2   5
BRANCH   3  45
ATOM     45  C   UNL     1      -6.407   3.475  -4.371  1.00  0.00     0.171 C 
BRANCH  45  46
ATOM     46  N   UNL     1      -6.326   4.173  -3.094  1.00  0.00    -0.342 N 
ATOM     47  C   UNL     1      -7.412   4.781  -2.517  1.00  0.00     0.247 C 
ATOM     48  O   UNL     1      -8.545   4.720  -2.997  1.00  0.00    -0.273 OA
ATOM     49  H   UNL     1      -5.417   4.199  -2.634  1.00  0.00     0.164 HD
BRANCH  47  50
ATOM     50  C   UNL     1      -7.111   5.573  -1.237  1.00  0.00     0.212 CG0
ATOM     51  G   UNL     1      -6.261   6.796  -1.633  1.00  0.00     0.000 G0
BRANCH  50  52
ATOM     52  N   UNL     1      -8.414   5.930  -0.684  1.00  0.00    -0.339 N 
ATOM     53  C   UNL     1      -8.924   5.378   0.466  1.00  0.00     0.243 C 
ATOM     54  O   UNL     1      -8.341   4.497   1.092  1.00  0.00    -0.273 OA
ATOM     55  H   UNL     1      -8.994   6.574  -1.218  1.00  0.00     0.164 HD
BRANCH  53  56
ATOM     56  C   UNL     1     -10.353   5.846   0.807  1.00  0.00     0.182 C 
BRANCH  56  57
ATOM     57  N   UNL     1     -10.330   7.108   1.553  1.00  0.00    -0.344 N 
ATOM     58  C   UNL     1     -11.303   8.067   1.409  1.00  0.00     0.220 C 
ATOM     59  O   UNL     1     -12.216   7.968   0.596  1.00  0.00    -0.275 OA
ATOM     60  H   UNL     1      -9.652   7.185   2.306  1.00  0.00     0.164 HD
BRANCH  58  61
ATOM     61  C   UNL     1     -11.109   9.263   2.322  1.00  0.00     0.100 C 
BRANCH  61  62
ATOM     62  C   UNL     1     -12.407   9.997   2.660  1.00  0.00     0.010 C 
BRANCH  62  63
ATOM     63  C   UNL     1     -13.594   9.070   2.950  1.00  0.00     0.000 C 
BRANCH  63  64
ATOM     64  C   UNL     1     -13.504   8.335   4.287  1.00  0.00    -0.003 C 
ATOM     65  C   UNL     1     -14.104   6.939   4.195  1.00  0.00     0.004 C 
ENDBRANCH  63  64
ENDBRANCH  62  63
ENDBRANCH  61  62
ENDBRANCH  58  61
ENDBRANCH  56  57
BRANCH  56  66
ATOM     66  C   UNL     1     -11.140   4.759   1.537  1.00  0.00     0.157 C 
BRANCH  66  67
ATOM     67  C   UNL     1     -12.308   4.290   0.718  1.00  0.00     0.305 C 
ATOM     68  O   UNL     1     -13.399   4.830   0.621  1.00  0.00    -0.252 OA
BRANCH  67  69
ATOM     69  O   UNL     1     -12.024   3.179   0.011  1.00  0.00    -0.481 OA
ATOM     70  H   UNL     1     -12.898   2.821  -0.253  1.00  0.00     0.296 HD
ENDBRANCH  67  69
ENDBRANCH  66  67
ENDBRANCH  56  66
ENDBRANCH  53  56
ENDBRANCH  50  52
ENDBRANCH  47  50
ENDBRANCH  45  46
BRANCH  45  71
ATOM     71  C   UNL     1      -5.481   2.254  -4.407  1.00  0.00     0.037 C 
BRANCH  71  72
ATOM     72  C   UNL     1      -6.166   1.030  -5.020  1.00  0.00     0.026 C 
BRANCH  72  73
ATOM     73  C   UNL     1      -7.469   1.410  -5.721  1.00  0.00     0.146 C 
BRANCH  73  74
ATOM     74  N   UNL     1      -8.547   0.641  -5.106  1.00  0.00    -0.254 NA
ATOM     75  C   UNL     1      -9.583   1.279  -4.704  1.00  0.00     0.185 C 
ATOM     76  N   UNL     1     -10.592   0.599  -4.135  1.00  0.00    -0.370 N 
ATOM     77  N   UNL     1      -9.840   2.597  -4.763  1.00  0.00    -0.370 N 
ATOM     78  H   UNL     1     -10.477  -0.400  -4.045  1.00  0.00     0.159 HD
ATOM     79  H   UNL     1     -11.365   1.042  -3.669  1.00  0.00     0.159 HD
ATOM     80  H   UNL     1      -9.171   3.233  -5.170  1.00  0.00     0.159 HD
ATOM     81  H   UNL     1     -10.742   2.971  -4.519  1.00  0.00     0.159 HD
ENDBRANCH  73  74
ENDBRANCH  72  73
ENDBRANCH  71  72
ENDBRANCH  45  71
ENDBRANCH   3  45
TORSDOF 20
ENDMDL
MODEL 50
REMARK VINA RESULT:    -4.122      4.367      7.901
REMARK INTER + INTRA:         -18.476
REMARK INTER:                 -11.948
REMARK INTRA:                  -6.528
REMARK UNBOUND:                -6.644
REMARK SMILES CCCCCC(=O)N[C@H](CC(=O)O)C(=O)N[C@H]1C(=O)N[C@H](CCCN=C(N)N)C(=O)N[C@@H]2CC[C@H](O)N(C2=O)[C@@H](CC(C)C)C(=O)N(C)[C@@H](Cc2ccccc2)C(=O)N[C@H](C(C)C)C(=O)O[C@@H]1C
REMARK SMILES IDX 30 1 31 2 29 3 32 5 35 6 37 7 34 8 38 9 33 10 39 11 36 12
REMARK SMILES IDX 40 14 41 15 42 16 43 17 44 18 45 19 46 20 47 21 48 22 49 23
REMARK SMILES IDX 50 24 51 25 52 26 56 27 53 28 55 29 54 30 57 31 58 32 59 33
REMARK SMILES IDX 60 35 61 36 62 37 63 38 64 39 65 40 66 41 67 42 68 43 21 45
REMARK SMILES IDX 20 46 18 47 19 48 17 50 16 52 14 53 15 54 9 56 8 57 6 58
REMARK SMILES IDX 7 59 5 61 4 62 3 63 2 64 1 65 10 66 11 67 12 68 13 69 22 71
REMARK SMILES IDX 23 72 24 73 25 74 26 75 27 76 28 77
REMARK H PARENT 31 4 36 13 59 34 20 49 16 55 8 60 13 70 27 78 27 79 28 80
REMARK H PARENT 28 81
REMARK Flexibility Score:  259.900
ROOT
ATOM      1  O   UNL     1      -0.575   9.388  12.770  1.00  0.00    -0.273 OA
ATOM      2  N   UNL     1       1.264  10.112  13.921  1.00  0.00    -0.343 N 
ATOM      3  C   UNL     1      -0.085  10.114  13.635  1.00  0.00     0.243 C 
ATOM      4  H   UNL     1       1.629  10.712  14.650  1.00  0.00     0.164 HD
ENDROOT
BRANCH   2   5
ATOM      5  C   UNL     1       2.192   9.325  13.116  1.00  0.00     0.171 C 
ATOM      6  C   UNL     1       5.081   9.345  12.870  1.00  0.00     0.214 C 
ATOM      7  N   UNL     1       4.287  10.169  11.988  1.00  0.00    -0.303 N 
ATOM      8  C   UNL     1       4.367   8.078  13.314  1.00  0.00     0.057 C 
ATOM      9  C   UNL     1       2.907  10.246  12.086  1.00  0.00     0.247 C 
ATOM     10  C   UNL     1       3.066   8.437  14.000  1.00  0.00     0.040 C 
ATOM     11  O   UNL     1       2.242  11.019  11.385  1.00  0.00    -0.272 OA
BRANCH   6  12
ATOM     12  O   UNL     1       5.437  10.127  13.986  1.00  0.00    -0.373 OA
ATOM     13  H   UNL     1       5.619   9.508  14.725  1.00  0.00     0.213 HD
ENDBRANCH   6  12
BRANCH   7  14
ATOM     14  C   UNL     1       5.019  11.055  11.058  1.00  0.00     0.177 C 
BRANCH  14  15
ATOM     15  C   UNL     1       4.890  12.562  11.349  1.00  0.00     0.038 C 
BRANCH  15  16
ATOM     16  C   UNL     1       5.405  13.125  12.692  1.00  0.00    -0.015 C 
ATOM     17  C   UNL     1       4.266  13.466  13.658  1.00  0.00     0.007 C 
ATOM     18  C   UNL     1       6.220  14.400  12.442  1.00  0.00     0.007 C 
ENDBRANCH  15  16
ENDBRANCH  14  15
BRANCH  14  19
ATOM     19  C   UNL     1       6.311  10.340  10.531  1.00  0.00     0.245 C 
ATOM     20  O   UNL     1       7.249  10.216  11.336  1.00  0.00    -0.272 OA
BRANCH  19  21
ATOM     21  N   UNL     1       6.496   9.953   9.216  1.00  0.00    -0.332 N 
ATOM     22  C   UNL     1       6.367  10.818   8.057  1.00  0.00     0.147 C 
BRANCH  21  23
ATOM     23  C   UNL     1       6.846   8.530   8.952  1.00  0.00     0.178 C 
BRANCH  23  24
ATOM     24  C   UNL     1       5.829   7.766   8.081  1.00  0.00     0.070 C 
BRANCH  24  25
ATOM     25  C   UNL     1       4.392   7.755   8.549  1.00  0.00    -0.045 A 
ATOM     26  C   UNL     1       3.393   8.408   7.816  1.00  0.00     0.004 A 
ATOM     27  C   UNL     1       4.039   7.091   9.733  1.00  0.00     0.004 A 
ATOM     28  C   UNL     1       2.071   8.408   8.265  1.00  0.00     0.000 A 
ATOM     29  C   UNL     1       2.717   7.090  10.180  1.00  0.00     0.000 A 
ATOM     30  C   UNL     1       1.734   7.752   9.446  1.00  0.00     0.000 A 
ENDBRANCH  24  25
ENDBRANCH  23  24
BRANCH  23  31
ATOM     31  C   UNL     1       8.327   8.338   8.545  1.00  0.00     0.243 C 
ATOM     32  O   UNL     1       9.272   8.440   9.323  1.00  0.00    -0.273 OA
ATOM     33  N   UNL     1       8.514   8.222   7.178  1.00  0.00    -0.341 N 
ATOM     34  H   UNL     1       7.688   8.148   6.580  1.00  0.00     0.164 HD
BRANCH  33  35
ATOM     35  C   UNL     1       9.839   8.151   6.557  1.00  0.00     0.194 C 
BRANCH  35  36
ATOM     36  C   UNL     1      10.370   9.515   6.035  1.00  0.00     0.017 C 
ATOM     37  C   UNL     1      11.348  10.155   7.035  1.00  0.00     0.010 C 
ATOM     38  C   UNL     1       9.256  10.535   5.767  1.00  0.00     0.010 C 
ENDBRANCH  35  36
BRANCH  35  39
ATOM     39  C   UNL     1       9.933   7.039   5.475  1.00  0.00     0.329 C 
ATOM     40  O   UNL     1       9.134   6.907   4.555  1.00  0.00    -0.250 OA
BRANCH  39  41
ATOM     41  O   UNL     1      11.058   6.274   5.611  1.00  0.00    -0.458 OA
BRANCH  41  42
ATOM     42  C   UNL     1      12.045   6.392   4.559  1.00  0.00     0.205 CG0
ATOM     43  C   UNL     1      13.294   7.019   5.176  1.00  0.00     0.056 C 
ATOM     44  G   UNL     1      11.454   7.252   3.424  1.00  0.00     0.000 G0
ENDBRANCH  41  42
ENDBRANCH  39  41
ENDBRANCH  35  39
ENDBRANCH  33  35
ENDBRANCH  23  31
ENDBRANCH  21  23
ENDBRANCH  19  21
ENDBRANCH  14  19
ENDBRANCH   7  14
ENDBRANCH   2   5
BRANCH   3  45
ATOM     45  C   UNL     1      -0.935  11.067  14.485  1.00  0.00     0.171 C 
BRANCH  45  46
ATOM     46  N   UNL     1      -2.234  10.420  14.622  1.00  0.00    -0.342 N 
ATOM     47  C   UNL     1      -2.955  10.456  15.789  1.00  0.00     0.247 C 
ATOM     48  O   UNL     1      -2.595  11.096  16.778  1.00  0.00    -0.273 OA
ATOM     49  H   UNL     1      -2.596   9.926  13.808  1.00  0.00     0.164 HD
BRANCH  47  50
ATOM     50  C   UNL     1      -4.240   9.615  15.785  1.00  0.00     0.212 CG0
ATOM     51  G   UNL     1      -5.431  10.581  15.939  1.00  0.00     0.000 G0
BRANCH  50  52
ATOM     52  N   UNL     1      -4.235   8.903  14.510  1.00  0.00    -0.339 N 
ATOM     53  C   UNL     1      -5.161   7.944  14.177  1.00  0.00     0.243 C 
ATOM     54  O   UNL     1      -6.037   7.572  14.953  1.00  0.00    -0.273 OA
ATOM     55  H   UNL     1      -3.467   9.087  13.868  1.00  0.00     0.164 HD
BRANCH  53  56
ATOM     56  C   UNL     1      -4.903   7.269  12.815  1.00  0.00     0.182 C 
BRANCH  56  57
ATOM     57  N   UNL     1      -5.479   8.057  11.720  1.00  0.00    -0.344 N 
ATOM     58  C   UNL     1      -4.764   9.019  11.050  1.00  0.00     0.220 C 
ATOM     59  O   UNL     1      -3.623   9.339  11.367  1.00  0.00    -0.275 OA
ATOM     60  H   UNL     1      -6.381   7.755  11.361  1.00  0.00     0.164 HD
BRANCH  58  61
ATOM     61  C   UNL     1      -5.539   9.666   9.917  1.00  0.00     0.100 C 
BRANCH  61  62
ATOM     62  C   UNL     1      -5.251   9.055   8.546  1.00  0.00     0.010 C 
BRANCH  62  63
ATOM     63  C   UNL     1      -6.488   8.485   7.840  1.00  0.00     0.000 C 
BRANCH  63  64
ATOM     64  C   UNL     1      -7.468   7.773   8.771  1.00  0.00    -0.003 C 
ATOM     65  C   UNL     1      -7.654   6.316   8.372  1.00  0.00     0.004 C 
ENDBRANCH  63  64
ENDBRANCH  62  63
ENDBRANCH  61  62
ENDBRANCH  58  61
ENDBRANCH  56  57
BRANCH  56  66
ATOM     66  C   UNL     1      -5.393   5.822  12.804  1.00  0.00     0.157 C 
BRANCH  66  67
ATOM     67  C   UNL     1      -4.802   5.056  11.657  1.00  0.00     0.305 C 
ATOM     68  O   UNL     1      -4.776   5.397  10.484  1.00  0.00    -0.252 OA
BRANCH  67  69
ATOM     69  O   UNL     1      -4.220   3.908  12.053  1.00  0.00    -0.481 OA
ATOM     70  H   UNL     1      -4.965   3.293  12.216  1.00  0.00     0.296 HD
ENDBRANCH  67  69
ENDBRANCH  66  67
ENDBRANCH  56  66
ENDBRANCH  53  56
ENDBRANCH  50  52
ENDBRANCH  47  50
ENDBRANCH  45  46
BRANCH  45  71
ATOM     71  C   UNL     1      -1.053  12.432  13.800  1.00  0.00     0.037 C 
BRANCH  71  72
ATOM     72  C   UNL     1      -2.313  12.537  12.937  1.00  0.00     0.026 C 
BRANCH  72  73
ATOM     73  C   UNL     1      -2.016  13.187  11.587  1.00  0.00     0.146 C 
BRANCH  73  74
ATOM     74  N   UNL     1      -0.872  12.495  11.001  1.00  0.00    -0.254 NA
ATOM     75  C   UNL     1      -1.099  11.645  10.069  1.00  0.00     0.185 C 
ATOM     76  N   UNL     1      -0.067  10.993   9.509  1.00  0.00    -0.370 N 
ATOM     77  N   UNL     1      -2.274  11.278   9.528  1.00  0.00    -0.370 N 
ATOM     78  H   UNL     1       0.854  11.205   9.864  1.00  0.00     0.159 HD
ATOM     79  H   UNL     1      -0.178  10.216   8.882  1.00  0.00     0.159 HD
ATOM     80  H   UNL     1      -3.138  11.689   9.849  1.00  0.00     0.159 HD
ATOM     81  H   UNL     1      -2.320  10.682   8.718  1.00  0.00     0.159 HD
ENDBRANCH  73  74
ENDBRANCH  72  73
ENDBRANCH  71  72
ENDBRANCH  45  71
ENDBRANCH   3  45
TORSDOF 20
ENDMDL
