MODEL 1
REMARK VINA RESULT:    -5.949      0.000      0.000
REMARK INTER + INTRA:         -22.154
REMARK INTER:                 -17.078
REMARK INTRA:                  -5.076
REMARK UNBOUND:                -5.076
REMARK SMILES CCCCCC(=O)N[C@H](CC(=O)O)C(=O)N[C@H]1C(=O)N[C@H](CCCN=C(N)N)C(=O)N[C@@H]2CC[C@H](O)N(C2=O)[C@@H](CC(C)C)C(=O)N(C)[C@@H](Cc2ccccc2)C(=O)N[C@H](C(C)C)C(=O)O[C@@H]1C
REMARK SMILES IDX 30 1 31 2 29 3 32 5 35 6 37 7 34 8 38 9 33 10 39 11 36 12
REMARK SMILES IDX 40 14 41 15 42 16 43 17 44 18 45 19 46 20 47 21 48 22 49 23
REMARK SMILES IDX 50 24 51 25 52 26 56 27 53 28 55 29 54 30 57 31 58 32 59 33
REMARK SMILES IDX 60 35 61 36 62 37 63 38 64 39 65 40 66 41 67 42 68 43 21 45
REMARK SMILES IDX 20 46 18 47 19 48 17 50 16 52 14 53 15 54 9 56 8 57 6 58
REMARK SMILES IDX 7 59 5 61 4 62 3 63 2 64 1 65 10 66 11 67 12 68 13 69 22 71
REMARK SMILES IDX 23 72 24 73 25 74 26 75 27 76 28 77
REMARK H PARENT 31 4 36 13 59 34 20 49 16 55 8 60 13 70 27 78 27 79 28 80
REMARK H PARENT 28 81
REMARK Flexibility Score:  259.900
ROOT
ATOM      1  O   UNL     1      -6.279  12.224   3.839  1.00  0.00    -0.273 OA
ATOM      2  N   UNL     1      -5.581  12.309   6.016  1.00  0.00    -0.343 N 
ATOM      3  C   UNL     1      -5.472  12.626   4.679  1.00  0.00     0.243 C 
ATOM      4  H   UNL     1      -4.907  12.670   6.680  1.00  0.00     0.164 HD
ENDROOT
BRANCH   2   5
ATOM      5  C   UNL     1      -6.601  11.375   6.477  1.00  0.00     0.171 C 
ATOM      6  C   UNL     1      -9.140  10.531   5.360  1.00  0.00     0.214 C 
ATOM      7  N   UNL     1      -9.101  11.657   6.264  1.00  0.00    -0.303 N 
ATOM      8  C   UNL     1      -8.053   9.503   5.631  1.00  0.00     0.057 C 
ATOM      9  C   UNL     1      -7.916  12.143   6.793  1.00  0.00     0.247 C 
ATOM     10  C   UNL     1      -6.693  10.163   5.551  1.00  0.00     0.040 C 
ATOM     11  O   UNL     1      -7.881  13.161   7.497  1.00  0.00    -0.272 OA
BRANCH   6  12
ATOM     12  O   UNL     1      -9.031  11.029   4.047  1.00  0.00    -0.373 OA
ATOM     13  H   UNL     1      -9.505  10.401   3.461  1.00  0.00     0.213 HD
ENDBRANCH   6  12
BRANCH   7  14
ATOM     14  C   UNL     1     -10.372  12.376   6.495  1.00  0.00     0.177 C 
BRANCH  14  15
ATOM     15  C   UNL     1     -10.609  12.840   7.946  1.00  0.00     0.038 C 
BRANCH  15  16
ATOM     16  C   UNL     1     -11.151  11.836   8.987  1.00  0.00    -0.015 C 
ATOM     17  C   UNL     1     -10.047  10.958   9.582  1.00  0.00     0.007 C 
ATOM     18  C   UNL     1     -12.192  10.920   8.330  1.00  0.00     0.007 C 
ENDBRANCH  15  16
ENDBRANCH  14  15
BRANCH  14  19
ATOM     19  C   UNL     1     -10.789  13.170   5.210  1.00  0.00     0.245 C 
ATOM     20  O   UNL     1      -9.869  13.563   4.472  1.00  0.00    -0.272 OA
BRANCH  19  21
ATOM     21  N   UNL     1     -12.089  13.543   4.922  1.00  0.00    -0.332 N 
ATOM     22  C   UNL     1     -13.266  13.147   5.674  1.00  0.00     0.147 C 
BRANCH  21  23
ATOM     23  C   UNL     1     -12.317  14.417   3.737  1.00  0.00     0.178 C 
BRANCH  23  24
ATOM     24  C   UNL     1     -13.746  14.362   3.160  1.00  0.00     0.070 C 
BRANCH  24  25
ATOM     25  C   UNL     1     -14.052  13.249   2.184  1.00  0.00    -0.045 A 
ATOM     26  C   UNL     1     -14.789  12.127   2.584  1.00  0.00     0.004 A 
ATOM     27  C   UNL     1     -13.595  13.323   0.860  1.00  0.00     0.004 A 
ATOM     28  C   UNL     1     -15.053  11.095   1.681  1.00  0.00     0.000 A 
ATOM     29  C   UNL     1     -13.860  12.291  -0.041  1.00  0.00     0.000 A 
ATOM     30  C   UNL     1     -14.587  11.176   0.371  1.00  0.00     0.000 A 
ENDBRANCH  24  25
ENDBRANCH  23  24
BRANCH  23  31
ATOM     31  C   UNL     1     -11.742  15.842   3.919  1.00  0.00     0.243 C 
ATOM     32  O   UNL     1     -12.276  16.717   4.594  1.00  0.00    -0.273 OA
ATOM     33  N   UNL     1     -10.659  16.109   3.098  1.00  0.00    -0.341 N 
ATOM     34  H   UNL     1     -10.261  15.341   2.554  1.00  0.00     0.164 HD
BRANCH  33  35
ATOM     35  C   UNL     1     -10.028  17.430   3.014  1.00  0.00     0.194 C 
BRANCH  35  36
ATOM     36  C   UNL     1     -10.216  18.137   1.642  1.00  0.00     0.017 C 
ATOM     37  C   UNL     1     -10.667  19.596   1.822  1.00  0.00     0.010 C 
ATOM     38  C   UNL     1     -11.247  17.445   0.742  1.00  0.00     0.010 C 
ENDBRANCH  35  36
BRANCH  35  39
ATOM     39  C   UNL     1      -8.538  17.410   3.457  1.00  0.00     0.329 C 
ATOM     40  O   UNL     1      -8.141  17.804   4.548  1.00  0.00    -0.250 OA
BRANCH  39  41
ATOM     41  O   UNL     1      -7.727  16.821   2.527  1.00  0.00    -0.458 OA
BRANCH  41  42
ATOM     42  C   UNL     1      -6.411  17.402   2.365  1.00  0.00     0.205 CG0
ATOM     43  C   UNL     1      -6.530  18.513   1.324  1.00  0.00     0.056 C 
ATOM     44  G   UNL     1      -5.433  16.292   1.933  1.00  0.00     0.000 G0
ENDBRANCH  41  42
ENDBRANCH  39  41
ENDBRANCH  35  39
ENDBRANCH  33  35
ENDBRANCH  23  31
ENDBRANCH  21  23
ENDBRANCH  19  21
ENDBRANCH  14  19
ENDBRANCH   7  14
ENDBRANCH   2   5
BRANCH   3  45
ATOM     45  C   UNL     1      -4.290  13.533   4.312  1.00  0.00     0.171 C 
BRANCH  45  46
ATOM     46  N   UNL     1      -4.729  14.306   3.158  1.00  0.00    -0.342 N 
ATOM     47  C   UNL     1      -4.812  15.676   3.178  1.00  0.00     0.247 C 
ATOM     48  O   UNL     1      -4.453  16.353   4.142  1.00  0.00    -0.273 OA
ATOM     49  H   UNL     1      -4.983  13.788   2.319  1.00  0.00     0.164 HD
BRANCH  47  50
ATOM     50  C   UNL     1      -5.413  16.309   1.915  1.00  0.00     0.212 CG0
ATOM     51  G   UNL     1      -6.418  17.388   2.366  1.00  0.00     0.000 G0
BRANCH  50  52
ATOM     52  N   UNL     1      -4.278  16.852   1.173  1.00  0.00    -0.339 N 
ATOM     53  C   UNL     1      -3.445  16.082   0.398  1.00  0.00     0.243 C 
ATOM     54  O   UNL     1      -3.560  14.863   0.312  1.00  0.00    -0.273 OA
ATOM     55  H   UNL     1      -4.064  17.840   1.293  1.00  0.00     0.164 HD
BRANCH  53  56
ATOM     56  C   UNL     1      -2.266  16.861  -0.219  1.00  0.00     0.182 C 
BRANCH  56  57
ATOM     57  N   UNL     1      -0.984  16.241   0.131  1.00  0.00    -0.344 N 
ATOM     58  C   UNL     1       0.063  16.163  -0.755  1.00  0.00     0.220 C 
ATOM     59  O   UNL     1      -0.024  16.539  -1.919  1.00  0.00    -0.275 OA
ATOM     60  H   UNL     1      -0.836  16.010   1.110  1.00  0.00     0.164 HD
BRANCH  58  61
ATOM     61  C   UNL     1       1.309  15.534  -0.160  1.00  0.00     0.100 C 
BRANCH  61  62
ATOM     62  C   UNL     1       1.397  14.022  -0.371  1.00  0.00     0.010 C 
BRANCH  62  63
ATOM     63  C   UNL     1       0.298  13.225   0.343  1.00  0.00     0.000 C 
BRANCH  63  64
ATOM     64  C   UNL     1       0.386  11.713   0.136  1.00  0.00    -0.003 C 
ATOM     65  C   UNL     1      -0.553  10.969   1.074  1.00  0.00     0.004 C 
ENDBRANCH  63  64
ENDBRANCH  62  63
ENDBRANCH  61  62
ENDBRANCH  58  61
ENDBRANCH  56  57
BRANCH  56  66
ATOM     66  C   UNL     1      -2.312  18.341   0.159  1.00  0.00     0.157 C 
BRANCH  66  67
ATOM     67  C   UNL     1      -1.219  18.689   1.128  1.00  0.00     0.305 C 
ATOM     68  O   UNL     1      -0.197  19.312   0.886  1.00  0.00    -0.252 OA
BRANCH  67  69
ATOM     69  O   UNL     1      -1.494  18.276   2.380  1.00  0.00    -0.481 OA
ATOM     70  H   UNL     1      -0.882  18.786   2.951  1.00  0.00     0.296 HD
ENDBRANCH  67  69
ENDBRANCH  66  67
ENDBRANCH  56  66
ENDBRANCH  53  56
ENDBRANCH  50  52
ENDBRANCH  47  50
ENDBRANCH  45  46
BRANCH  45  71
ATOM     71  C   UNL     1      -3.051  12.690   3.989  1.00  0.00     0.037 C 
BRANCH  71  72
ATOM     72  C   UNL     1      -1.754  13.484   4.163  1.00  0.00     0.026 C 
BRANCH  72  73
ATOM     73  C   UNL     1      -1.834  14.435   5.355  1.00  0.00     0.146 C 
BRANCH  73  74
ATOM     74  N   UNL     1      -1.118  15.657   5.001  1.00  0.00    -0.254 NA
ATOM     75  C   UNL     1      -1.474  16.747   5.573  1.00  0.00     0.185 C 
ATOM     76  N   UNL     1      -0.833  17.887   5.269  1.00  0.00    -0.370 N 
ATOM     77  N   UNL     1      -2.443  16.946   6.484  1.00  0.00    -0.370 N 
ATOM     78  H   UNL     1      -0.093  17.827   4.585  1.00  0.00     0.159 HD
ATOM     79  H   UNL     1      -1.147  18.795   5.564  1.00  0.00     0.159 HD
ATOM     80  H   UNL     1      -3.006  16.176   6.811  1.00  0.00     0.159 HD
ATOM     81  H   UNL     1      -2.555  17.831   6.950  1.00  0.00     0.159 HD
ENDBRANCH  73  74
ENDBRANCH  72  73
ENDBRANCH  71  72
ENDBRANCH  45  71
ENDBRANCH   3  45
TORSDOF 20
ENDMDL
MODEL 2
REMARK VINA RESULT:    -5.467      1.634      3.325
REMARK INTER + INTRA:         -20.771
REMARK INTER:                 -14.521
REMARK INTRA:                  -6.251
REMARK UNBOUND:                -5.076
REMARK SMILES CCCCCC(=O)N[C@H](CC(=O)O)C(=O)N[C@H]1C(=O)N[C@H](CCCN=C(N)N)C(=O)N[C@@H]2CC[C@H](O)N(C2=O)[C@@H](CC(C)C)C(=O)N(C)[C@@H](Cc2ccccc2)C(=O)N[C@H](C(C)C)C(=O)O[C@@H]1C
REMARK SMILES IDX 30 1 31 2 29 3 32 5 35 6 37 7 34 8 38 9 33 10 39 11 36 12
REMARK SMILES IDX 40 14 41 15 42 16 43 17 44 18 45 19 46 20 47 21 48 22 49 23
REMARK SMILES IDX 50 24 51 25 52 26 56 27 53 28 55 29 54 30 57 31 58 32 59 33
REMARK SMILES IDX 60 35 61 36 62 37 63 38 64 39 65 40 66 41 67 42 68 43 21 45
REMARK SMILES IDX 20 46 18 47 19 48 17 50 16 52 14 53 15 54 9 56 8 57 6 58
REMARK SMILES IDX 7 59 5 61 4 62 3 63 2 64 1 65 10 66 11 67 12 68 13 69 22 71
REMARK SMILES IDX 23 72 24 73 25 74 26 75 27 76 28 77
REMARK H PARENT 31 4 36 13 59 34 20 49 16 55 8 60 13 70 27 78 27 79 28 80
REMARK H PARENT 28 81
REMARK Flexibility Score:  259.900
ROOT
ATOM      1  O   UNL     1      -6.433  12.687   4.404  1.00  0.00    -0.273 OA
ATOM      2  N   UNL     1      -5.262  12.182   6.302  1.00  0.00    -0.343 N 
ATOM      3  C   UNL     1      -5.460  12.883   5.132  1.00  0.00     0.243 C 
ATOM      4  H   UNL     1      -4.457  12.380   6.884  1.00  0.00     0.164 HD
ENDROOT
BRANCH   2   5
ATOM      5  C   UNL     1      -6.149  11.083   6.668  1.00  0.00     0.171 C 
ATOM      6  C   UNL     1      -8.660  10.136   5.571  1.00  0.00     0.214 C 
ATOM      7  N   UNL     1      -8.673  11.116   6.632  1.00  0.00    -0.303 N 
ATOM      8  C   UNL     1      -7.458   9.206   5.625  1.00  0.00     0.057 C 
ATOM      9  C   UNL     1      -7.510  11.648   7.166  1.00  0.00     0.247 C 
ATOM     10  C   UNL     1      -6.181  10.016   5.575  1.00  0.00     0.040 C 
ATOM     11  O   UNL     1      -7.530  12.549   8.015  1.00  0.00    -0.272 OA
BRANCH   6  12
ATOM     12  O   UNL     1      -8.691  10.830   4.345  1.00  0.00    -0.373 OA
ATOM     13  H   UNL     1      -9.006  11.739   4.537  1.00  0.00     0.213 HD
ENDBRANCH   6  12
BRANCH   7  14
ATOM     14  C   UNL     1      -9.991  11.649   7.037  1.00  0.00     0.177 C 
BRANCH  14  15
ATOM     15  C   UNL     1     -10.350  11.454   8.522  1.00  0.00     0.038 C 
BRANCH  15  16
ATOM     16  C   UNL     1     -11.795  11.724   8.998  1.00  0.00    -0.015 C 
ATOM     17  C   UNL     1     -11.894  11.851  10.521  1.00  0.00     0.007 C 
ATOM     18  C   UNL     1     -12.711  10.579   8.550  1.00  0.00     0.007 C 
ENDBRANCH  15  16
ENDBRANCH  14  15
BRANCH  14  19
ATOM     19  C   UNL     1     -10.358  12.904   6.172  1.00  0.00     0.245 C 
ATOM     20  O   UNL     1      -9.458  13.372   5.455  1.00  0.00    -0.272 OA
BRANCH  19  21
ATOM     21  N   UNL     1     -11.570  13.568   6.251  1.00  0.00    -0.332 N 
ATOM     22  C   UNL     1     -12.847  13.047   5.798  1.00  0.00     0.147 C 
BRANCH  21  23
ATOM     23  C   UNL     1     -11.577  14.936   6.839  1.00  0.00     0.178 C 
BRANCH  23  24
ATOM     24  C   UNL     1     -10.690  15.105   8.090  1.00  0.00     0.070 C 
BRANCH  24  25
ATOM     25  C   UNL     1      -9.633  16.184   8.044  1.00  0.00    -0.045 A 
ATOM     26  C   UNL     1      -9.909  17.479   8.503  1.00  0.00     0.004 A 
ATOM     27  C   UNL     1      -8.357  15.903   7.533  1.00  0.00     0.004 A 
ATOM     28  C   UNL     1      -8.932  18.475   8.440  1.00  0.00     0.000 A 
ATOM     29  C   UNL     1      -7.382  16.899   7.472  1.00  0.00     0.000 A 
ATOM     30  C   UNL     1      -7.671  18.185   7.923  1.00  0.00     0.000 A 
ENDBRANCH  24  25
ENDBRANCH  23  24
BRANCH  23  31
ATOM     31  C   UNL     1     -11.424  16.050   5.777  1.00  0.00     0.243 C 
ATOM     32  O   UNL     1     -12.166  17.026   5.693  1.00  0.00    -0.273 OA
ATOM     33  N   UNL     1     -10.485  15.760   4.802  1.00  0.00    -0.341 N 
ATOM     34  H   UNL     1      -9.900  14.929   4.923  1.00  0.00     0.164 HD
BRANCH  33  35
ATOM     35  C   UNL     1     -10.256  16.615   3.634  1.00  0.00     0.194 C 
BRANCH  35  36
ATOM     36  C   UNL     1     -10.648  15.958   2.280  1.00  0.00     0.017 C 
ATOM     37  C   UNL     1     -11.972  16.529   1.744  1.00  0.00     0.010 C 
ATOM     38  C   UNL     1     -10.809  14.435   2.372  1.00  0.00     0.010 C 
ENDBRANCH  35  36
BRANCH  35  39
ATOM     39  C   UNL     1      -8.819  17.206   3.597  1.00  0.00     0.329 C 
ATOM     40  O   UNL     1      -8.444  18.143   4.292  1.00  0.00    -0.250 OA
BRANCH  39  41
ATOM     41  O   UNL     1      -7.990  16.506   2.764  1.00  0.00    -0.458 OA
BRANCH  41  42
ATOM     42  C   UNL     1      -6.858  17.231   2.229  1.00  0.00     0.205 CG0
ATOM     43  C   UNL     1      -7.305  17.866   0.914  1.00  0.00     0.056 C 
ATOM     44  G   UNL     1      -5.687  16.246   2.039  1.00  0.00     0.000 G0
ENDBRANCH  41  42
ENDBRANCH  39  41
ENDBRANCH  35  39
ENDBRANCH  33  35
ENDBRANCH  23  31
ENDBRANCH  21  23
ENDBRANCH  19  21
ENDBRANCH  14  19
ENDBRANCH   7  14
ENDBRANCH   2   5
BRANCH   3  45
ATOM     45  C   UNL     1      -4.393  13.938   4.811  1.00  0.00     0.171 C 
BRANCH  45  46
ATOM     46  N   UNL     1      -4.793  14.527   3.539  1.00  0.00    -0.342 N 
ATOM     47  C   UNL     1      -5.168  15.841   3.421  1.00  0.00     0.247 C 
ATOM     48  O   UNL     1      -5.125  16.635   4.362  1.00  0.00    -0.273 OA
ATOM     49  H   UNL     1      -4.788  13.918   2.722  1.00  0.00     0.164 HD
BRANCH  47  50
ATOM     50  C   UNL     1      -5.675  16.251   2.031  1.00  0.00     0.212 CG0
ATOM     51  G   UNL     1      -6.841  17.238   2.231  1.00  0.00     0.000 G0
BRANCH  50  52
ATOM     52  N   UNL     1      -4.524  16.845   1.356  1.00  0.00    -0.339 N 
ATOM     53  C   UNL     1      -3.658  16.129   0.566  1.00  0.00     0.243 C 
ATOM     54  O   UNL     1      -3.756  14.915   0.408  1.00  0.00    -0.273 OA
ATOM     55  H   UNL     1      -4.325  17.827   1.538  1.00  0.00     0.164 HD
BRANCH  53  56
ATOM     56  C   UNL     1      -2.470  16.953   0.030  1.00  0.00     0.182 C 
BRANCH  56  57
ATOM     57  N   UNL     1      -1.192  16.363   0.440  1.00  0.00    -0.344 N 
ATOM     58  C   UNL     1      -0.133  16.227  -0.424  1.00  0.00     0.220 C 
ATOM     59  O   UNL     1      -0.204  16.521  -1.612  1.00  0.00    -0.275 OA
ATOM     60  H   UNL     1      -1.058  16.201   1.435  1.00  0.00     0.164 HD
BRANCH  58  61
ATOM     61  C   UNL     1       1.106  15.645   0.231  1.00  0.00     0.100 C 
BRANCH  61  62
ATOM     62  C   UNL     1       1.309  14.155  -0.048  1.00  0.00     0.010 C 
BRANCH  62  63
ATOM     63  C   UNL     1       0.210  13.254   0.529  1.00  0.00     0.000 C 
BRANCH  63  64
ATOM     64  C   UNL     1       0.239  11.818   0.008  1.00  0.00    -0.003 C 
ATOM     65  C   UNL     1      -0.297  10.840   1.044  1.00  0.00     0.004 C 
ENDBRANCH  63  64
ENDBRANCH  62  63
ENDBRANCH  61  62
ENDBRANCH  58  61
ENDBRANCH  56  57
BRANCH  56  66
ATOM     66  C   UNL     1      -2.582  18.423   0.432  1.00  0.00     0.157 C 
BRANCH  66  67
ATOM     67  C   UNL     1      -1.644  18.752   1.558  1.00  0.00     0.305 C 
ATOM     68  O   UNL     1      -0.560  19.308   1.470  1.00  0.00    -0.252 OA
BRANCH  67  69
ATOM     69  O   UNL     1      -2.145  18.406   2.759  1.00  0.00    -0.481 OA
ATOM     70  H   UNL     1      -2.754  19.137   2.995  1.00  0.00     0.296 HD
ENDBRANCH  67  69
ENDBRANCH  66  67
ENDBRANCH  56  66
ENDBRANCH  53  56
ENDBRANCH  50  52
ENDBRANCH  47  50
ENDBRANCH  45  46
BRANCH  45  71
ATOM     71  C   UNL     1      -3.008  13.289   4.723  1.00  0.00     0.037 C 
BRANCH  71  72
ATOM     72  C   UNL     1      -1.940  14.110   5.450  1.00  0.00     0.026 C 
BRANCH  72  73
ATOM     73  C   UNL     1      -1.661  15.428   4.732  1.00  0.00     0.146 C 
BRANCH  73  74
ATOM     74  N   UNL     1      -0.839  16.252   5.613  1.00  0.00    -0.254 NA
ATOM     75  C   UNL     1       0.085  16.963   5.079  1.00  0.00     0.185 C 
ATOM     76  N   UNL     1       0.857  17.732   5.863  1.00  0.00    -0.370 N 
ATOM     77  N   UNL     1       0.426  17.069   3.783  1.00  0.00    -0.370 N 
ATOM     78  H   UNL     1       0.672  17.705   6.856  1.00  0.00     0.159 HD
ATOM     79  H   UNL     1       1.685  18.199   5.538  1.00  0.00     0.159 HD
ATOM     80  H   UNL     1      -0.073  16.550   3.076  1.00  0.00     0.159 HD
ATOM     81  H   UNL     1       1.096  17.751   3.467  1.00  0.00     0.159 HD
ENDBRANCH  73  74
ENDBRANCH  72  73
ENDBRANCH  71  72
ENDBRANCH  45  71
ENDBRANCH   3  45
TORSDOF 20
ENDMDL
MODEL 3
REMARK VINA RESULT:    -5.408      2.182      4.084
REMARK INTER + INTRA:         -20.600
REMARK INTER:                 -15.470
REMARK INTRA:                  -5.129
REMARK UNBOUND:                -5.076
REMARK SMILES CCCCCC(=O)N[C@H](CC(=O)O)C(=O)N[C@H]1C(=O)N[C@H](CCCN=C(N)N)C(=O)N[C@@H]2CC[C@H](O)N(C2=O)[C@@H](CC(C)C)C(=O)N(C)[C@@H](Cc2ccccc2)C(=O)N[C@H](C(C)C)C(=O)O[C@@H]1C
REMARK SMILES IDX 30 1 31 2 29 3 32 5 35 6 37 7 34 8 38 9 33 10 39 11 36 12
REMARK SMILES IDX 40 14 41 15 42 16 43 17 44 18 45 19 46 20 47 21 48 22 49 23
REMARK SMILES IDX 50 24 51 25 52 26 56 27 53 28 55 29 54 30 57 31 58 32 59 33
REMARK SMILES IDX 60 35 61 36 62 37 63 38 64 39 65 40 66 41 67 42 68 43 21 45
REMARK SMILES IDX 20 46 18 47 19 48 17 50 16 52 14 53 15 54 9 56 8 57 6 58
REMARK SMILES IDX 7 59 5 61 4 62 3 63 2 64 1 65 10 66 11 67 12 68 13 69 22 71
REMARK SMILES IDX 23 72 24 73 25 74 26 75 27 76 28 77
REMARK H PARENT 31 4 36 13 59 34 20 49 16 55 8 60 13 70 27 78 27 79 28 80
REMARK H PARENT 28 81
REMARK Flexibility Score:  259.900
ROOT
ATOM      1  O   UNL     1      -3.212  10.755   4.766  1.00  0.00    -0.273 OA
ATOM      2  N   UNL     1      -4.948  12.237   4.907  1.00  0.00    -0.343 N 
ATOM      3  C   UNL     1      -3.675  11.870   4.527  1.00  0.00     0.243 C 
ATOM      4  H   UNL     1      -5.301  13.159   4.681  1.00  0.00     0.164 HD
ENDROOT
BRANCH   2   5
ATOM      5  C   UNL     1      -5.765  11.345   5.723  1.00  0.00     0.171 C 
ATOM      6  C   UNL     1      -8.595  11.298   6.350  1.00  0.00     0.214 C 
ATOM      7  N   UNL     1      -7.688  12.016   7.215  1.00  0.00    -0.303 N 
ATOM      8  C   UNL     1      -7.952  10.105   5.660  1.00  0.00     0.057 C 
ATOM      9  C   UNL     1      -6.333  12.121   6.946  1.00  0.00     0.247 C 
ATOM     10  C   UNL     1      -6.752  10.562   4.859  1.00  0.00     0.040 C 
ATOM     11  O   UNL     1      -5.577  12.810   7.644  1.00  0.00    -0.272 OA
BRANCH   6  12
ATOM     12  O   UNL     1      -9.093  12.208   5.397  1.00  0.00    -0.373 OA
ATOM     13  H   UNL     1      -9.962  11.865   5.099  1.00  0.00     0.213 HD
ENDBRANCH   6  12
BRANCH   7  14
ATOM     14  C   UNL     1      -8.286  12.770   8.337  1.00  0.00     0.177 C 
BRANCH  14  15
ATOM     15  C   UNL     1      -7.980  12.211   9.740  1.00  0.00     0.038 C 
BRANCH  15  16
ATOM     16  C   UNL     1      -9.139  11.708  10.629  1.00  0.00    -0.015 C 
ATOM     17  C   UNL     1     -10.036  10.700   9.904  1.00  0.00     0.007 C 
ATOM     18  C   UNL     1     -10.008  12.894  11.068  1.00  0.00     0.007 C 
ENDBRANCH  15  16
ENDBRANCH  14  15
BRANCH  14  19
ATOM     19  C   UNL     1      -8.400  14.290   7.971  1.00  0.00     0.245 C 
ATOM     20  O   UNL     1      -7.340  14.885   7.717  1.00  0.00    -0.272 OA
BRANCH  19  21
ATOM     21  N   UNL     1      -9.581  15.010   8.026  1.00  0.00    -0.332 N 
ATOM     22  C   UNL     1      -9.874  16.076   8.966  1.00  0.00     0.147 C 
BRANCH  21  23
ATOM     23  C   UNL     1     -10.653  14.664   7.052  1.00  0.00     0.178 C 
BRANCH  23  24
ATOM     24  C   UNL     1     -12.086  14.739   7.616  1.00  0.00     0.070 C 
BRANCH  24  25
ATOM     25  C   UNL     1     -12.698  13.449   8.112  1.00  0.00    -0.045 A 
ATOM     26  C   UNL     1     -13.235  13.360   9.403  1.00  0.00     0.004 A 
ATOM     27  C   UNL     1     -12.733  12.318   7.283  1.00  0.00     0.004 A 
ATOM     28  C   UNL     1     -13.784  12.159   9.860  1.00  0.00     0.000 A 
ATOM     29  C   UNL     1     -13.283  11.120   7.741  1.00  0.00     0.000 A 
ATOM     30  C   UNL     1     -13.805  11.041   9.030  1.00  0.00     0.000 A 
ENDBRANCH  24  25
ENDBRANCH  23  24
BRANCH  23  31
ATOM     31  C   UNL     1     -10.458  15.343   5.675  1.00  0.00     0.243 C 
ATOM     32  O   UNL     1     -10.625  16.542   5.471  1.00  0.00    -0.273 OA
ATOM     33  N   UNL     1     -10.258  14.445   4.640  1.00  0.00    -0.341 N 
ATOM     34  H   UNL     1     -10.132  13.457   4.872  1.00  0.00     0.164 HD
BRANCH  33  35
ATOM     35  C   UNL     1     -10.168  14.853   3.235  1.00  0.00     0.194 C 
BRANCH  35  36
ATOM     36  C   UNL     1     -11.420  14.491   2.387  1.00  0.00     0.017 C 
ATOM     37  C   UNL     1     -12.015  15.736   1.707  1.00  0.00     0.010 C 
ATOM     38  C   UNL     1     -12.538  13.838   3.209  1.00  0.00     0.010 C 
ENDBRANCH  35  36
BRANCH  35  39
ATOM     39  C   UNL     1      -8.851  14.380   2.558  1.00  0.00     0.329 C 
ATOM     40  O   UNL     1      -8.603  13.212   2.283  1.00  0.00    -0.250 OA
BRANCH  39  41
ATOM     41  O   UNL     1      -8.035  15.424   2.222  1.00  0.00    -0.458 OA
BRANCH  41  42
ATOM     42  C   UNL     1      -6.869  15.621   3.059  1.00  0.00     0.205 CG0
ATOM     43  C   UNL     1      -6.849  17.092   3.470  1.00  0.00     0.056 C 
ATOM     44  G   UNL     1      -5.616  15.215   2.259  1.00  0.00     0.000 G0
ENDBRANCH  41  42
ENDBRANCH  39  41
ENDBRANCH  35  39
ENDBRANCH  33  35
ENDBRANCH  23  31
ENDBRANCH  21  23
ENDBRANCH  19  21
ENDBRANCH  14  19
ENDBRANCH   7  14
ENDBRANCH   2   5
BRANCH   3  45
ATOM     45  C   UNL     1      -2.883  12.942   3.766  1.00  0.00     0.171 C 
BRANCH  45  46
ATOM     46  N   UNL     1      -3.847  13.601   2.895  1.00  0.00    -0.342 N 
ATOM     47  C   UNL     1      -4.517  14.739   3.266  1.00  0.00     0.247 C 
ATOM     48  O   UNL     1      -4.300  15.326   4.326  1.00  0.00    -0.273 OA
ATOM     49  H   UNL     1      -4.015  13.179   1.983  1.00  0.00     0.164 HD
BRANCH  47  50
ATOM     50  C   UNL     1      -5.584  15.219   2.271  1.00  0.00     0.212 CG0
ATOM     51  G   UNL     1      -6.834  15.613   3.082  1.00  0.00     0.000 G0
BRANCH  50  52
ATOM     52  N   UNL     1      -4.978  16.343   1.562  1.00  0.00    -0.339 N 
ATOM     53  C   UNL     1      -4.084  16.192   0.530  1.00  0.00     0.243 C 
ATOM     54  O   UNL     1      -3.684  15.093   0.156  1.00  0.00    -0.273 OA
ATOM     55  H   UNL     1      -5.184  17.281   1.899  1.00  0.00     0.164 HD
BRANCH  53  56
ATOM     56  C   UNL     1      -3.513  17.520  -0.006  1.00  0.00     0.182 C 
BRANCH  56  57
ATOM     57  N   UNL     1      -2.701  18.193   1.013  1.00  0.00    -0.344 N 
ATOM     58  C   UNL     1      -1.406  17.822   1.285  1.00  0.00     0.220 C 
ATOM     59  O   UNL     1      -0.866  16.860   0.749  1.00  0.00    -0.275 OA
ATOM     60  H   UNL     1      -3.073  19.053   1.405  1.00  0.00     0.164 HD
BRANCH  58  61
ATOM     61  C   UNL     1      -0.738  18.692   2.333  1.00  0.00     0.100 C 
BRANCH  61  62
ATOM     62  C   UNL     1       0.654  18.209   2.739  1.00  0.00     0.010 C 
BRANCH  62  63
ATOM     63  C   UNL     1       0.694  17.470   4.083  1.00  0.00     0.000 C 
BRANCH  63  64
ATOM     64  C   UNL     1      -0.632  17.476   4.841  1.00  0.00    -0.003 C 
ATOM     65  C   UNL     1      -1.209  16.073   4.962  1.00  0.00     0.004 C 
ENDBRANCH  63  64
ENDBRANCH  62  63
ENDBRANCH  61  62
ENDBRANCH  58  61
ENDBRANCH  56  57
BRANCH  56  66
ATOM     66  C   UNL     1      -4.617  18.425  -0.552  1.00  0.00     0.157 C 
BRANCH  66  67
ATOM     67  C   UNL     1      -4.417  18.705  -2.014  1.00  0.00     0.305 C 
ATOM     68  O   UNL     1      -4.407  19.799  -2.555  1.00  0.00    -0.252 OA
BRANCH  67  69
ATOM     69  O   UNL     1      -4.185  17.583  -2.722  1.00  0.00    -0.481 OA
ATOM     70  H   UNL     1      -3.553  17.069  -2.177  1.00  0.00     0.296 HD
ENDBRANCH  67  69
ENDBRANCH  66  67
ENDBRANCH  56  66
ENDBRANCH  53  56
ENDBRANCH  50  52
ENDBRANCH  47  50
ENDBRANCH  45  46
BRANCH  45  71
ATOM     71  C   UNL     1      -1.746  12.297   2.966  1.00  0.00     0.037 C 
BRANCH  71  72
ATOM     72  C   UNL     1      -1.352  13.136   1.747  1.00  0.00     0.026 C 
BRANCH  72  73
ATOM     73  C   UNL     1       0.155  13.094   1.502  1.00  0.00     0.146 C 
BRANCH  73  74
ATOM     74  N   UNL     1       0.420  13.763   0.232  1.00  0.00    -0.254 NA
ATOM     75  C   UNL     1       1.330  14.666   0.209  1.00  0.00     0.185 C 
ATOM     76  N   UNL     1       1.597  15.299  -0.945  1.00  0.00    -0.370 N 
ATOM     77  N   UNL     1       2.107  15.108   1.213  1.00  0.00    -0.370 N 
ATOM     78  H   UNL     1       1.051  15.031  -1.751  1.00  0.00     0.159 HD
ATOM     79  H   UNL     1       2.187  16.109  -1.008  1.00  0.00     0.159 HD
ATOM     80  H   UNL     1       2.019  14.720   2.140  1.00  0.00     0.159 HD
ATOM     81  H   UNL     1       2.870  15.744   1.050  1.00  0.00     0.159 HD
ENDBRANCH  73  74
ENDBRANCH  72  73
ENDBRANCH  71  72
ENDBRANCH  45  71
ENDBRANCH   3  45
TORSDOF 20
ENDMDL
MODEL 4
REMARK VINA RESULT:    -5.292      2.175      4.335
REMARK INTER + INTRA:         -20.268
REMARK INTER:                 -15.432
REMARK INTRA:                  -4.836
REMARK UNBOUND:                -5.076
REMARK SMILES CCCCCC(=O)N[C@H](CC(=O)O)C(=O)N[C@H]1C(=O)N[C@H](CCCN=C(N)N)C(=O)N[C@@H]2CC[C@H](O)N(C2=O)[C@@H](CC(C)C)C(=O)N(C)[C@@H](Cc2ccccc2)C(=O)N[C@H](C(C)C)C(=O)O[C@@H]1C
REMARK SMILES IDX 30 1 31 2 29 3 32 5 35 6 37 7 34 8 38 9 33 10 39 11 36 12
REMARK SMILES IDX 40 14 41 15 42 16 43 17 44 18 45 19 46 20 47 21 48 22 49 23
REMARK SMILES IDX 50 24 51 25 52 26 56 27 53 28 55 29 54 30 57 31 58 32 59 33
REMARK SMILES IDX 60 35 61 36 62 37 63 38 64 39 65 40 66 41 67 42 68 43 21 45
REMARK SMILES IDX 20 46 18 47 19 48 17 50 16 52 14 53 15 54 9 56 8 57 6 58
REMARK SMILES IDX 7 59 5 61 4 62 3 63 2 64 1 65 10 66 11 67 12 68 13 69 22 71
REMARK SMILES IDX 23 72 24 73 25 74 26 75 27 76 28 77
REMARK H PARENT 31 4 36 13 59 34 20 49 16 55 8 60 13 70 27 78 27 79 28 80
REMARK H PARENT 28 81
REMARK Flexibility Score:  259.900
ROOT
ATOM      1  O   UNL     1      -6.285  12.428   4.258  1.00  0.00    -0.273 OA
ATOM      2  N   UNL     1      -5.222  11.909   6.215  1.00  0.00    -0.343 N 
ATOM      3  C   UNL     1      -5.319  12.568   5.009  1.00  0.00     0.243 C 
ATOM      4  H   UNL     1      -4.420  12.060   6.814  1.00  0.00     0.164 HD
ENDROOT
BRANCH   2   5
ATOM      5  C   UNL     1      -6.218  10.914   6.600  1.00  0.00     0.171 C 
ATOM      6  C   UNL     1      -8.769  10.145   5.458  1.00  0.00     0.214 C 
ATOM      7  N   UNL     1      -8.725  11.173   6.471  1.00  0.00    -0.303 N 
ATOM      8  C   UNL     1      -7.660   9.114   5.599  1.00  0.00     0.057 C 
ATOM      9  C   UNL     1      -7.536  11.624   7.022  1.00  0.00     0.247 C 
ATOM     10  C   UNL     1      -6.313   9.802   5.557  1.00  0.00     0.040 C 
ATOM     11  O   UNL     1      -7.500  12.564   7.826  1.00  0.00    -0.272 OA
BRANCH   6  12
ATOM     12  O   UNL     1      -8.697  10.776   4.201  1.00  0.00    -0.373 OA
ATOM     13  H   UNL     1      -7.769  10.698   3.892  1.00  0.00     0.213 HD
ENDBRANCH   6  12
BRANCH   7  14
ATOM     14  C   UNL     1     -10.001  11.842   6.802  1.00  0.00     0.177 C 
BRANCH  14  15
ATOM     15  C   UNL     1     -10.442  11.723   8.274  1.00  0.00     0.038 C 
BRANCH  15  16
ATOM     16  C   UNL     1     -11.905  12.037   8.658  1.00  0.00    -0.015 C 
ATOM     17  C   UNL     1     -12.055  12.401  10.138  1.00  0.00     0.007 C 
ATOM     18  C   UNL     1     -12.790  10.817   8.372  1.00  0.00     0.007 C 
ENDBRANCH  15  16
ENDBRANCH  14  15
BRANCH  14  19
ATOM     19  C   UNL     1     -10.205  13.104   5.894  1.00  0.00     0.245 C 
ATOM     20  O   UNL     1      -9.243  13.444   5.185  1.00  0.00    -0.272 OA
BRANCH  19  21
ATOM     21  N   UNL     1     -11.334  13.903   5.926  1.00  0.00    -0.332 N 
ATOM     22  C   UNL     1     -12.644  13.532   5.419  1.00  0.00     0.147 C 
BRANCH  21  23
ATOM     23  C   UNL     1     -11.207  15.263   6.517  1.00  0.00     0.178 C 
BRANCH  23  24
ATOM     24  C   UNL     1     -10.293  15.346   7.756  1.00  0.00     0.070 C 
BRANCH  24  25
ATOM     25  C   UNL     1      -9.146  16.329   7.701  1.00  0.00    -0.045 A 
ATOM     26  C   UNL     1      -7.861  15.913   7.329  1.00  0.00     0.004 A 
ATOM     27  C   UNL     1      -9.354  17.678   8.027  1.00  0.00     0.004 A 
ATOM     28  C   UNL     1      -6.803  16.824   7.297  1.00  0.00     0.000 A 
ATOM     29  C   UNL     1      -8.296  18.587   7.993  1.00  0.00     0.000 A 
ATOM     30  C   UNL     1      -7.021  18.159   7.631  1.00  0.00     0.000 A 
ENDBRANCH  24  25
ENDBRANCH  23  24
BRANCH  23  31
ATOM     31  C   UNL     1     -10.967  16.363   5.455  1.00  0.00     0.243 C 
ATOM     32  O   UNL     1     -11.737  17.297   5.247  1.00  0.00    -0.273 OA
ATOM     33  N   UNL     1      -9.892  16.102   4.623  1.00  0.00    -0.341 N 
ATOM     34  H   UNL     1      -9.289  15.306   4.844  1.00  0.00     0.164 HD
BRANCH  33  35
ATOM     35  C   UNL     1      -9.549  16.944   3.473  1.00  0.00     0.194 C 
BRANCH  35  36
ATOM     36  C   UNL     1      -9.918  16.320   2.098  1.00  0.00     0.017 C 
ATOM     37  C   UNL     1     -10.447  17.387   1.123  1.00  0.00     0.010 C 
ATOM     38  C   UNL     1     -10.984  15.222   2.198  1.00  0.00     0.010 C 
ENDBRANCH  35  36
BRANCH  35  39
ATOM     39  C   UNL     1      -8.075  17.436   3.511  1.00  0.00     0.329 C 
ATOM     40  O   UNL     1      -7.706  18.452   4.088  1.00  0.00    -0.250 OA
BRANCH  39  41
ATOM     41  O   UNL     1      -7.219  16.562   2.900  1.00  0.00    -0.458 OA
BRANCH  41  42
ATOM     42  C   UNL     1      -6.099  17.149   2.195  1.00  0.00     0.205 CG0
ATOM     43  C   UNL     1      -6.644  17.764   0.908  1.00  0.00     0.056 C 
ATOM     44  G   UNL     1      -5.056  16.046   1.926  1.00  0.00     0.000 G0
ENDBRANCH  41  42
ENDBRANCH  39  41
ENDBRANCH  35  39
ENDBRANCH  33  35
ENDBRANCH  23  31
ENDBRANCH  21  23
ENDBRANCH  19  21
ENDBRANCH  14  19
ENDBRANCH   7  14
ENDBRANCH   2   5
BRANCH   3  45
ATOM     45  C   UNL     1      -4.151  13.506   4.677  1.00  0.00     0.171 C 
BRANCH  45  46
ATOM     46  N   UNL     1      -4.511  14.155   3.423  1.00  0.00    -0.342 N 
ATOM     47  C   UNL     1      -4.548  15.520   3.285  1.00  0.00     0.247 C 
ATOM     48  O   UNL     1      -4.211  16.292   4.183  1.00  0.00    -0.273 OA
ATOM     49  H   UNL     1      -4.743  13.552   2.636  1.00  0.00     0.164 HD
BRANCH  47  50
ATOM     50  C   UNL     1      -5.070  16.022   1.931  1.00  0.00     0.212 CG0
ATOM     51  G   UNL     1      -6.070  17.161   2.208  1.00  0.00     0.000 G0
BRANCH  50  52
ATOM     52  N   UNL     1      -3.886  16.460   1.196  1.00  0.00    -0.339 N 
ATOM     53  C   UNL     1      -3.138  15.625   0.401  1.00  0.00     0.243 C 
ATOM     54  O   UNL     1      -3.379  14.426   0.290  1.00  0.00    -0.273 OA
ATOM     55  H   UNL     1      -3.570  17.417   1.335  1.00  0.00     0.164 HD
BRANCH  53  56
ATOM     56  C   UNL     1      -1.886  16.291  -0.204  1.00  0.00     0.182 C 
BRANCH  56  57
ATOM     57  N   UNL     1      -1.195  17.116   0.791  1.00  0.00    -0.344 N 
ATOM     58  C   UNL     1       0.152  17.375   0.726  1.00  0.00     0.220 C 
ATOM     59  O   UNL     1       0.883  16.877  -0.124  1.00  0.00    -0.275 OA
ATOM     60  H   UNL     1      -1.777  17.628   1.449  1.00  0.00     0.164 HD
BRANCH  58  61
ATOM     61  C   UNL     1       0.641  18.299   1.826  1.00  0.00     0.100 C 
BRANCH  61  62
ATOM     62  C   UNL     1      -0.104  18.130   3.150  1.00  0.00     0.010 C 
BRANCH  62  63
ATOM     63  C   UNL     1       0.777  17.643   4.307  1.00  0.00     0.000 C 
BRANCH  63  64
ATOM     64  C   UNL     1       1.396  18.765   5.139  1.00  0.00    -0.003 C 
ATOM     65  C   UNL     1       2.866  18.961   4.800  1.00  0.00     0.004 C 
ENDBRANCH  63  64
ENDBRANCH  62  63
ENDBRANCH  61  62
ENDBRANCH  58  61
ENDBRANCH  56  57
BRANCH  56  66
ATOM     66  C   UNL     1      -2.225  17.077  -1.470  1.00  0.00     0.157 C 
BRANCH  66  67
ATOM     67  C   UNL     1      -3.670  17.486  -1.484  1.00  0.00     0.305 C 
ATOM     68  O   UNL     1      -4.126  18.574  -1.167  1.00  0.00    -0.252 OA
BRANCH  67  69
ATOM     69  O   UNL     1      -4.474  16.512  -1.951  1.00  0.00    -0.481 OA
ATOM     70  H   UNL     1      -5.384  16.841  -1.793  1.00  0.00     0.296 HD
ENDBRANCH  67  69
ENDBRANCH  66  67
ENDBRANCH  56  66
ENDBRANCH  53  56
ENDBRANCH  50  52
ENDBRANCH  47  50
ENDBRANCH  45  46
BRANCH  45  71
ATOM     71  C   UNL     1      -2.848  12.710   4.548  1.00  0.00     0.037 C 
BRANCH  71  72
ATOM     72  C   UNL     1      -1.774  13.485   3.780  1.00  0.00     0.026 C 
BRANCH  72  73
ATOM     73  C   UNL     1      -0.932  12.558   2.905  1.00  0.00     0.146 C 
BRANCH  73  74
ATOM     74  N   UNL     1      -1.766  12.113   1.793  1.00  0.00    -0.254 NA
ATOM     75  C   UNL     1      -1.265  11.270   0.968  1.00  0.00     0.185 C 
ATOM     76  N   UNL     1      -2.009  10.841  -0.064  1.00  0.00    -0.370 N 
ATOM     77  N   UNL     1      -0.042  10.712   0.969  1.00  0.00    -0.370 N 
ATOM     78  H   UNL     1      -2.942  11.218  -0.144  1.00  0.00     0.159 HD
ATOM     79  H   UNL     1      -1.639  10.298  -0.825  1.00  0.00     0.159 HD
ATOM     80  H   UNL     1       0.626  10.939   1.691  1.00  0.00     0.159 HD
ATOM     81  H   UNL     1       0.201   9.971   0.332  1.00  0.00     0.159 HD
ENDBRANCH  73  74
ENDBRANCH  72  73
ENDBRANCH  71  72
ENDBRANCH  45  71
ENDBRANCH   3  45
TORSDOF 20
ENDMDL
MODEL 5
REMARK VINA RESULT:    -5.274      1.900      2.937
REMARK INTER + INTRA:         -20.217
REMARK INTER:                 -14.651
REMARK INTRA:                  -5.566
REMARK UNBOUND:                -5.076
REMARK SMILES CCCCCC(=O)N[C@H](CC(=O)O)C(=O)N[C@H]1C(=O)N[C@H](CCCN=C(N)N)C(=O)N[C@@H]2CC[C@H](O)N(C2=O)[C@@H](CC(C)C)C(=O)N(C)[C@@H](Cc2ccccc2)C(=O)N[C@H](C(C)C)C(=O)O[C@@H]1C
REMARK SMILES IDX 30 1 31 2 29 3 32 5 35 6 37 7 34 8 38 9 33 10 39 11 36 12
REMARK SMILES IDX 40 14 41 15 42 16 43 17 44 18 45 19 46 20 47 21 48 22 49 23
REMARK SMILES IDX 50 24 51 25 52 26 56 27 53 28 55 29 54 30 57 31 58 32 59 33
REMARK SMILES IDX 60 35 61 36 62 37 63 38 64 39 65 40 66 41 67 42 68 43 21 45
REMARK SMILES IDX 20 46 18 47 19 48 17 50 16 52 14 53 15 54 9 56 8 57 6 58
REMARK SMILES IDX 7 59 5 61 4 62 3 63 2 64 1 65 10 66 11 67 12 68 13 69 22 71
REMARK SMILES IDX 23 72 24 73 25 74 26 75 27 76 28 77
REMARK H PARENT 31 4 36 13 59 34 20 49 16 55 8 60 13 70 27 78 27 79 28 80
REMARK H PARENT 28 81
REMARK Flexibility Score:  259.900
ROOT
ATOM      1  O   UNL     1      -4.550  11.976   4.338  1.00  0.00    -0.273 OA
ATOM      2  N   UNL     1      -5.501  13.434   5.821  1.00  0.00    -0.343 N 
ATOM      3  C   UNL     1      -4.641  13.117   4.792  1.00  0.00     0.243 C 
ATOM      4  H   UNL     1      -5.559  14.386   6.160  1.00  0.00     0.164 HD
ENDROOT
BRANCH   2   5
ATOM      5  C   UNL     1      -6.263  12.392   6.500  1.00  0.00     0.171 C 
ATOM      6  C   UNL     1      -9.096  11.786   6.612  1.00  0.00     0.214 C 
ATOM      7  N   UNL     1      -8.516  12.659   7.606  1.00  0.00    -0.303 N 
ATOM      8  C   UNL     1      -8.120  10.749   6.079  1.00  0.00     0.057 C 
ATOM      9  C   UNL     1      -7.182  13.029   7.581  1.00  0.00     0.247 C 
ATOM     10  C   UNL     1      -6.907  11.440   5.494  1.00  0.00     0.040 C 
ATOM     11  O   UNL     1      -6.712  13.845   8.386  1.00  0.00    -0.272 OA
BRANCH   6  12
ATOM     12  O   UNL     1      -9.580  12.591   5.562  1.00  0.00    -0.373 OA
ATOM     13  H   UNL     1      -9.616  13.512   5.899  1.00  0.00     0.213 HD
ENDBRANCH   6  12
BRANCH   7  14
ATOM     14  C   UNL     1      -9.442  13.270   8.583  1.00  0.00     0.177 C 
BRANCH  14  15
ATOM     15  C   UNL     1      -9.200  12.874  10.053  1.00  0.00     0.038 C 
BRANCH  15  16
ATOM     16  C   UNL     1     -10.226  11.973  10.777  1.00  0.00    -0.015 C 
ATOM     17  C   UNL     1      -9.872  10.486  10.675  1.00  0.00     0.007 C 
ATOM     18  C   UNL     1     -11.618  12.179  10.167  1.00  0.00     0.007 C 
ENDBRANCH  15  16
ENDBRANCH  14  15
BRANCH  14  19
ATOM     19  C   UNL     1      -9.897  14.686   8.089  1.00  0.00     0.245 C 
ATOM     20  O   UNL     1      -8.998  15.508   7.843  1.00  0.00    -0.272 OA
BRANCH  19  21
ATOM     21  N   UNL     1     -11.218  15.093   8.023  1.00  0.00    -0.332 N 
ATOM     22  C   UNL     1     -11.933  15.806   9.066  1.00  0.00     0.147 C 
BRANCH  21  23
ATOM     23  C   UNL     1     -11.985  14.768   6.789  1.00  0.00     0.178 C 
BRANCH  23  24
ATOM     24  C   UNL     1     -13.513  14.681   6.983  1.00  0.00     0.070 C 
BRANCH  24  25
ATOM     25  C   UNL     1     -14.092  13.318   7.284  1.00  0.00    -0.045 A 
ATOM     26  C   UNL     1     -13.399  12.151   6.936  1.00  0.00     0.004 A 
ATOM     27  C   UNL     1     -15.340  13.203   7.914  1.00  0.00     0.004 A 
ATOM     28  C   UNL     1     -13.949  10.895   7.202  1.00  0.00     0.000 A 
ATOM     29  C   UNL     1     -15.887  11.947   8.181  1.00  0.00     0.000 A 
ATOM     30  C   UNL     1     -15.192  10.794   7.822  1.00  0.00     0.000 A 
ENDBRANCH  24  25
ENDBRANCH  23  24
BRANCH  23  31
ATOM     31  C   UNL     1     -11.530  15.592   5.561  1.00  0.00     0.243 C 
ATOM     32  O   UNL     1     -11.812  16.775   5.385  1.00  0.00    -0.273 OA
ATOM     33  N   UNL     1     -10.928  14.829   4.575  1.00  0.00    -0.341 N 
ATOM     34  H   UNL     1     -10.724  13.847   4.778  1.00  0.00     0.164 HD
BRANCH  33  35
ATOM     35  C   UNL     1     -10.525  15.375   3.276  1.00  0.00     0.194 C 
BRANCH  35  36
ATOM     36  C   UNL     1     -11.591  15.207   2.158  1.00  0.00     0.017 C 
ATOM     37  C   UNL     1     -12.253  16.551   1.809  1.00  0.00     0.010 C 
ATOM     38  C   UNL     1     -12.711  14.227   2.533  1.00  0.00     0.010 C 
ENDBRANCH  35  36
BRANCH  35  39
ATOM     39  C   UNL     1      -9.125  14.872   2.824  1.00  0.00     0.329 C 
ATOM     40  O   UNL     1      -8.686  13.755   3.069  1.00  0.00    -0.250 OA
BRANCH  39  41
ATOM     41  O   UNL     1      -8.471  15.786   2.046  1.00  0.00    -0.458 OA
BRANCH  41  42
ATOM     42  C   UNL     1      -7.195  16.256   2.543  1.00  0.00     0.205 CG0
ATOM     43  C   UNL     1      -7.296  17.773   2.691  1.00  0.00     0.056 C 
ATOM     44  G   UNL     1      -6.094  15.831   1.552  1.00  0.00     0.000 G0
ENDBRANCH  41  42
ENDBRANCH  39  41
ENDBRANCH  35  39
ENDBRANCH  33  35
ENDBRANCH  23  31
ENDBRANCH  21  23
ENDBRANCH  19  21
ENDBRANCH  14  19
ENDBRANCH   7  14
ENDBRANCH   2   5
BRANCH   3  45
ATOM     45  C   UNL     1      -3.818  14.288   4.238  1.00  0.00     0.171 C 
BRANCH  45  46
ATOM     46  N   UNL     1      -4.759  15.110   3.489  1.00  0.00    -0.342 N 
ATOM     47  C   UNL     1      -5.205  14.764   2.238  1.00  0.00     0.247 C 
ATOM     48  O   UNL     1      -4.901  13.704   1.690  1.00  0.00    -0.273 OA
ATOM     49  H   UNL     1      -5.080  15.970   3.930  1.00  0.00     0.164 HD
BRANCH  47  50
ATOM     50  C   UNL     1      -6.093  15.811   1.551  1.00  0.00     0.212 CG0
ATOM     51  G   UNL     1      -7.184  16.230   2.557  1.00  0.00     0.000 G0
BRANCH  50  52
ATOM     52  N   UNL     1      -5.196  16.904   1.186  1.00  0.00    -0.339 N 
ATOM     53  C   UNL     1      -4.591  17.006  -0.043  1.00  0.00     0.243 C 
ATOM     54  O   UNL     1      -4.719  16.153  -0.917  1.00  0.00    -0.273 OA
ATOM     55  H   UNL     1      -4.962  17.585   1.906  1.00  0.00     0.164 HD
BRANCH  53  56
ATOM     56  C   UNL     1      -3.619  18.197  -0.167  1.00  0.00     0.182 C 
BRANCH  56  57
ATOM     57  N   UNL     1      -2.251  17.798   0.175  1.00  0.00    -0.344 N 
ATOM     58  C   UNL     1      -1.375  17.297  -0.758  1.00  0.00     0.220 C 
ATOM     59  O   UNL     1      -1.697  17.082  -1.921  1.00  0.00    -0.275 OA
ATOM     60  H   UNL     1      -1.914  18.054   1.099  1.00  0.00     0.164 HD
BRANCH  58  61
ATOM     61  C   UNL     1       0.003  17.006  -0.194  1.00  0.00     0.100 C 
BRANCH  61  62
ATOM     62  C   UNL     1       0.633  15.724  -0.737  1.00  0.00     0.010 C 
BRANCH  62  63
ATOM     63  C   UNL     1       1.068  14.730   0.348  1.00  0.00     0.000 C 
BRANCH  63  64
ATOM     64  C   UNL     1       0.991  13.265  -0.077  1.00  0.00    -0.003 C 
ATOM     65  C   UNL     1      -0.128  12.534   0.650  1.00  0.00     0.004 C 
ENDBRANCH  63  64
ENDBRANCH  62  63
ENDBRANCH  61  62
ENDBRANCH  58  61
ENDBRANCH  56  57
BRANCH  56  66
ATOM     66  C   UNL     1      -4.093  19.395   0.655  1.00  0.00     0.157 C 
BRANCH  66  67
ATOM     67  C   UNL     1      -3.161  19.672   1.799  1.00  0.00     0.305 C 
ATOM     68  O   UNL     1      -2.229  20.462   1.810  1.00  0.00    -0.252 OA
BRANCH  67  69
ATOM     69  O   UNL     1      -3.483  18.970   2.902  1.00  0.00    -0.481 OA
ATOM     70  H   UNL     1      -3.534  18.039   2.601  1.00  0.00     0.296 HD
ENDBRANCH  67  69
ENDBRANCH  66  67
ENDBRANCH  56  66
ENDBRANCH  53  56
ENDBRANCH  50  52
ENDBRANCH  47  50
ENDBRANCH  45  46
BRANCH  45  71
ATOM     71  C   UNL     1      -2.685  13.770   3.346  1.00  0.00     0.037 C 
BRANCH  71  72
ATOM     72  C   UNL     1      -1.742  14.891   2.903  1.00  0.00     0.026 C 
BRANCH  72  73
ATOM     73  C   UNL     1      -1.483  15.885   4.034  1.00  0.00     0.146 C 
BRANCH  73  74
ATOM     74  N   UNL     1      -1.262  17.197   3.434  1.00  0.00    -0.254 NA
ATOM     75  C   UNL     1      -0.064  17.651   3.409  1.00  0.00     0.185 C 
ATOM     76  N   UNL     1       0.171  18.855   2.863  1.00  0.00    -0.370 N 
ATOM     77  N   UNL     1       1.065  17.082   3.869  1.00  0.00    -0.370 N 
ATOM     78  H   UNL     1      -0.627  19.355   2.499  1.00  0.00     0.159 HD
ATOM     79  H   UNL     1       1.051  19.335   2.937  1.00  0.00     0.159 HD
ATOM     80  H   UNL     1       1.041  16.172   4.302  1.00  0.00     0.159 HD
ATOM     81  H   UNL     1       1.970  17.485   3.690  1.00  0.00     0.159 HD
ENDBRANCH  73  74
ENDBRANCH  72  73
ENDBRANCH  71  72
ENDBRANCH  45  71
ENDBRANCH   3  45
TORSDOF 20
ENDMDL
MODEL 6
REMARK VINA RESULT:    -5.227      2.479     10.682
REMARK INTER + INTRA:         -20.081
REMARK INTER:                 -13.988
REMARK INTRA:                  -6.093
REMARK UNBOUND:                -5.076
REMARK SMILES CCCCCC(=O)N[C@H](CC(=O)O)C(=O)N[C@H]1C(=O)N[C@H](CCCN=C(N)N)C(=O)N[C@@H]2CC[C@H](O)N(C2=O)[C@@H](CC(C)C)C(=O)N(C)[C@@H](Cc2ccccc2)C(=O)N[C@H](C(C)C)C(=O)O[C@@H]1C
REMARK SMILES IDX 30 1 31 2 29 3 32 5 35 6 37 7 34 8 38 9 33 10 39 11 36 12
REMARK SMILES IDX 40 14 41 15 42 16 43 17 44 18 45 19 46 20 47 21 48 22 49 23
REMARK SMILES IDX 50 24 51 25 52 26 56 27 53 28 55 29 54 30 57 31 58 32 59 33
REMARK SMILES IDX 60 35 61 36 62 37 63 38 64 39 65 40 66 41 67 42 68 43 21 45
REMARK SMILES IDX 20 46 18 47 19 48 17 50 16 52 14 53 15 54 9 56 8 57 6 58
REMARK SMILES IDX 7 59 5 61 4 62 3 63 2 64 1 65 10 66 11 67 12 68 13 69 22 71
REMARK SMILES IDX 23 72 24 73 25 74 26 75 27 76 28 77
REMARK H PARENT 31 4 36 13 59 34 20 49 16 55 8 60 13 70 27 78 27 79 28 80
REMARK H PARENT 28 81
REMARK Flexibility Score:  259.900
ROOT
ATOM      1  O   UNL     1      -7.773  17.791   1.513  1.00  0.00    -0.273 OA
ATOM      2  N   UNL     1      -6.891  18.546   3.484  1.00  0.00    -0.343 N 
ATOM      3  C   UNL     1      -7.841  17.879   2.740  1.00  0.00     0.243 C 
ATOM      4  H   UNL     1      -6.971  18.586   4.492  1.00  0.00     0.164 HD
ENDROOT
BRANCH   2   5
ATOM      5  C   UNL     1      -5.817  19.284   2.828  1.00  0.00     0.171 C 
ATOM      6  C   UNL     1      -4.590  19.055   0.211  1.00  0.00     0.214 C 
ATOM      7  N   UNL     1      -4.035  18.319   1.322  1.00  0.00    -0.303 N 
ATOM      8  C   UNL     1      -5.256  20.358   0.624  1.00  0.00     0.057 C 
ATOM      9  C   UNL     1      -4.602  18.343   2.587  1.00  0.00     0.247 C 
ATOM     10  C   UNL     1      -6.347  20.078   1.635  1.00  0.00     0.040 C 
ATOM     11  O   UNL     1      -4.171  17.642   3.512  1.00  0.00    -0.272 OA
BRANCH   6  12
ATOM     12  O   UNL     1      -5.515  18.216  -0.442  1.00  0.00    -0.373 OA
ATOM     13  H   UNL     1      -4.996  17.534  -0.921  1.00  0.00     0.213 HD
ENDBRANCH   6  12
BRANCH   7  14
ATOM     14  C   UNL     1      -2.908  17.408   1.028  1.00  0.00     0.177 C 
BRANCH  14  15
ATOM     15  C   UNL     1      -1.624  17.670   1.838  1.00  0.00     0.038 C 
BRANCH  15  16
ATOM     16  C   UNL     1      -0.304  17.975   1.096  1.00  0.00    -0.015 C 
ATOM     17  C   UNL     1      -0.234  17.294  -0.274  1.00  0.00     0.007 C 
ATOM     18  C   UNL     1       0.886  17.491   1.934  1.00  0.00     0.007 C 
ENDBRANCH  15  16
ENDBRANCH  14  15
BRANCH  14  19
ATOM     19  C   UNL     1      -3.446  15.996   0.610  1.00  0.00     0.245 C 
ATOM     20  O   UNL     1      -3.206  15.627  -0.552  1.00  0.00    -0.272 OA
BRANCH  19  21
ATOM     21  N   UNL     1      -4.250  15.208   1.415  1.00  0.00    -0.332 N 
ATOM     22  C   UNL     1      -5.702  15.214   1.417  1.00  0.00     0.147 C 
BRANCH  21  23
ATOM     23  C   UNL     1      -3.584  14.280   2.370  1.00  0.00     0.178 C 
BRANCH  23  24
ATOM     24  C   UNL     1      -2.049  14.412   2.433  1.00  0.00     0.070 C 
BRANCH  24  25
ATOM     25  C   UNL     1      -1.237  13.374   1.693  1.00  0.00    -0.045 A 
ATOM     26  C   UNL     1      -0.109  13.742   0.949  1.00  0.00     0.004 A 
ATOM     27  C   UNL     1      -1.609  12.022   1.738  1.00  0.00     0.004 A 
ATOM     28  C   UNL     1       0.625  12.778   0.254  1.00  0.00     0.000 A 
ATOM     29  C   UNL     1      -0.873  11.060   1.044  1.00  0.00     0.000 A 
ATOM     30  C   UNL     1       0.242  11.440   0.300  1.00  0.00     0.000 A 
ENDBRANCH  24  25
ENDBRANCH  23  24
BRANCH  23  31
ATOM     31  C   UNL     1      -4.290  14.220   3.745  1.00  0.00     0.243 C 
ATOM     32  O   UNL     1      -5.312  13.575   3.965  1.00  0.00    -0.273 OA
ATOM     33  N   UNL     1      -3.774  15.110   4.671  1.00  0.00    -0.341 N 
ATOM     34  H   UNL     1      -2.923  15.624   4.429  1.00  0.00     0.164 HD
BRANCH  33  35
ATOM     35  C   UNL     1      -4.360  15.310   5.999  1.00  0.00     0.194 C 
BRANCH  35  36
ATOM     36  C   UNL     1      -3.604  16.347   6.877  1.00  0.00     0.017 C 
ATOM     37  C   UNL     1      -4.415  17.646   7.032  1.00  0.00     0.010 C 
ATOM     38  C   UNL     1      -2.230  16.729   6.314  1.00  0.00     0.010 C 
ENDBRANCH  35  36
BRANCH  35  39
ATOM     39  C   UNL     1      -4.598  13.974   6.756  1.00  0.00     0.329 C 
ATOM     40  O   UNL     1      -3.718  13.156   6.997  1.00  0.00    -0.250 OA
BRANCH  39  41
ATOM     41  O   UNL     1      -5.885  13.850   7.201  1.00  0.00    -0.458 OA
BRANCH  41  42
ATOM     42  C   UNL     1      -6.771  14.959   6.916  1.00  0.00     0.205 CG0
ATOM     43  C   UNL     1      -7.298  15.474   8.254  1.00  0.00     0.056 C 
ATOM     44  G   UNL     1      -7.899  14.462   5.990  1.00  0.00     0.000 G0
ENDBRANCH  41  42
ENDBRANCH  39  41
ENDBRANCH  35  39
ENDBRANCH  33  35
ENDBRANCH  23  31
ENDBRANCH  21  23
ENDBRANCH  19  21
ENDBRANCH  14  19
ENDBRANCH   7  14
ENDBRANCH   2   5
BRANCH   3  45
ATOM     45  C   UNL     1      -8.976  17.237   3.547  1.00  0.00     0.171 C 
BRANCH  45  46
ATOM     46  N   UNL     1      -8.399  16.048   4.161  1.00  0.00    -0.342 N 
ATOM     47  C   UNL     1      -8.699  15.663   5.444  1.00  0.00     0.247 C 
ATOM     48  O   UNL     1      -9.528  16.248   6.141  1.00  0.00    -0.273 OA
ATOM     49  H   UNL     1      -7.750  15.502   3.598  1.00  0.00     0.164 HD
BRANCH  47  50
ATOM     50  C   UNL     1      -7.902  14.458   5.963  1.00  0.00     0.212 CG0
ATOM     51  G   UNL     1      -6.811  14.993   6.911  1.00  0.00     0.000 G0
BRANCH  50  52
ATOM     52  N   UNL     1      -8.880  13.603   6.632  1.00  0.00    -0.339 N 
ATOM     53  C   UNL     1      -8.824  12.231   6.609  1.00  0.00     0.243 C 
ATOM     54  O   UNL     1      -7.973  11.613   5.976  1.00  0.00    -0.273 OA
ATOM     55  H   UNL     1      -9.673  14.055   7.081  1.00  0.00     0.164 HD
BRANCH  53  56
ATOM     56  C   UNL     1     -10.012  11.543   7.312  1.00  0.00     0.182 C 
BRANCH  56  57
ATOM     57  N   UNL     1     -11.197  12.408   7.311  1.00  0.00    -0.344 N 
ATOM     58  C   UNL     1     -12.472  11.910   7.426  1.00  0.00     0.220 C 
ATOM     59  O   UNL     1     -12.714  10.709   7.464  1.00  0.00    -0.275 OA
ATOM     60  H   UNL     1     -11.036  13.409   7.384  1.00  0.00     0.164 HD
BRANCH  58  61
ATOM     61  C   UNL     1     -13.538  12.990   7.461  1.00  0.00     0.100 C 
BRANCH  61  62
ATOM     62  C   UNL     1     -13.162  14.253   6.686  1.00  0.00     0.010 C 
BRANCH  62  63
ATOM     63  C   UNL     1     -14.348  14.946   6.003  1.00  0.00     0.000 C 
BRANCH  63  64
ATOM     64  C   UNL     1     -13.987  15.674   4.709  1.00  0.00    -0.003 C 
ATOM     65  C   UNL     1     -14.649  15.023   3.503  1.00  0.00     0.004 C 
ENDBRANCH  63  64
ENDBRANCH  62  63
ENDBRANCH  61  62
ENDBRANCH  58  61
ENDBRANCH  56  57
BRANCH  56  66
ATOM     66  C   UNL     1      -9.639  11.079   8.719  1.00  0.00     0.157 C 
BRANCH  66  67
ATOM     67  C   UNL     1      -9.020  12.193   9.513  1.00  0.00     0.305 C 
ATOM     68  O   UNL     1      -7.893  12.219   9.985  1.00  0.00    -0.252 OA
BRANCH  67  69
ATOM     69  O   UNL     1      -9.840  13.255   9.631  1.00  0.00    -0.481 OA
ATOM     70  H   UNL     1      -9.510  13.740  10.417  1.00  0.00     0.296 HD
ENDBRANCH  67  69
ENDBRANCH  66  67
ENDBRANCH  56  66
ENDBRANCH  53  56
ENDBRANCH  50  52
ENDBRANCH  47  50
ENDBRANCH  45  46
BRANCH  45  71
ATOM     71  C   UNL     1     -10.152  16.886   2.629  1.00  0.00     0.037 C 
BRANCH  71  72
ATOM     72  C   UNL     1     -10.912  15.648   3.114  1.00  0.00     0.026 C 
BRANCH  72  73
ATOM     73  C   UNL     1     -10.717  14.465   2.169  1.00  0.00     0.146 C 
BRANCH  73  74
ATOM     74  N   UNL     1      -9.347  13.987   2.328  1.00  0.00    -0.254 NA
ATOM     75  C   UNL     1      -9.175  12.806   2.795  1.00  0.00     0.185 C 
ATOM     76  N   UNL     1      -7.926  12.337   2.952  1.00  0.00    -0.370 N 
ATOM     77  N   UNL     1     -10.098  11.906   3.177  1.00  0.00    -0.370 N 
ATOM     78  H   UNL     1      -7.170  12.956   2.695  1.00  0.00     0.159 HD
ATOM     79  H   UNL     1      -7.711  11.487   3.443  1.00  0.00     0.159 HD
ATOM     80  H   UNL     1     -11.082  12.119   3.112  1.00  0.00     0.159 HD
ATOM     81  H   UNL     1      -9.846  10.962   3.422  1.00  0.00     0.159 HD
ENDBRANCH  73  74
ENDBRANCH  72  73
ENDBRANCH  71  72
ENDBRANCH  45  71
ENDBRANCH   3  45
TORSDOF 20
ENDMDL
MODEL 7
REMARK VINA RESULT:    -5.217      2.721     11.481
REMARK INTER + INTRA:         -20.053
REMARK INTER:                 -13.372
REMARK INTRA:                  -6.681
REMARK UNBOUND:                -5.076
REMARK SMILES CCCCCC(=O)N[C@H](CC(=O)O)C(=O)N[C@H]1C(=O)N[C@H](CCCN=C(N)N)C(=O)N[C@@H]2CC[C@H](O)N(C2=O)[C@@H](CC(C)C)C(=O)N(C)[C@@H](Cc2ccccc2)C(=O)N[C@H](C(C)C)C(=O)O[C@@H]1C
REMARK SMILES IDX 30 1 31 2 29 3 32 5 35 6 37 7 34 8 38 9 33 10 39 11 36 12
REMARK SMILES IDX 40 14 41 15 42 16 43 17 44 18 45 19 46 20 47 21 48 22 49 23
REMARK SMILES IDX 50 24 51 25 52 26 56 27 53 28 55 29 54 30 57 31 58 32 59 33
REMARK SMILES IDX 60 35 61 36 62 37 63 38 64 39 65 40 66 41 67 42 68 43 21 45
REMARK SMILES IDX 20 46 18 47 19 48 17 50 16 52 14 53 15 54 9 56 8 57 6 58
REMARK SMILES IDX 7 59 5 61 4 62 3 63 2 64 1 65 10 66 11 67 12 68 13 69 22 71
REMARK SMILES IDX 23 72 24 73 25 74 26 75 27 76 28 77
REMARK H PARENT 31 4 36 13 59 34 20 49 16 55 8 60 13 70 27 78 27 79 28 80
REMARK H PARENT 28 81
REMARK Flexibility Score:  259.900
ROOT
ATOM      1  O   UNL     1      -8.122  16.996   2.665  1.00  0.00    -0.273 OA
ATOM      2  N   UNL     1      -6.341  15.760   1.934  1.00  0.00    -0.343 N 
ATOM      3  C   UNL     1      -7.543  15.911   2.592  1.00  0.00     0.243 C 
ATOM      4  H   UNL     1      -5.901  14.850   1.882  1.00  0.00     0.164 HD
ENDROOT
BRANCH   2   5
ATOM      5  C   UNL     1      -5.641  16.920   1.392  1.00  0.00     0.171 C 
ATOM      6  C   UNL     1      -3.679  17.218  -0.721  1.00  0.00     0.214 C 
ATOM      7  N   UNL     1      -3.234  17.000   0.636  1.00  0.00    -0.303 N 
ATOM      8  C   UNL     1      -5.004  17.957  -0.808  1.00  0.00     0.057 C 
ATOM      9  C   UNL     1      -4.117  16.799   1.684  1.00  0.00     0.247 C 
ATOM     10  C   UNL     1      -6.068  17.194  -0.049  1.00  0.00     0.040 C 
ATOM     11  O   UNL     1      -3.728  16.526   2.827  1.00  0.00    -0.272 OA
BRANCH   6  12
ATOM     12  O   UNL     1      -3.774  15.961  -1.350  1.00  0.00    -0.373 OA
ATOM     13  H   UNL     1      -3.987  15.305  -0.652  1.00  0.00     0.213 HD
ENDBRANCH   6  12
BRANCH   7  14
ATOM     14  C   UNL     1      -1.778  16.850   0.848  1.00  0.00     0.177 C 
BRANCH  14  15
ATOM     15  C   UNL     1      -1.131  15.648   0.135  1.00  0.00     0.038 C 
BRANCH  15  16
ATOM     16  C   UNL     1       0.330  15.266   0.459  1.00  0.00    -0.015 C 
ATOM     17  C   UNL     1       0.628  13.793   0.167  1.00  0.00     0.007 C 
ATOM     18  C   UNL     1       0.618  15.530   1.943  1.00  0.00     0.007 C 
ENDBRANCH  15  16
ENDBRANCH  14  15
BRANCH  14  19
ATOM     19  C   UNL     1      -1.111  18.255   1.045  1.00  0.00     0.245 C 
ATOM     20  O   UNL     1      -0.188  18.549   0.267  1.00  0.00    -0.272 OA
BRANCH  19  21
ATOM     21  N   UNL     1      -1.414  19.114   2.086  1.00  0.00    -0.332 N 
ATOM     22  C   UNL     1      -2.350  20.222   2.018  1.00  0.00     0.147 C 
BRANCH  21  23
ATOM     23  C   UNL     1      -0.722  18.903   3.387  1.00  0.00     0.178 C 
BRANCH  23  24
ATOM     24  C   UNL     1       0.095  20.112   3.887  1.00  0.00     0.070 C 
BRANCH  24  25
ATOM     25  C   UNL     1       1.035  19.875   5.046  1.00  0.00    -0.045 A 
ATOM     26  C   UNL     1       0.730  20.352   6.327  1.00  0.00     0.004 A 
ATOM     27  C   UNL     1       2.235  19.174   4.852  1.00  0.00     0.004 A 
ATOM     28  C   UNL     1       1.613  20.143   7.389  1.00  0.00     0.000 A 
ATOM     29  C   UNL     1       3.116  18.966   5.914  1.00  0.00     0.000 A 
ATOM     30  C   UNL     1       2.805  19.453   7.182  1.00  0.00     0.000 A 
ENDBRANCH  24  25
ENDBRANCH  23  24
BRANCH  23  31
ATOM     31  C   UNL     1      -1.629  18.244   4.453  1.00  0.00     0.243 C 
ATOM     32  O   UNL     1      -2.490  18.845   5.089  1.00  0.00    -0.273 OA
ATOM     33  N   UNL     1      -1.261  16.946   4.767  1.00  0.00    -0.341 N 
ATOM     34  H   UNL     1      -0.532  16.500   4.205  1.00  0.00     0.164 HD
BRANCH  33  35
ATOM     35  C   UNL     1      -1.901  16.169   5.831  1.00  0.00     0.194 C 
BRANCH  35  36
ATOM     36  C   UNL     1      -1.053  16.048   7.128  1.00  0.00     0.017 C 
ATOM     37  C   UNL     1      -1.648  16.894   8.267  1.00  0.00     0.010 C 
ATOM     38  C   UNL     1       0.404  16.491   6.941  1.00  0.00     0.010 C 
ENDBRANCH  35  36
BRANCH  35  39
ATOM     39  C   UNL     1      -2.408  14.785   5.338  1.00  0.00     0.329 C 
ATOM     40  O   UNL     1      -1.936  14.182   4.382  1.00  0.00    -0.250 OA
BRANCH  39  41
ATOM     41  O   UNL     1      -3.386  14.271   6.145  1.00  0.00    -0.458 OA
BRANCH  41  42
ATOM     42  C   UNL     1      -4.694  14.881   6.034  1.00  0.00     0.205 CG0
ATOM     43  C   UNL     1      -4.808  15.918   7.150  1.00  0.00     0.056 C 
ATOM     44  G   UNL     1      -5.763  13.775   6.146  1.00  0.00     0.000 G0
ENDBRANCH  41  42
ENDBRANCH  39  41
ENDBRANCH  35  39
ENDBRANCH  33  35
ENDBRANCH  23  31
ENDBRANCH  21  23
ENDBRANCH  19  21
ENDBRANCH  14  19
ENDBRANCH   7  14
ENDBRANCH   2   5
BRANCH   3  45
ATOM     45  C   UNL     1      -8.120  14.630   3.209  1.00  0.00     0.171 C 
BRANCH  45  46
ATOM     46  N   UNL     1      -7.071  14.102   4.071  1.00  0.00    -0.342 N 
ATOM     47  C   UNL     1      -7.049  14.325   5.425  1.00  0.00     0.247 C 
ATOM     48  O   UNL     1      -7.947  14.922   6.019  1.00  0.00    -0.273 OA
ATOM     49  H   UNL     1      -6.337  13.553   3.628  1.00  0.00     0.164 HD
BRANCH  47  50
ATOM     50  C   UNL     1      -5.803  13.797   6.150  1.00  0.00     0.212 CG0
ATOM     51  G   UNL     1      -4.697  14.862   6.015  1.00  0.00     0.000 G0
BRANCH  50  52
ATOM     52  N   UNL     1      -6.221  13.572   7.531  1.00  0.00    -0.339 N 
ATOM     53  C   UNL     1      -6.697  12.368   7.991  1.00  0.00     0.243 C 
ATOM     54  O   UNL     1      -6.858  11.397   7.257  1.00  0.00    -0.273 OA
ATOM     55  H   UNL     1      -6.217  14.371   8.163  1.00  0.00     0.164 HD
BRANCH  53  56
ATOM     56  C   UNL     1      -7.159  12.396   9.462  1.00  0.00     0.182 C 
BRANCH  56  57
ATOM     57  N   UNL     1      -8.610  12.585   9.555  1.00  0.00    -0.344 N 
ATOM     58  C   UNL     1      -9.491  11.531   9.562  1.00  0.00     0.220 C 
ATOM     59  O   UNL     1      -9.133  10.367   9.417  1.00  0.00    -0.275 OA
ATOM     60  H   UNL     1      -8.939  13.521   9.778  1.00  0.00     0.164 HD
BRANCH  58  61
ATOM     61  C   UNL     1     -10.938  11.957   9.725  1.00  0.00     0.100 C 
BRANCH  61  62
ATOM     62  C   UNL     1     -11.942  10.966   9.137  1.00  0.00     0.010 C 
BRANCH  62  63
ATOM     63  C   UNL     1     -13.332  11.561   8.877  1.00  0.00     0.000 C 
BRANCH  63  64
ATOM     64  C   UNL     1     -13.312  12.908   8.156  1.00  0.00    -0.003 C 
ATOM     65  C   UNL     1     -12.862  12.758   6.710  1.00  0.00     0.004 C 
ENDBRANCH  63  64
ENDBRANCH  62  63
ENDBRANCH  61  62
ENDBRANCH  58  61
ENDBRANCH  56  57
BRANCH  56  66
ATOM     66  C   UNL     1      -6.388  13.438  10.271  1.00  0.00     0.157 C 
BRANCH  66  67
ATOM     67  C   UNL     1      -7.207  14.680  10.478  1.00  0.00     0.305 C 
ATOM     68  O   UNL     1      -7.394  15.267  11.532  1.00  0.00    -0.252 OA
BRANCH  67  69
ATOM     69  O   UNL     1      -7.712  15.157   9.324  1.00  0.00    -0.481 OA
ATOM     70  H   UNL     1      -7.079  15.850   9.042  1.00  0.00     0.296 HD
ENDBRANCH  67  69
ENDBRANCH  66  67
ENDBRANCH  56  66
ENDBRANCH  53  56
ENDBRANCH  50  52
ENDBRANCH  47  50
ENDBRANCH  45  46
BRANCH  45  71
ATOM     71  C   UNL     1      -8.504  13.634   2.110  1.00  0.00     0.037 C 
BRANCH  71  72
ATOM     72  C   UNL     1      -9.982  13.244   2.177  1.00  0.00     0.026 C 
BRANCH  72  73
ATOM     73  C   UNL     1     -10.166  11.841   2.753  1.00  0.00     0.146 C 
BRANCH  73  74
ATOM     74  N   UNL     1     -10.354  11.971   4.194  1.00  0.00    -0.254 NA
ATOM     75  C   UNL     1      -9.496  11.410   4.963  1.00  0.00     0.185 C 
ATOM     76  N   UNL     1      -9.642  11.512   6.294  1.00  0.00    -0.370 N 
ATOM     77  N   UNL     1      -8.408  10.692   4.634  1.00  0.00    -0.370 N 
ATOM     78  H   UNL     1     -10.442  12.031   6.628  1.00  0.00     0.159 HD
ATOM     79  H   UNL     1      -9.098  10.983   6.953  1.00  0.00     0.159 HD
ATOM     80  H   UNL     1      -8.170  10.535   3.666  1.00  0.00     0.159 HD
ATOM     81  H   UNL     1      -7.741  10.396   5.327  1.00  0.00     0.159 HD
ENDBRANCH  73  74
ENDBRANCH  72  73
ENDBRANCH  71  72
ENDBRANCH  45  71
ENDBRANCH   3  45
TORSDOF 20
ENDMDL
MODEL 8
REMARK VINA RESULT:    -5.162      3.553     11.663
REMARK INTER + INTRA:         -19.894
REMARK INTER:                 -13.539
REMARK INTRA:                  -6.356
REMARK UNBOUND:                -5.076
REMARK SMILES CCCCCC(=O)N[C@H](CC(=O)O)C(=O)N[C@H]1C(=O)N[C@H](CCCN=C(N)N)C(=O)N[C@@H]2CC[C@H](O)N(C2=O)[C@@H](CC(C)C)C(=O)N(C)[C@@H](Cc2ccccc2)C(=O)N[C@H](C(C)C)C(=O)O[C@@H]1C
REMARK SMILES IDX 30 1 31 2 29 3 32 5 35 6 37 7 34 8 38 9 33 10 39 11 36 12
REMARK SMILES IDX 40 14 41 15 42 16 43 17 44 18 45 19 46 20 47 21 48 22 49 23
REMARK SMILES IDX 50 24 51 25 52 26 56 27 53 28 55 29 54 30 57 31 58 32 59 33
REMARK SMILES IDX 60 35 61 36 62 37 63 38 64 39 65 40 66 41 67 42 68 43 21 45
REMARK SMILES IDX 20 46 18 47 19 48 17 50 16 52 14 53 15 54 9 56 8 57 6 58
REMARK SMILES IDX 7 59 5 61 4 62 3 63 2 64 1 65 10 66 11 67 12 68 13 69 22 71
REMARK SMILES IDX 23 72 24 73 25 74 26 75 27 76 28 77
REMARK H PARENT 31 4 36 13 59 34 20 49 16 55 8 60 13 70 27 78 27 79 28 80
REMARK H PARENT 28 81
REMARK Flexibility Score:  259.900
ROOT
ATOM      1  O   UNL     1     -11.885  17.549   3.149  1.00  0.00    -0.273 OA
ATOM      2  N   UNL     1     -10.654  15.640   2.882  1.00  0.00    -0.343 N 
ATOM      3  C   UNL     1     -11.806  16.321   3.210  1.00  0.00     0.243 C 
ATOM      4  H   UNL     1     -10.631  14.628   2.929  1.00  0.00     0.164 HD
ENDROOT
BRANCH   2   5
ATOM      5  C   UNL     1      -9.430  16.364   2.558  1.00  0.00     0.171 C 
ATOM      6  C   UNL     1      -6.851  15.508   1.549  1.00  0.00     0.214 C 
ATOM      7  N   UNL     1      -7.067  15.578   2.975  1.00  0.00    -0.303 N 
ATOM      8  C   UNL     1      -7.674  16.517   0.764  1.00  0.00     0.057 C 
ATOM      9  C   UNL     1      -8.290  15.930   3.524  1.00  0.00     0.247 C 
ATOM     10  C   UNL     1      -9.145  16.317   1.058  1.00  0.00     0.040 C 
ATOM     11  O   UNL     1      -8.493  15.904   4.745  1.00  0.00    -0.272 OA
BRANCH   6  12
ATOM     12  O   UNL     1      -7.151  14.197   1.131  1.00  0.00    -0.373 OA
ATOM     13  H   UNL     1      -6.428  13.619   1.456  1.00  0.00     0.213 HD
ENDBRANCH   6  12
BRANCH   7  14
ATOM     14  C   UNL     1      -5.966  15.114   3.844  1.00  0.00     0.177 C 
BRANCH  14  15
ATOM     15  C   UNL     1      -5.442  13.697   3.540  1.00  0.00     0.038 C 
BRANCH  15  16
ATOM     16  C   UNL     1      -4.356  13.076   4.446  1.00  0.00    -0.015 C 
ATOM     17  C   UNL     1      -3.113  12.650   3.659  1.00  0.00     0.007 C 
ATOM     18  C   UNL     1      -4.920  11.840   5.159  1.00  0.00     0.007 C 
ENDBRANCH  15  16
ENDBRANCH  14  15
BRANCH  14  19
ATOM     19  C   UNL     1      -5.084  16.328   4.300  1.00  0.00     0.245 C 
ATOM     20  O   UNL     1      -4.073  16.571   3.620  1.00  0.00    -0.272 OA
BRANCH  19  21
ATOM     21  N   UNL     1      -5.308  17.052   5.457  1.00  0.00    -0.332 N 
ATOM     22  C   UNL     1      -5.826  18.407   5.516  1.00  0.00     0.147 C 
BRANCH  21  23
ATOM     23  C   UNL     1      -4.984  16.403   6.758  1.00  0.00     0.178 C 
BRANCH  23  24
ATOM     24  C   UNL     1      -4.023  17.206   7.658  1.00  0.00     0.070 C 
BRANCH  24  25
ATOM     25  C   UNL     1      -2.549  16.898   7.539  1.00  0.00    -0.045 A 
ATOM     26  C   UNL     1      -2.048  16.203   6.431  1.00  0.00     0.004 A 
ATOM     27  C   UNL     1      -1.658  17.303   8.545  1.00  0.00     0.004 A 
ATOM     28  C   UNL     1      -0.687  15.908   6.337  1.00  0.00     0.000 A 
ATOM     29  C   UNL     1      -0.297  17.008   8.449  1.00  0.00     0.000 A 
ATOM     30  C   UNL     1       0.187  16.308   7.345  1.00  0.00     0.000 A 
ENDBRANCH  24  25
ENDBRANCH  23  24
BRANCH  23  31
ATOM     31  C   UNL     1      -6.231  15.836   7.477  1.00  0.00     0.243 C 
ATOM     32  O   UNL     1      -6.915  16.476   8.272  1.00  0.00    -0.273 OA
ATOM     33  N   UNL     1      -6.408  14.476   7.289  1.00  0.00    -0.341 N 
ATOM     34  H   UNL     1      -5.803  13.996   6.618  1.00  0.00     0.164 HD
BRANCH  33  35
ATOM     35  C   UNL     1      -7.452  13.705   7.969  1.00  0.00     0.194 C 
BRANCH  35  36
ATOM     36  C   UNL     1      -6.925  12.791   9.111  1.00  0.00     0.017 C 
ATOM     37  C   UNL     1      -7.261  13.375  10.495  1.00  0.00     0.010 C 
ATOM     38  C   UNL     1      -5.408  12.575   9.061  1.00  0.00     0.010 C 
ENDBRANCH  35  36
BRANCH  35  39
ATOM     39  C   UNL     1      -8.362  12.927   6.978  1.00  0.00     0.329 C 
ATOM     40  O   UNL     1      -7.996  12.529   5.878  1.00  0.00    -0.250 OA
BRANCH  39  41
ATOM     41  O   UNL     1      -9.595  12.659   7.505  1.00  0.00    -0.458 OA
BRANCH  41  42
ATOM     42  C   UNL     1     -10.608  13.676   7.317  1.00  0.00     0.205 CG0
ATOM     43  C   UNL     1     -11.144  14.044   8.698  1.00  0.00     0.056 C 
ATOM     44  G   UNL     1     -11.704  13.114   6.389  1.00  0.00     0.000 G0
ENDBRANCH  41  42
ENDBRANCH  39  41
ENDBRANCH  35  39
ENDBRANCH  33  35
ENDBRANCH  23  31
ENDBRANCH  21  23
ENDBRANCH  19  21
ENDBRANCH  14  19
ENDBRANCH   7  14
ENDBRANCH   2   5
BRANCH   3  45
ATOM     45  C   UNL     1     -12.991  15.443   3.636  1.00  0.00     0.171 C 
BRANCH  45  46
ATOM     46  N   UNL     1     -12.411  14.338   4.388  1.00  0.00    -0.342 N 
ATOM     47  C   UNL     1     -12.492  14.255   5.756  1.00  0.00     0.247 C 
ATOM     48  O   UNL     1     -13.121  15.065   6.438  1.00  0.00    -0.273 OA
ATOM     49  H   UNL     1     -11.929  13.615   3.857  1.00  0.00     0.164 HD
BRANCH  47  50
ATOM     50  C   UNL     1     -11.717  13.089   6.384  1.00  0.00     0.212 CG0
ATOM     51  G   UNL     1     -10.622  13.688   7.288  1.00  0.00     0.000 G0
BRANCH  50  52
ATOM     52  N   UNL     1     -12.711  12.311   7.119  1.00  0.00    -0.339 N 
ATOM     53  C   UNL     1     -13.616  11.474   6.512  1.00  0.00     0.243 C 
ATOM     54  O   UNL     1     -13.693  11.357   5.292  1.00  0.00    -0.273 OA
ATOM     55  H   UNL     1     -12.770  12.451   8.126  1.00  0.00     0.164 HD
BRANCH  53  56
ATOM     56  C   UNL     1     -14.622  10.827   7.485  1.00  0.00     0.182 C 
BRANCH  56  57
ATOM     57  N   UNL     1     -14.932   9.451   7.082  1.00  0.00    -0.344 N 
ATOM     58  C   UNL     1     -14.695   8.373   7.899  1.00  0.00     0.220 C 
ATOM     59  O   UNL     1     -14.141   8.476   8.988  1.00  0.00    -0.275 OA
ATOM     60  H   UNL     1     -15.482   9.333   6.235  1.00  0.00     0.164 HD
BRANCH  58  61
ATOM     61  C   UNL     1     -15.148   7.054   7.301  1.00  0.00     0.100 C 
BRANCH  61  62
ATOM     62  C   UNL     1     -15.119   5.888   8.290  1.00  0.00     0.010 C 
BRANCH  62  63
ATOM     63  C   UNL     1     -15.274   4.508   7.637  1.00  0.00     0.000 C 
BRANCH  63  64
ATOM     64  C   UNL     1     -13.984   3.949   7.040  1.00  0.00    -0.003 C 
ATOM     65  C   UNL     1     -14.174   2.524   6.540  1.00  0.00     0.004 C 
ENDBRANCH  63  64
ENDBRANCH  62  63
ENDBRANCH  61  62
ENDBRANCH  58  61
ENDBRANCH  56  57
BRANCH  56  66
ATOM     66  C   UNL     1     -15.879  11.680   7.640  1.00  0.00     0.157 C 
BRANCH  66  67
ATOM     67  C   UNL     1     -15.722  12.682   8.748  1.00  0.00     0.305 C 
ATOM     68  O   UNL     1     -15.995  12.519   9.927  1.00  0.00    -0.252 OA
BRANCH  67  69
ATOM     69  O   UNL     1     -15.175  13.836   8.320  1.00  0.00    -0.481 OA
ATOM     70  H   UNL     1     -15.494  13.937   7.398  1.00  0.00     0.296 HD
ENDBRANCH  67  69
ENDBRANCH  66  67
ENDBRANCH  56  66
ENDBRANCH  53  56
ENDBRANCH  50  52
ENDBRANCH  47  50
ENDBRANCH  45  46
BRANCH  45  71
ATOM     71  C   UNL     1     -13.758  14.948   2.405  1.00  0.00     0.037 C 
BRANCH  71  72
ATOM     72  C   UNL     1     -13.650  13.431   2.231  1.00  0.00     0.026 C 
BRANCH  72  73
ATOM     73  C   UNL     1     -12.536  13.058   1.255  1.00  0.00     0.146 C 
BRANCH  73  74
ATOM     74  N   UNL     1     -11.373  12.652   2.038  1.00  0.00    -0.254 NA
ATOM     75  C   UNL     1     -11.394  11.493   2.586  1.00  0.00     0.185 C 
ATOM     76  N   UNL     1     -10.338  11.091   3.311  1.00  0.00    -0.370 N 
ATOM     77  N   UNL     1     -12.360  10.559   2.549  1.00  0.00    -0.370 N 
ATOM     78  H   UNL     1      -9.568  11.739   3.396  1.00  0.00     0.159 HD
ATOM     79  H   UNL     1     -10.342  10.266   3.885  1.00  0.00     0.159 HD
ATOM     80  H   UNL     1     -13.214  10.722   2.036  1.00  0.00     0.159 HD
ATOM     81  H   UNL     1     -12.217   9.636   2.924  1.00  0.00     0.159 HD
ENDBRANCH  73  74
ENDBRANCH  72  73
ENDBRANCH  71  72
ENDBRANCH  45  71
ENDBRANCH   3  45
TORSDOF 20
ENDMDL
MODEL 9
REMARK VINA RESULT:    -5.073      2.719     10.960
REMARK INTER + INTRA:         -19.638
REMARK INTER:                 -13.737
REMARK INTRA:                  -5.901
REMARK UNBOUND:                -5.076
REMARK SMILES CCCCCC(=O)N[C@H](CC(=O)O)C(=O)N[C@H]1C(=O)N[C@H](CCCN=C(N)N)C(=O)N[C@@H]2CC[C@H](O)N(C2=O)[C@@H](CC(C)C)C(=O)N(C)[C@@H](Cc2ccccc2)C(=O)N[C@H](C(C)C)C(=O)O[C@@H]1C
REMARK SMILES IDX 30 1 31 2 29 3 32 5 35 6 37 7 34 8 38 9 33 10 39 11 36 12
REMARK SMILES IDX 40 14 41 15 42 16 43 17 44 18 45 19 46 20 47 21 48 22 49 23
REMARK SMILES IDX 50 24 51 25 52 26 56 27 53 28 55 29 54 30 57 31 58 32 59 33
REMARK SMILES IDX 60 35 61 36 62 37 63 38 64 39 65 40 66 41 67 42 68 43 21 45
REMARK SMILES IDX 20 46 18 47 19 48 17 50 16 52 14 53 15 54 9 56 8 57 6 58
REMARK SMILES IDX 7 59 5 61 4 62 3 63 2 64 1 65 10 66 11 67 12 68 13 69 22 71
REMARK SMILES IDX 23 72 24 73 25 74 26 75 27 76 28 77
REMARK H PARENT 31 4 36 13 59 34 20 49 16 55 8 60 13 70 27 78 27 79 28 80
REMARK H PARENT 28 81
REMARK Flexibility Score:  259.900
ROOT
ATOM      1  O   UNL     1      -7.584  17.137   1.588  1.00  0.00    -0.273 OA
ATOM      2  N   UNL     1      -7.319  18.262   3.562  1.00  0.00    -0.343 N 
ATOM      3  C   UNL     1      -7.924  17.321   2.757  1.00  0.00     0.243 C 
ATOM      4  H   UNL     1      -7.615  18.375   4.523  1.00  0.00     0.164 HD
ENDROOT
BRANCH   2   5
ATOM      5  C   UNL     1      -6.316  19.171   3.017  1.00  0.00     0.171 C 
ATOM      6  C   UNL     1      -4.774  19.149   0.562  1.00  0.00     0.214 C 
ATOM      7  N   UNL     1      -4.235  18.520   1.745  1.00  0.00    -0.303 N 
ATOM      8  C   UNL     1      -5.693  20.321   0.869  1.00  0.00     0.057 C 
ATOM      9  C   UNL     1      -4.940  18.450   2.936  1.00  0.00     0.247 C 
ATOM     10  C   UNL     1      -6.831  19.861   1.755  1.00  0.00     0.040 C 
ATOM     11  O   UNL     1      -4.507  17.835   3.919  1.00  0.00    -0.272 OA
BRANCH   6  12
ATOM     12  O   UNL     1      -5.461  18.164  -0.174  1.00  0.00    -0.373 OA
ATOM     13  H   UNL     1      -5.060  17.299   0.059  1.00  0.00     0.213 HD
ENDBRANCH   6  12
BRANCH   7  14
ATOM     14  C   UNL     1      -2.944  17.815   1.600  1.00  0.00     0.177 C 
BRANCH  14  15
ATOM     15  C   UNL     1      -1.904  18.116   2.697  1.00  0.00     0.038 C 
BRANCH  15  16
ATOM     16  C   UNL     1      -0.414  17.799   2.442  1.00  0.00    -0.015 C 
ATOM     17  C   UNL     1       0.507  18.437   3.486  1.00  0.00     0.007 C 
ATOM     18  C   UNL     1      -0.003  18.318   1.058  1.00  0.00     0.007 C 
ENDBRANCH  15  16
ENDBRANCH  14  15
BRANCH  14  19
ATOM     19  C   UNL     1      -3.160  16.422   0.914  1.00  0.00     0.245 C 
ATOM     20  O   UNL     1      -2.629  16.259  -0.198  1.00  0.00    -0.272 OA
BRANCH  19  21
ATOM     21  N   UNL     1      -3.984  15.433   1.419  1.00  0.00    -0.332 N 
ATOM     22  C   UNL     1      -5.379  15.237   1.067  1.00  0.00     0.147 C 
BRANCH  21  23
ATOM     23  C   UNL     1      -3.408  14.489   2.417  1.00  0.00     0.178 C 
BRANCH  23  24
ATOM     24  C   UNL     1      -1.867  14.482   2.484  1.00  0.00     0.070 C 
BRANCH  24  25
ATOM     25  C   UNL     1      -1.149  13.408   1.701  1.00  0.00    -0.045 A 
ATOM     26  C   UNL     1      -1.558  12.070   1.778  1.00  0.00     0.004 A 
ATOM     27  C   UNL     1      -0.054  13.737   0.888  1.00  0.00     0.004 A 
ATOM     28  C   UNL     1      -0.878  11.080   1.065  1.00  0.00     0.000 A 
ATOM     29  C   UNL     1       0.623  12.746   0.175  1.00  0.00     0.000 A 
ATOM     30  C   UNL     1       0.212  11.418   0.266  1.00  0.00     0.000 A 
ENDBRANCH  24  25
ENDBRANCH  23  24
BRANCH  23  31
ATOM     31  C   UNL     1      -4.119  14.553   3.789  1.00  0.00     0.243 C 
ATOM     32  O   UNL     1      -5.257  14.137   3.994  1.00  0.00    -0.273 OA
ATOM     33  N   UNL     1      -3.431  15.294   4.735  1.00  0.00    -0.341 N 
ATOM     34  H   UNL     1      -2.489  15.620   4.505  1.00  0.00     0.164 HD
BRANCH  33  35
ATOM     35  C   UNL     1      -3.970  15.589   6.066  1.00  0.00     0.194 C 
BRANCH  35  36
ATOM     36  C   UNL     1      -3.018  16.429   6.964  1.00  0.00     0.017 C 
ATOM     37  C   UNL     1      -3.713  17.703   7.475  1.00  0.00     0.010 C 
ATOM     38  C   UNL     1      -1.735  16.862   6.246  1.00  0.00     0.010 C 
ENDBRANCH  35  36
BRANCH  35  39
ATOM     39  C   UNL     1      -4.485  14.317   6.797  1.00  0.00     0.329 C 
ATOM     40  O   UNL     1      -3.917  13.232   6.769  1.00  0.00    -0.250 OA
BRANCH  39  41
ATOM     41  O   UNL     1      -5.601  14.566   7.548  1.00  0.00    -0.458 OA
BRANCH  41  42
ATOM     42  C   UNL     1      -6.581  15.457   6.964  1.00  0.00     0.205 CG0
ATOM     43  C   UNL     1      -6.931  16.502   8.022  1.00  0.00     0.056 C 
ATOM     44  G   UNL     1      -7.804  14.626   6.529  1.00  0.00     0.000 G0
ENDBRANCH  41  42
ENDBRANCH  39  41
ENDBRANCH  35  39
ENDBRANCH  33  35
ENDBRANCH  23  31
ENDBRANCH  21  23
ENDBRANCH  19  21
ENDBRANCH  14  19
ENDBRANCH   7  14
ENDBRANCH   2   5
BRANCH   3  45
ATOM     45  C   UNL     1      -9.038  16.504   3.425  1.00  0.00     0.171 C 
BRANCH  45  46
ATOM     46  N   UNL     1      -8.365  15.613   4.362  1.00  0.00    -0.342 N 
ATOM     47  C   UNL     1      -8.729  15.522   5.682  1.00  0.00     0.247 C 
ATOM     48  O   UNL     1      -9.692  16.128   6.153  1.00  0.00    -0.273 OA
ATOM     49  H   UNL     1      -7.598  15.050   3.999  1.00  0.00     0.164 HD
BRANCH  47  50
ATOM     50  C   UNL     1      -7.828  14.626   6.544  1.00  0.00     0.212 CG0
ATOM     51  G   UNL     1      -6.598  15.459   6.957  1.00  0.00     0.000 G0
BRANCH  50  52
ATOM     52  N   UNL     1      -8.654  14.216   7.676  1.00  0.00    -0.339 N 
ATOM     53  C   UNL     1      -9.213  12.966   7.790  1.00  0.00     0.243 C 
ATOM     54  O   UNL     1      -9.103  12.109   6.918  1.00  0.00    -0.273 OA
ATOM     55  H   UNL     1      -8.875  14.918   8.379  1.00  0.00     0.164 HD
BRANCH  53  56
ATOM     56  C   UNL     1     -10.116  12.794   9.028  1.00  0.00     0.182 C 
BRANCH  56  57
ATOM     57  N   UNL     1     -11.353  12.086   8.683  1.00  0.00    -0.344 N 
ATOM     58  C   UNL     1     -11.715  10.903   9.279  1.00  0.00     0.220 C 
ATOM     59  O   UNL     1     -10.998  10.319  10.085  1.00  0.00    -0.275 OA
ATOM     60  H   UNL     1     -12.020  12.583   8.098  1.00  0.00     0.164 HD
BRANCH  58  61
ATOM     61  C   UNL     1     -13.061  10.380   8.811  1.00  0.00     0.100 C 
BRANCH  61  62
ATOM     62  C   UNL     1     -14.002  11.471   8.301  1.00  0.00     0.010 C 
BRANCH  62  63
ATOM     63  C   UNL     1     -15.483  11.215   8.606  1.00  0.00     0.000 C 
BRANCH  63  64
ATOM     64  C   UNL     1     -16.032   9.921   8.007  1.00  0.00    -0.003 C 
ATOM     65  C   UNL     1     -16.110  10.000   6.490  1.00  0.00     0.004 C 
ENDBRANCH  63  64
ENDBRANCH  62  63
ENDBRANCH  61  62
ENDBRANCH  58  61
ENDBRANCH  56  57
BRANCH  56  66
ATOM     66  C   UNL     1     -10.390  14.132   9.713  1.00  0.00     0.157 C 
BRANCH  66  67
ATOM     67  C   UNL     1     -11.856  14.457   9.705  1.00  0.00     0.305 C 
ATOM     68  O   UNL     1     -12.472  15.042   8.828  1.00  0.00    -0.252 OA
BRANCH  67  69
ATOM     69  O   UNL     1     -12.492  13.979  10.792  1.00  0.00    -0.481 OA
ATOM     70  H   UNL     1     -12.674  13.039  10.581  1.00  0.00     0.296 HD
ENDBRANCH  67  69
ENDBRANCH  66  67
ENDBRANCH  56  66
ENDBRANCH  53  56
ENDBRANCH  50  52
ENDBRANCH  47  50
ENDBRANCH  45  46
BRANCH  45  71
ATOM     71  C   UNL     1      -9.832  15.722   2.373  1.00  0.00     0.037 C 
BRANCH  71  72
ATOM     72  C   UNL     1     -10.546  14.509   2.974  1.00  0.00     0.026 C 
BRANCH  72  73
ATOM     73  C   UNL     1     -10.091  13.208   2.316  1.00  0.00     0.146 C 
BRANCH  73  74
ATOM     74  N   UNL     1      -9.524  12.356   3.356  1.00  0.00    -0.254 NA
ATOM     75  C   UNL     1      -8.251  12.204   3.379  1.00  0.00     0.185 C 
ATOM     76  N   UNL     1      -7.700  11.427   4.325  1.00  0.00    -0.370 N 
ATOM     77  N   UNL     1      -7.323  12.729   2.560  1.00  0.00    -0.370 N 
ATOM     78  H   UNL     1      -8.330  10.986   4.979  1.00  0.00     0.159 HD
ATOM     79  H   UNL     1      -6.735  11.147   4.318  1.00  0.00     0.159 HD
ATOM     80  H   UNL     1      -7.592  13.339   1.803  1.00  0.00     0.159 HD
ATOM     81  H   UNL     1      -6.339  12.632   2.746  1.00  0.00     0.159 HD
ENDBRANCH  73  74
ENDBRANCH  72  73
ENDBRANCH  71  72
ENDBRANCH  45  71
ENDBRANCH   3  45
TORSDOF 20
ENDMDL
MODEL 10
REMARK VINA RESULT:    -5.015      2.175      3.897
REMARK INTER + INTRA:         -19.471
REMARK INTER:                 -12.409
REMARK INTRA:                  -7.063
REMARK UNBOUND:                -5.076
REMARK SMILES CCCCCC(=O)N[C@H](CC(=O)O)C(=O)N[C@H]1C(=O)N[C@H](CCCN=C(N)N)C(=O)N[C@@H]2CC[C@H](O)N(C2=O)[C@@H](CC(C)C)C(=O)N(C)[C@@H](Cc2ccccc2)C(=O)N[C@H](C(C)C)C(=O)O[C@@H]1C
REMARK SMILES IDX 30 1 31 2 29 3 32 5 35 6 37 7 34 8 38 9 33 10 39 11 36 12
REMARK SMILES IDX 40 14 41 15 42 16 43 17 44 18 45 19 46 20 47 21 48 22 49 23
REMARK SMILES IDX 50 24 51 25 52 26 56 27 53 28 55 29 54 30 57 31 58 32 59 33
REMARK SMILES IDX 60 35 61 36 62 37 63 38 64 39 65 40 66 41 67 42 68 43 21 45
REMARK SMILES IDX 20 46 18 47 19 48 17 50 16 52 14 53 15 54 9 56 8 57 6 58
REMARK SMILES IDX 7 59 5 61 4 62 3 63 2 64 1 65 10 66 11 67 12 68 13 69 22 71
REMARK SMILES IDX 23 72 24 73 25 74 26 75 27 76 28 77
REMARK H PARENT 31 4 36 13 59 34 20 49 16 55 8 60 13 70 27 78 27 79 28 80
REMARK H PARENT 28 81
REMARK Flexibility Score:  259.900
ROOT
ATOM      1  O   UNL     1      -6.479  14.023   5.545  1.00  0.00    -0.273 OA
ATOM      2  N   UNL     1      -5.750  13.863   7.707  1.00  0.00    -0.343 N 
ATOM      3  C   UNL     1      -5.698  14.377   6.429  1.00  0.00     0.243 C 
ATOM      4  H   UNL     1      -5.101  14.189   8.412  1.00  0.00     0.164 HD
ENDROOT
BRANCH   2   5
ATOM      5  C   UNL     1      -6.668  12.778   8.034  1.00  0.00     0.171 C 
ATOM      6  C   UNL     1      -8.813  11.506   6.555  1.00  0.00     0.214 C 
ATOM      7  N   UNL     1      -9.109  12.636   7.405  1.00  0.00    -0.303 N 
ATOM      8  C   UNL     1      -7.634  10.679   7.043  1.00  0.00     0.057 C 
ATOM      9  C   UNL     1      -8.125  13.321   8.099  1.00  0.00     0.247 C 
ATOM     10  C   UNL     1      -6.406  11.554   7.158  1.00  0.00     0.040 C 
ATOM     11  O   UNL     1      -8.374  14.341   8.756  1.00  0.00    -0.272 OA
BRANCH   6  12
ATOM     12  O   UNL     1      -8.566  11.996   5.257  1.00  0.00    -0.373 OA
ATOM     13  H   UNL     1      -8.485  11.217   4.667  1.00  0.00     0.213 HD
ENDBRANCH   6  12
BRANCH   7  14
ATOM     14  C   UNL     1     -10.500  13.136   7.395  1.00  0.00     0.177 C 
BRANCH  14  15
ATOM     15  C   UNL     1     -11.240  13.044   8.743  1.00  0.00     0.038 C 
BRANCH  15  16
ATOM     16  C   UNL     1     -11.934  11.723   9.142  1.00  0.00    -0.015 C 
ATOM     17  C   UNL     1     -10.959  10.710   9.748  1.00  0.00     0.007 C 
ATOM     18  C   UNL     1     -12.583  11.085   7.907  1.00  0.00     0.007 C 
ENDBRANCH  15  16
ENDBRANCH  14  15
BRANCH  14  19
ATOM     19  C   UNL     1     -10.652  14.299   6.354  1.00  0.00     0.245 C 
ATOM     20  O   UNL     1      -9.695  14.490   5.585  1.00  0.00    -0.272 OA
BRANCH  19  21
ATOM     21  N   UNL     1     -11.725  15.172   6.325  1.00  0.00    -0.332 N 
ATOM     22  C   UNL     1     -13.099  14.810   6.029  1.00  0.00     0.147 C 
BRANCH  21  23
ATOM     23  C   UNL     1     -11.459  16.610   6.610  1.00  0.00     0.178 C 
BRANCH  23  24
ATOM     24  C   UNL     1     -10.531  16.868   7.815  1.00  0.00     0.070 C 
BRANCH  24  25
ATOM     25  C   UNL     1      -9.441  17.899   7.635  1.00  0.00    -0.045 A 
ATOM     26  C   UNL     1      -9.736  19.268   7.662  1.00  0.00     0.004 A 
ATOM     27  C   UNL     1      -8.113  17.495   7.432  1.00  0.00     0.004 A 
ATOM     28  C   UNL     1      -8.725  20.214   7.478  1.00  0.00     0.000 A 
ATOM     29  C   UNL     1      -7.103  18.442   7.250  1.00  0.00     0.000 A 
ATOM     30  C   UNL     1      -7.411  19.801   7.270  1.00  0.00     0.000 A 
ENDBRANCH  24  25
ENDBRANCH  23  24
BRANCH  23  31
ATOM     31  C   UNL     1     -11.119  17.424   5.339  1.00  0.00     0.243 C 
ATOM     32  O   UNL     1     -11.842  18.298   4.870  1.00  0.00    -0.273 OA
ATOM     33  N   UNL     1     -10.006  16.954   4.662  1.00  0.00    -0.341 N 
ATOM     34  H   UNL     1      -9.446  16.219   5.101  1.00  0.00     0.164 HD
BRANCH  33  35
ATOM     35  C   UNL     1      -9.568  17.495   3.373  1.00  0.00     0.194 C 
BRANCH  35  36
ATOM     36  C   UNL     1      -9.665  16.485   2.195  1.00  0.00     0.017 C 
ATOM     37  C   UNL     1     -10.052  17.191   0.884  1.00  0.00     0.010 C 
ATOM     38  C   UNL     1     -10.691  15.371   2.436  1.00  0.00     0.010 C 
ENDBRANCH  35  36
BRANCH  35  39
ATOM     39  C   UNL     1      -8.167  18.163   3.450  1.00  0.00     0.329 C 
ATOM     40  O   UNL     1      -7.973  19.305   3.849  1.00  0.00    -0.250 OA
BRANCH  39  41
ATOM     41  O   UNL     1      -7.161  17.304   3.105  1.00  0.00    -0.458 OA
BRANCH  41  42
ATOM     42  C   UNL     1      -6.041  17.881   2.391  1.00  0.00     0.205 CG0
ATOM     43  C   UNL     1      -6.383  17.842   0.903  1.00  0.00     0.056 C 
ATOM     44  G   UNL     1      -4.774  17.071   2.726  1.00  0.00     0.000 G0
ENDBRANCH  41  42
ENDBRANCH  39  41
ENDBRANCH  35  39
ENDBRANCH  33  35
ENDBRANCH  23  31
ENDBRANCH  21  23
ENDBRANCH  19  21
ENDBRANCH  14  19
ENDBRANCH   7  14
ENDBRANCH   2   5
BRANCH   3  45
ATOM     45  C   UNL     1      -4.614  15.437   6.190  1.00  0.00     0.171 C 
BRANCH  45  46
ATOM     46  N   UNL     1      -4.634  15.704   4.758  1.00  0.00    -0.342 N 
ATOM     47  C   UNL     1      -4.612  16.977   4.247  1.00  0.00     0.247 C 
ATOM     48  O   UNL     1      -4.501  17.980   4.953  1.00  0.00    -0.273 OA
ATOM     49  H   UNL     1      -4.668  14.900   4.134  1.00  0.00     0.164 HD
BRANCH  47  50
ATOM     50  C   UNL     1      -4.765  17.068   2.722  1.00  0.00     0.212 CG0
ATOM     51  G   UNL     1      -6.052  17.863   2.427  1.00  0.00     0.000 G0
BRANCH  50  52
ATOM     52  N   UNL     1      -3.554  17.734   2.248  1.00  0.00    -0.339 N 
ATOM     53  C   UNL     1      -2.695  17.178   1.331  1.00  0.00     0.243 C 
ATOM     54  O   UNL     1      -2.853  16.048   0.876  1.00  0.00    -0.273 OA
ATOM     55  H   UNL     1      -3.309  18.627   2.671  1.00  0.00     0.164 HD
BRANCH  53  56
ATOM     56  C   UNL     1      -1.441  18.029   1.050  1.00  0.00     0.182 C 
BRANCH  56  57
ATOM     57  N   UNL     1      -0.226  17.209   1.100  1.00  0.00    -0.344 N 
ATOM     58  C   UNL     1       0.582  17.023   0.005  1.00  0.00     0.220 C 
ATOM     59  O   UNL     1       0.308  17.467  -1.105  1.00  0.00    -0.275 OA
ATOM     60  H   UNL     1       0.090  16.910   2.019  1.00  0.00     0.164 HD
BRANCH  58  61
ATOM     61  C   UNL     1       1.814  16.188   0.302  1.00  0.00     0.100 C 
BRANCH  61  62
ATOM     62  C   UNL     1       1.513  14.892   1.056  1.00  0.00     0.010 C 
BRANCH  62  63
ATOM     63  C   UNL     1       0.990  13.756   0.168  1.00  0.00     0.000 C 
BRANCH  63  64
ATOM     64  C   UNL     1      -0.320  13.136   0.650  1.00  0.00    -0.003 C 
ATOM     65  C   UNL     1      -0.194  11.628   0.813  1.00  0.00     0.004 C 
ENDBRANCH  63  64
ENDBRANCH  62  63
ENDBRANCH  61  62
ENDBRANCH  58  61
ENDBRANCH  56  57
BRANCH  56  66
ATOM     66  C   UNL     1      -1.361  19.235   1.984  1.00  0.00     0.157 C 
BRANCH  66  67
ATOM     67  C   UNL     1      -0.714  18.870   3.289  1.00  0.00     0.305 C 
ATOM     68  O   UNL     1       0.477  18.683   3.489  1.00  0.00    -0.252 OA
BRANCH  67  69
ATOM     69  O   UNL     1      -1.600  18.809   4.301  1.00  0.00    -0.481 OA
ATOM     70  H   UNL     1      -2.419  18.454   3.895  1.00  0.00     0.296 HD
ENDBRANCH  67  69
ENDBRANCH  66  67
ENDBRANCH  56  66
ENDBRANCH  53  56
ENDBRANCH  50  52
ENDBRANCH  47  50
ENDBRANCH  45  46
BRANCH  45  71
ATOM     71  C   UNL     1      -3.248  14.916   6.649  1.00  0.00     0.037 C 
BRANCH  71  72
ATOM     72  C   UNL     1      -2.167  15.117   5.584  1.00  0.00     0.026 C 
BRANCH  72  73
ATOM     73  C   UNL     1      -1.807  13.801   4.896  1.00  0.00     0.146 C 
BRANCH  73  74
ATOM     74  N   UNL     1      -2.205  13.906   3.496  1.00  0.00    -0.254 NA
ATOM     75  C   UNL     1      -3.257  13.274   3.123  1.00  0.00     0.185 C 
ATOM     76  N   UNL     1      -3.649  13.352   1.841  1.00  0.00    -0.370 N 
ATOM     77  N   UNL     1      -4.081  12.501   3.852  1.00  0.00    -0.370 N 
ATOM     78  H   UNL     1      -3.079  13.910   1.221  1.00  0.00     0.159 HD
ATOM     79  H   UNL     1      -4.371  12.775   1.447  1.00  0.00     0.159 HD
ATOM     80  H   UNL     1      -3.911  12.355   4.836  1.00  0.00     0.159 HD
ATOM     81  H   UNL     1      -4.945  12.148   3.475  1.00  0.00     0.159 HD
ENDBRANCH  73  74
ENDBRANCH  72  73
ENDBRANCH  71  72
ENDBRANCH  45  71
ENDBRANCH   3  45
TORSDOF 20
ENDMDL
