MODEL 1
REMARK VINA RESULT:    -8.190      0.000      0.000
REMARK INTER + INTRA:         -19.507
REMARK INTER:                 -16.570
REMARK INTRA:                  -2.937
REMARK UNBOUND:                -2.937
REMARK SMILES CC[C@@H](C)[C@@H](NC(=O)[C@@H](O)Cc1ccc(O)c(Cl)c1)C(=O)N1[C@H](C(=O)NCCCCN=C(N)N)C[C@H]2CC[C@H](OS(=O)(=O)O)C[C@@H]21
REMARK SMILES IDX 22 1 36 2 46 3 35 4 23 5 45 6 37 7 39 8 38 9 20 10 21 11
REMARK SMILES IDX 5 12 6 13 7 14 8 15 9 17 11 18 12 19 17 20 19 21 15 22 14 23
REMARK SMILES IDX 13 24 18 25 16 26 10 28 3 30 4 31 2 32 1 33 24 34 25 35
REMARK SMILES IDX 26 36 27 38 28 39 29 40 30 41 31 42 32 43 33 44 34 45 40 50
REMARK SMILES IDX 41 51 42 52 43 53 44 54
REMARK H PARENT 6 16 16 27 10 29 26 37 33 46 33 47 34 48 34 49 44 55
ROOT
ATOM      1  N   UNL     1      -2.333   4.815   6.943  1.00  0.00    -0.326 N 
ATOM      2  C   UNL     1      -3.483   2.834   7.487  1.00  0.00     0.014 C 
ATOM      3  C   UNL     1      -2.080   3.435   7.367  1.00  0.00     0.091 C 
ATOM      4  C   UNL     1      -4.241   3.529   6.366  1.00  0.00     0.041 C 
ATOM      5  C   UNL     1      -3.760   4.977   6.569  1.00  0.00     0.175 C 
ATOM      6  C   UNL     1      -1.342   3.207   8.685  1.00  0.00     0.059 C 
ATOM      7  C   UNL     1      -3.423   1.319   7.516  1.00  0.00     0.008 C 
ATOM      8  C   UNL     1      -1.754   1.907   9.410  1.00  0.00     0.143 C 
ATOM      9  C   UNL     1      -2.276   0.837   8.430  1.00  0.00     0.034 C 
ENDROOT
BRANCH   1  10
ATOM     10  C   UNL     1      -1.441   5.834   6.657  1.00  0.00     0.246 C 
ATOM     11  O   UNL     1      -1.866   6.987   6.529  1.00  0.00    -0.272 OA
BRANCH  10  12
ATOM     12  C   UNL     1       0.078   5.514   6.544  1.00  0.00     0.174 C 
BRANCH  12  13
ATOM     13  N   UNL     1       0.802   6.134   7.654  1.00  0.00    -0.342 N 
ATOM     14  C   UNL     1       1.737   5.499   8.440  1.00  0.00     0.249 C 
ATOM     15  O   UNL     1       2.091   4.338   8.275  1.00  0.00    -0.272 OA
ATOM     16  H   UNL     1       0.503   7.039   8.007  1.00  0.00     0.164 HD
BRANCH  14  17
ATOM     17  C   UNL     1       2.311   6.416   9.541  1.00  0.00     0.207 C 
BRANCH  17  18
ATOM     18  C   UNL     1       2.753   7.756   8.945  1.00  0.00     0.077 C 
BRANCH  18  19
ATOM     19  C   UNL     1       4.150   7.681   8.369  1.00  0.00    -0.043 A 
ATOM     20  C   UNL     1       6.525   8.140   8.546  1.00  0.00     0.083 A 
ATOM     21  C   UNL     1       5.245   8.166   9.101  1.00  0.00     0.028 A 
ATOM     22  C   UNL     1       6.719   7.634   7.260  1.00  0.00     0.134 A 
ATOM     23  C   UNL     1       5.643   7.151   6.525  1.00  0.00     0.048 A 
ATOM     24  C   UNL     1       4.360   7.176   7.077  1.00  0.00     0.008 A 
ATOM     25  Cl  UNL     1       7.858   8.741   9.460  1.00  0.00    -0.080 Cl
BRANCH  22  26
ATOM     26  O   UNL     1       7.953   7.598   6.670  1.00  0.00    -0.506 OA
ATOM     27  H   UNL     1       7.947   6.843   6.054  1.00  0.00     0.293 HD
ENDBRANCH  22  26
ENDBRANCH  18  19
ENDBRANCH  17  18
BRANCH  17  28
ATOM     28  O   UNL     1       3.426   5.796  10.201  1.00  0.00    -0.383 OA
ATOM     29  H   UNL     1       4.201   6.378  10.031  1.00  0.00     0.211 HD
ENDBRANCH  17  28
ENDBRANCH  14  17
ENDBRANCH  12  13
BRANCH  12  30
ATOM     30  C   UNL     1       0.671   5.899   5.162  1.00  0.00     0.018 C 
ATOM     31  C   UNL     1       1.237   7.328   5.189  1.00  0.00     0.010 C 
BRANCH  30  32
ATOM     32  C   UNL     1      -0.330   5.745   3.991  1.00  0.00     0.002 C 
ATOM     33  C   UNL     1      -0.444   6.952   3.069  1.00  0.00     0.004 C 
ENDBRANCH  30  32
ENDBRANCH  12  30
ENDBRANCH  10  12
ENDBRANCH   1  10
BRANCH   5  34
ATOM     34  C   UNL     1      -4.548   5.688   7.702  1.00  0.00     0.242 C 
ATOM     35  O   UNL     1      -4.019   6.024   8.761  1.00  0.00    -0.273 OA
ATOM     36  N   UNL     1      -5.891   5.867   7.457  1.00  0.00    -0.354 N 
ATOM     37  H   UNL     1      -6.296   5.461   6.613  1.00  0.00     0.163 HD
BRANCH  36  38
ATOM     38  C   UNL     1      -6.727   6.696   8.301  1.00  0.00     0.116 C 
BRANCH  38  39
ATOM     39  C   UNL     1      -7.801   5.840   8.969  1.00  0.00     0.023 C 
BRANCH  39  40
ATOM     40  C   UNL     1      -7.545   4.347   8.798  1.00  0.00     0.026 C 
BRANCH  40  41
ATOM     41  C   UNL     1      -7.296   3.682  10.152  1.00  0.00     0.146 C 
BRANCH  41  42
ATOM     42  N   UNL     1      -6.006   4.107  10.680  1.00  0.00    -0.254 NA
ATOM     43  C   UNL     1      -5.855   4.249  11.943  1.00  0.00     0.185 C 
ATOM     44  N   UNL     1      -6.733   4.061  12.946  1.00  0.00    -0.370 N 
ATOM     45  N   UNL     1      -4.660   4.646  12.410  1.00  0.00    -0.370 N 
ATOM     46  H   UNL     1      -6.555   4.441  13.860  1.00  0.00     0.159 HD
ATOM     47  H   UNL     1      -7.682   3.746  12.772  1.00  0.00     0.159 HD
ATOM     48  H   UNL     1      -3.938   4.802  11.719  1.00  0.00     0.159 HD
ATOM     49  H   UNL     1      -4.394   4.552  13.374  1.00  0.00     0.159 HD
ENDBRANCH  41  42
ENDBRANCH  40  41
ENDBRANCH  39  40
ENDBRANCH  38  39
ENDBRANCH  36  38
ENDBRANCH   5  34
BRANCH   8  50
ATOM     50  O   UNL     1      -2.776   2.182  10.368  1.00  0.00    -0.245 OA
BRANCH  50  51
ATOM     51  S   UNL     1      -3.020   1.150  11.602  1.00  0.00     0.397 S 
ATOM     52  O   UNL     1      -1.749   0.549  11.938  1.00  0.00    -0.169 OA
ATOM     53  O   UNL     1      -4.195   0.346  11.337  1.00  0.00    -0.169 OA
BRANCH  51  54
ATOM     54  O   UNL     1      -3.365   2.150  12.812  1.00  0.00    -0.264 OA
ATOM     55  H   UNL     1      -3.603   3.017  12.425  1.00  0.00     0.236 HD
ENDBRANCH  51  54
ENDBRANCH  50  51
ENDBRANCH   8  50
TORSDOF 19
ENDMDL
MODEL 2
REMARK VINA RESULT:    -8.087      3.544      5.266
REMARK INTER + INTRA:         -19.298
REMARK INTER:                 -16.250
REMARK INTRA:                  -3.048
REMARK UNBOUND:                -2.937
REMARK SMILES CC[C@@H](C)[C@@H](NC(=O)[C@@H](O)Cc1ccc(O)c(Cl)c1)C(=O)N1[C@H](C(=O)NCCCCN=C(N)N)C[C@H]2CC[C@H](OS(=O)(=O)O)C[C@@H]21
REMARK SMILES IDX 22 1 36 2 46 3 35 4 23 5 45 6 37 7 39 8 38 9 20 10 21 11
REMARK SMILES IDX 5 12 6 13 7 14 8 15 9 17 11 18 12 19 17 20 19 21 15 22 14 23
REMARK SMILES IDX 13 24 18 25 16 26 10 28 3 30 4 31 2 32 1 33 24 34 25 35
REMARK SMILES IDX 26 36 27 38 28 39 29 40 30 41 31 42 32 43 33 44 34 45 40 50
REMARK SMILES IDX 41 51 42 52 43 53 44 54
REMARK H PARENT 6 16 16 27 10 29 26 37 33 46 33 47 34 48 34 49 44 55
ROOT
ATOM      1  N   UNL     1      -2.377   4.232   6.292  1.00  0.00    -0.326 N 
ATOM      2  C   UNL     1      -3.652   2.452   7.156  1.00  0.00     0.014 C 
ATOM      3  C   UNL     1      -2.214   2.940   6.965  1.00  0.00     0.091 C 
ATOM      4  C   UNL     1      -4.352   2.974   5.910  1.00  0.00     0.041 C 
ATOM      5  C   UNL     1      -3.786   4.405   5.860  1.00  0.00     0.175 C 
ATOM      6  C   UNL     1      -1.510   2.913   8.320  1.00  0.00     0.059 C 
ATOM      7  C   UNL     1      -3.685   0.967   7.460  1.00  0.00     0.008 C 
ATOM      8  C   UNL     1      -2.010   1.793   9.258  1.00  0.00     0.143 C 
ATOM      9  C   UNL     1      -2.583   0.594   8.475  1.00  0.00     0.034 C 
ENDROOT
BRANCH   1  10
ATOM     10  C   UNL     1      -1.420   5.128   5.848  1.00  0.00     0.246 C 
ATOM     11  O   UNL     1      -0.763   4.856   4.838  1.00  0.00    -0.272 OA
BRANCH  10  12
ATOM     12  C   UNL     1      -1.223   6.475   6.603  1.00  0.00     0.174 C 
BRANCH  12  13
ATOM     13  N   UNL     1      -0.919   7.541   5.649  1.00  0.00    -0.342 N 
ATOM     14  C   UNL     1      -1.851   8.374   5.072  1.00  0.00     0.249 C 
ATOM     15  O   UNL     1      -3.050   8.331   5.318  1.00  0.00    -0.272 OA
ATOM     16  H   UNL     1       0.007   7.595   5.232  1.00  0.00     0.164 HD
BRANCH  14  17
ATOM     17  C   UNL     1      -1.219   9.387   4.093  1.00  0.00     0.207 C 
BRANCH  17  18
ATOM     18  C   UNL     1       0.044   8.799   3.456  1.00  0.00     0.077 C 
BRANCH  18  19
ATOM     19  C   UNL     1      -0.134   8.557   1.974  1.00  0.00    -0.043 A 
ATOM     20  C   UNL     1      -1.582   8.202   0.061  1.00  0.00     0.083 A 
ATOM     21  C   UNL     1      -1.421   8.475   1.419  1.00  0.00     0.028 A 
ATOM     22  C   UNL     1      -0.463   8.009  -0.750  1.00  0.00     0.134 A 
ATOM     23  C   UNL     1       0.817   8.088  -0.214  1.00  0.00     0.048 A 
ATOM     24  C   UNL     1       0.982   8.359   1.146  1.00  0.00     0.008 A 
ATOM     25  Cl  UNL     1      -3.171   8.104  -0.602  1.00  0.00    -0.080 Cl
BRANCH  22  26
ATOM     26  O   UNL     1      -0.572   7.728  -2.086  1.00  0.00    -0.506 OA
ATOM     27  H   UNL     1      -1.373   8.184  -2.403  1.00  0.00     0.293 HD
ENDBRANCH  22  26
ENDBRANCH  18  19
ENDBRANCH  17  18
BRANCH  17  28
ATOM     28  O   UNL     1      -0.889  10.615   4.760  1.00  0.00    -0.383 OA
ATOM     29  H   UNL     1      -0.146  10.403   5.369  1.00  0.00     0.211 HD
ENDBRANCH  17  28
ENDBRANCH  14  17
ENDBRANCH  12  13
BRANCH  12  30
ATOM     30  C   UNL     1      -0.168   6.378   7.738  1.00  0.00     0.018 C 
ATOM     31  C   UNL     1       0.450   7.754   8.030  1.00  0.00     0.010 C 
BRANCH  30  32
ATOM     32  C   UNL     1       0.948   5.341   7.462  1.00  0.00     0.002 C 
ATOM     33  C   UNL     1       1.874   5.053   8.637  1.00  0.00     0.004 C 
ENDBRANCH  30  32
ENDBRANCH  12  30
ENDBRANCH  10  12
ENDBRANCH   1  10
BRANCH   5  34
ATOM     34  C   UNL     1      -4.544   5.354   6.825  1.00  0.00     0.242 C 
ATOM     35  O   UNL     1      -4.165   5.561   7.978  1.00  0.00    -0.273 OA
ATOM     36  N   UNL     1      -5.700   5.905   6.317  1.00  0.00    -0.354 N 
ATOM     37  H   UNL     1      -6.026   5.601   5.399  1.00  0.00     0.163 HD
BRANCH  36  38
ATOM     38  C   UNL     1      -6.411   6.970   6.993  1.00  0.00     0.116 C 
BRANCH  38  39
ATOM     39  C   UNL     1      -7.716   6.434   7.576  1.00  0.00     0.023 C 
BRANCH  39  40
ATOM     40  C   UNL     1      -7.656   6.276   9.092  1.00  0.00     0.026 C 
BRANCH  40  41
ATOM     41  C   UNL     1      -7.182   4.874   9.473  1.00  0.00     0.146 C 
BRANCH  41  42
ATOM     42  N   UNL     1      -6.730   4.866  10.858  1.00  0.00    -0.254 NA
ATOM     43  C   UNL     1      -7.043   3.887  11.621  1.00  0.00     0.185 C 
ATOM     44  N   UNL     1      -7.764   2.782  11.358  1.00  0.00    -0.370 N 
ATOM     45  N   UNL     1      -6.620   3.901  12.896  1.00  0.00    -0.370 N 
ATOM     46  H   UNL     1      -8.135   2.222  12.107  1.00  0.00     0.159 HD
ATOM     47  H   UNL     1      -8.150   2.604  10.436  1.00  0.00     0.159 HD
ATOM     48  H   UNL     1      -6.061   4.696  13.174  1.00  0.00     0.159 HD
ATOM     49  H   UNL     1      -6.617   3.082  13.477  1.00  0.00     0.159 HD
ENDBRANCH  41  42
ENDBRANCH  40  41
ENDBRANCH  39  40
ENDBRANCH  38  39
ENDBRANCH  36  38
ENDBRANCH   5  34
BRANCH   8  50
ATOM     50  O   UNL     1      -3.027   2.296  10.125  1.00  0.00    -0.245 OA
BRANCH  50  51
ATOM     51  S   UNL     1      -3.156   1.710  11.636  1.00  0.00     0.397 S 
ATOM     52  O   UNL     1      -1.826   1.618  12.195  1.00  0.00    -0.169 OA
ATOM     53  O   UNL     1      -4.063   0.580  11.644  1.00  0.00    -0.169 OA
BRANCH  51  54
ATOM     54  O   UNL     1      -3.872   2.925  12.408  1.00  0.00    -0.264 OA
ATOM     55  H   UNL     1      -3.259   3.241  13.102  1.00  0.00     0.236 HD
ENDBRANCH  51  54
ENDBRANCH  50  51
ENDBRANCH   8  50
TORSDOF 19
ENDMDL
MODEL 3
REMARK VINA RESULT:    -7.848      2.381      3.377
REMARK INTER + INTRA:         -18.813
REMARK INTER:                 -15.880
REMARK INTRA:                  -2.933
REMARK UNBOUND:                -2.937
REMARK SMILES CC[C@@H](C)[C@@H](NC(=O)[C@@H](O)Cc1ccc(O)c(Cl)c1)C(=O)N1[C@H](C(=O)NCCCCN=C(N)N)C[C@H]2CC[C@H](OS(=O)(=O)O)C[C@@H]21
REMARK SMILES IDX 22 1 36 2 46 3 35 4 23 5 45 6 37 7 39 8 38 9 20 10 21 11
REMARK SMILES IDX 5 12 6 13 7 14 8 15 9 17 11 18 12 19 17 20 19 21 15 22 14 23
REMARK SMILES IDX 13 24 18 25 16 26 10 28 3 30 4 31 2 32 1 33 24 34 25 35
REMARK SMILES IDX 26 36 27 38 28 39 29 40 30 41 31 42 32 43 33 44 34 45 40 50
REMARK SMILES IDX 41 51 42 52 43 53 44 54
REMARK H PARENT 6 16 16 27 10 29 26 37 33 46 33 47 34 48 34 49 44 55
ROOT
ATOM      1  N   UNL     1      -2.429   4.965   6.637  1.00  0.00    -0.326 N 
ATOM      2  C   UNL     1      -3.667   2.967   6.769  1.00  0.00     0.014 C 
ATOM      3  C   UNL     1      -2.258   3.541   6.942  1.00  0.00     0.091 C 
ATOM      4  C   UNL     1      -4.229   3.797   5.625  1.00  0.00     0.041 C 
ATOM      5  C   UNL     1      -3.775   5.202   6.060  1.00  0.00     0.175 C 
ATOM      6  C   UNL     1      -1.746   3.154   8.328  1.00  0.00     0.059 C 
ATOM      7  C   UNL     1      -3.625   1.457   6.641  1.00  0.00     0.008 C 
ATOM      8  C   UNL     1      -2.279   1.795   8.831  1.00  0.00     0.143 C 
ATOM      9  C   UNL     1      -2.645   0.850   7.668  1.00  0.00     0.034 C 
ENDROOT
BRANCH   1  10
ATOM     10  C   UNL     1      -1.494   5.985   6.611  1.00  0.00     0.246 C 
ATOM     11  O   UNL     1      -1.883   7.158   6.632  1.00  0.00    -0.272 OA
BRANCH  10  12
ATOM     12  C   UNL     1       0.023   5.636   6.599  1.00  0.00     0.174 C 
BRANCH  12  13
ATOM     13  N   UNL     1       0.658   6.129   7.820  1.00  0.00    -0.342 N 
ATOM     14  C   UNL     1       1.644   5.470   8.519  1.00  0.00     0.249 C 
ATOM     15  O   UNL     1       2.123   4.396   8.175  1.00  0.00    -0.272 OA
ATOM     16  H   UNL     1       0.258   6.926   8.309  1.00  0.00     0.164 HD
BRANCH  14  17
ATOM     17  C   UNL     1       2.099   6.240   9.777  1.00  0.00     0.207 C 
BRANCH  17  18
ATOM     18  C   UNL     1       2.002   7.751   9.544  1.00  0.00     0.077 C 
BRANCH  18  19
ATOM     19  C   UNL     1       1.567   8.486  10.791  1.00  0.00    -0.043 A 
ATOM     20  C   UNL     1      -0.113   9.732  12.020  1.00  0.00     0.083 A 
ATOM     21  C   UNL     1       0.269   9.011  10.888  1.00  0.00     0.028 A 
ATOM     22  C   UNL     1       0.796   9.933  13.059  1.00  0.00     0.134 A 
ATOM     23  C   UNL     1       2.084   9.419  12.977  1.00  0.00     0.048 A 
ATOM     24  C   UNL     1       2.471   8.699  11.844  1.00  0.00     0.008 A 
ATOM     25  Cl  UNL     1      -1.712  10.369  12.120  1.00  0.00    -0.080 Cl
BRANCH  22  26
ATOM     26  O   UNL     1       0.470  10.642  14.184  1.00  0.00    -0.506 OA
ATOM     27  H   UNL     1      -0.113  10.069  14.717  1.00  0.00     0.293 HD
ENDBRANCH  22  26
ENDBRANCH  18  19
ENDBRANCH  17  18
BRANCH  17  28
ATOM     28  O   UNL     1       3.447   5.898  10.134  1.00  0.00    -0.383 OA
ATOM     29  H   UNL     1       3.379   5.159  10.780  1.00  0.00     0.211 HD
ENDBRANCH  17  28
ENDBRANCH  14  17
ENDBRANCH  12  13
BRANCH  12  30
ATOM     30  C   UNL     1       0.742   6.131   5.315  1.00  0.00     0.018 C 
ATOM     31  C   UNL     1       1.082   7.626   5.422  1.00  0.00     0.010 C 
BRANCH  30  32
ATOM     32  C   UNL     1      -0.050   5.857   4.014  1.00  0.00     0.002 C 
ATOM     33  C   UNL     1      -0.362   7.087   3.170  1.00  0.00     0.004 C 
ENDBRANCH  30  32
ENDBRANCH  12  30
ENDBRANCH  10  12
ENDBRANCH   1  10
BRANCH   5  34
ATOM     34  C   UNL     1      -4.730   5.808   7.123  1.00  0.00     0.242 C 
ATOM     35  O   UNL     1      -4.348   6.112   8.253  1.00  0.00    -0.273 OA
ATOM     36  N   UNL     1      -6.043   5.930   6.729  1.00  0.00    -0.354 N 
ATOM     37  H   UNL     1      -6.322   5.550   5.823  1.00  0.00     0.163 HD
BRANCH  36  38
ATOM     38  C   UNL     1      -7.019   6.667   7.506  1.00  0.00     0.116 C 
BRANCH  38  39
ATOM     39  C   UNL     1      -8.124   5.725   7.977  1.00  0.00     0.023 C 
BRANCH  39  40
ATOM     40  C   UNL     1      -7.587   4.570   8.816  1.00  0.00     0.026 C 
BRANCH  40  41
ATOM     41  C   UNL     1      -7.626   4.916  10.304  1.00  0.00     0.146 C 
BRANCH  41  42
ATOM     42  N   UNL     1      -6.269   5.078  10.808  1.00  0.00    -0.254 NA
ATOM     43  C   UNL     1      -5.960   4.607  11.958  1.00  0.00     0.185 C 
ATOM     44  N   UNL     1      -6.714   3.941  12.851  1.00  0.00    -0.370 N 
ATOM     45  N   UNL     1      -4.705   4.770  12.407  1.00  0.00    -0.370 N 
ATOM     46  H   UNL     1      -6.415   3.847  13.807  1.00  0.00     0.159 HD
ATOM     47  H   UNL     1      -7.688   3.719  12.666  1.00  0.00     0.159 HD
ATOM     48  H   UNL     1      -4.068   5.256  11.789  1.00  0.00     0.159 HD
ATOM     49  H   UNL     1      -4.326   4.238  13.169  1.00  0.00     0.159 HD
ENDBRANCH  41  42
ENDBRANCH  40  41
ENDBRANCH  39  40
ENDBRANCH  38  39
ENDBRANCH  36  38
ENDBRANCH   5  34
BRANCH   8  50
ATOM     50  O   UNL     1      -3.441   1.992   9.637  1.00  0.00    -0.245 OA
BRANCH  50  51
ATOM     51  S   UNL     1      -3.471   1.413  11.157  1.00  0.00     0.397 S 
ATOM     52  O   UNL     1      -4.769   1.709  11.721  1.00  0.00    -0.169 OA
ATOM     53  O   UNL     1      -2.246   1.774  11.839  1.00  0.00    -0.169 OA
BRANCH  51  54
ATOM     54  O   UNL     1      -3.452  -0.176  10.911  1.00  0.00    -0.264 OA
ATOM     55  H   UNL     1      -3.504  -0.329   9.945  1.00  0.00     0.236 HD
ENDBRANCH  51  54
ENDBRANCH  50  51
ENDBRANCH   8  50
TORSDOF 19
ENDMDL
MODEL 4
REMARK VINA RESULT:    -7.775     12.073     15.480
REMARK INTER + INTRA:         -18.667
REMARK INTER:                 -14.229
REMARK INTRA:                  -4.438
REMARK UNBOUND:                -2.937
REMARK SMILES CC[C@@H](C)[C@@H](NC(=O)[C@@H](O)Cc1ccc(O)c(Cl)c1)C(=O)N1[C@H](C(=O)NCCCCN=C(N)N)C[C@H]2CC[C@H](OS(=O)(=O)O)C[C@@H]21
REMARK SMILES IDX 22 1 36 2 46 3 35 4 23 5 45 6 37 7 39 8 38 9 20 10 21 11
REMARK SMILES IDX 5 12 6 13 7 14 8 15 9 17 11 18 12 19 17 20 19 21 15 22 14 23
REMARK SMILES IDX 13 24 18 25 16 26 10 28 3 30 4 31 2 32 1 33 24 34 25 35
REMARK SMILES IDX 26 36 27 38 28 39 29 40 30 41 31 42 32 43 33 44 34 45 40 50
REMARK SMILES IDX 41 51 42 52 43 53 44 54
REMARK H PARENT 6 16 16 27 10 29 26 37 33 46 33 47 34 48 34 49 44 55
ROOT
ATOM      1  N   UNL     1      -5.502   4.669  -2.063  1.00  0.00    -0.326 N 
ATOM      2  C   UNL     1      -6.510   2.996  -0.749  1.00  0.00     0.014 C 
ATOM      3  C   UNL     1      -6.465   4.511  -0.970  1.00  0.00     0.091 C 
ATOM      4  C   UNL     1      -5.077   2.574  -1.036  1.00  0.00     0.041 C 
ATOM      5  C   UNL     1      -4.805   3.384  -2.317  1.00  0.00     0.175 C 
ATOM      6  C   UNL     1      -7.893   5.010  -1.185  1.00  0.00     0.059 C 
ATOM      7  C   UNL     1      -7.129   2.662   0.594  1.00  0.00     0.008 C 
ATOM      8  C   UNL     1      -8.957   4.199  -0.413  1.00  0.00     0.143 C 
ATOM      9  C   UNL     1      -8.375   3.535   0.851  1.00  0.00     0.034 C 
ENDROOT
BRANCH   1  10
ATOM     10  C   UNL     1      -5.041   5.820  -2.680  1.00  0.00     0.246 C 
ATOM     11  O   UNL     1      -3.844   6.114  -2.586  1.00  0.00    -0.272 OA
BRANCH  10  12
ATOM     12  C   UNL     1      -6.026   6.693  -3.510  1.00  0.00     0.174 C 
BRANCH  12  13
ATOM     13  N   UNL     1      -6.289   6.057  -4.801  1.00  0.00    -0.342 N 
ATOM     14  C   UNL     1      -7.416   5.328  -5.108  1.00  0.00     0.249 C 
ATOM     15  O   UNL     1      -8.347   5.153  -4.332  1.00  0.00    -0.272 OA
ATOM     16  H   UNL     1      -5.542   5.983  -5.487  1.00  0.00     0.164 HD
BRANCH  14  17
ATOM     17  C   UNL     1      -7.391   4.769  -6.546  1.00  0.00     0.207 C 
BRANCH  17  18
ATOM     18  C   UNL     1      -6.597   5.701  -7.469  1.00  0.00     0.077 C 
BRANCH  18  19
ATOM     19  C   UNL     1      -5.740   4.927  -8.445  1.00  0.00    -0.043 A 
ATOM     20  C   UNL     1      -3.782   4.786  -9.871  1.00  0.00     0.083 A 
ATOM     21  C   UNL     1      -4.546   5.481  -8.932  1.00  0.00     0.028 A 
ATOM     22  C   UNL     1      -4.206   3.538 -10.329  1.00  0.00     0.134 A 
ATOM     23  C   UNL     1      -5.386   2.977  -9.855  1.00  0.00     0.048 A 
ATOM     24  C   UNL     1      -6.153   3.672  -8.916  1.00  0.00     0.008 A 
ATOM     25  Cl  UNL     1      -2.318   5.483 -10.458  1.00  0.00    -0.080 Cl
BRANCH  22  26
ATOM     26  O   UNL     1      -3.497   2.824 -11.256  1.00  0.00    -0.506 OA
ATOM     27  H   UNL     1      -3.041   2.110 -10.772  1.00  0.00     0.293 HD
ENDBRANCH  22  26
ENDBRANCH  18  19
ENDBRANCH  17  18
BRANCH  17  28
ATOM     28  O   UNL     1      -8.722   4.609  -7.062  1.00  0.00    -0.383 OA
ATOM     29  H   UNL     1      -9.107   5.514  -7.107  1.00  0.00     0.211 HD
ENDBRANCH  17  28
ENDBRANCH  14  17
ENDBRANCH  12  13
BRANCH  12  30
ATOM     30  C   UNL     1      -5.546   8.161  -3.661  1.00  0.00     0.018 C 
ATOM     31  C   UNL     1      -6.673   9.144  -3.308  1.00  0.00     0.010 C 
BRANCH  30  32
ATOM     32  C   UNL     1      -4.974   8.488  -5.062  1.00  0.00     0.002 C 
ATOM     33  C   UNL     1      -3.637   9.216  -5.067  1.00  0.00     0.004 C 
ENDBRANCH  30  32
ENDBRANCH  12  30
ENDBRANCH  10  12
ENDBRANCH   1  10
BRANCH   5  34
ATOM     34  C   UNL     1      -5.387   2.681  -3.572  1.00  0.00     0.242 C 
ATOM     35  O   UNL     1      -6.546   2.272  -3.619  1.00  0.00    -0.273 OA
ATOM     36  N   UNL     1      -4.497   2.502  -4.608  1.00  0.00    -0.354 N 
ATOM     37  H   UNL     1      -3.518   2.754  -4.464  1.00  0.00     0.163 HD
BRANCH  36  38
ATOM     38  C   UNL     1      -4.919   2.064  -5.922  1.00  0.00     0.116 C 
BRANCH  38  39
ATOM     39  C   UNL     1      -4.704   0.559  -6.061  1.00  0.00     0.023 C 
BRANCH  39  40
ATOM     40  C   UNL     1      -6.013  -0.222  -6.032  1.00  0.00     0.026 C 
BRANCH  40  41
ATOM     41  C   UNL     1      -7.206   0.712  -6.241  1.00  0.00     0.146 C 
BRANCH  41  42
ATOM     42  N   UNL     1      -8.345   0.236  -5.467  1.00  0.00    -0.254 NA
ATOM     43  C   UNL     1      -9.234   1.069  -5.073  1.00  0.00     0.185 C 
ATOM     44  N   UNL     1      -9.316   2.399  -5.255  1.00  0.00    -0.370 N 
ATOM     45  N   UNL     1     -10.275   0.611  -4.357  1.00  0.00    -0.370 N 
ATOM     46  H   UNL     1      -9.930   2.958  -4.688  1.00  0.00     0.159 HD
ATOM     47  H   UNL     1      -8.617   2.908  -5.788  1.00  0.00     0.159 HD
ATOM     48  H   UNL     1     -10.294  -0.385  -4.181  1.00  0.00     0.159 HD
ATOM     49  H   UNL     1     -11.115   1.142  -4.219  1.00  0.00     0.159 HD
ENDBRANCH  41  42
ENDBRANCH  40  41
ENDBRANCH  39  40
ENDBRANCH  38  39
ENDBRANCH  36  38
ENDBRANCH   5  34
BRANCH   8  50
ATOM     50  O   UNL     1      -9.500   3.179  -1.253  1.00  0.00    -0.245 OA
BRANCH  50  51
ATOM     51  S   UNL     1     -11.049   3.279  -1.738  1.00  0.00     0.397 S 
ATOM     52  O   UNL     1     -11.055   3.557  -3.156  1.00  0.00    -0.169 OA
ATOM     53  O   UNL     1     -11.801   4.088  -0.801  1.00  0.00    -0.169 OA
BRANCH  51  54
ATOM     54  O   UNL     1     -11.546   1.757  -1.589  1.00  0.00    -0.264 OA
ATOM     55  H   UNL     1     -10.826   1.175  -1.908  1.00  0.00     0.236 HD
ENDBRANCH  51  54
ENDBRANCH  50  51
ENDBRANCH   8  50
TORSDOF 19
ENDMDL
MODEL 5
REMARK VINA RESULT:    -7.618     13.291     17.407
REMARK INTER + INTRA:         -18.349
REMARK INTER:                 -14.458
REMARK INTRA:                  -3.891
REMARK UNBOUND:                -2.937
REMARK SMILES CC[C@@H](C)[C@@H](NC(=O)[C@@H](O)Cc1ccc(O)c(Cl)c1)C(=O)N1[C@H](C(=O)NCCCCN=C(N)N)C[C@H]2CC[C@H](OS(=O)(=O)O)C[C@@H]21
REMARK SMILES IDX 22 1 36 2 46 3 35 4 23 5 45 6 37 7 39 8 38 9 20 10 21 11
REMARK SMILES IDX 5 12 6 13 7 14 8 15 9 17 11 18 12 19 17 20 19 21 15 22 14 23
REMARK SMILES IDX 13 24 18 25 16 26 10 28 3 30 4 31 2 32 1 33 24 34 25 35
REMARK SMILES IDX 26 36 27 38 28 39 29 40 30 41 31 42 32 43 33 44 34 45 40 50
REMARK SMILES IDX 41 51 42 52 43 53 44 54
REMARK H PARENT 6 16 16 27 10 29 26 37 33 46 33 47 34 48 34 49 44 55
ROOT
ATOM      1  N   UNL     1      -6.284   3.047  -4.550  1.00  0.00    -0.326 N 
ATOM      2  C   UNL     1      -7.731   3.669  -6.300  1.00  0.00     0.014 C 
ATOM      3  C   UNL     1      -6.441   4.076  -5.582  1.00  0.00     0.091 C 
ATOM      4  C   UNL     1      -8.573   3.090  -5.173  1.00  0.00     0.041 C 
ATOM      5  C   UNL     1      -7.516   2.225  -4.461  1.00  0.00     0.175 C 
ATOM      6  C   UNL     1      -5.336   4.230  -6.625  1.00  0.00     0.059 C 
ATOM      7  C   UNL     1      -8.280   4.819  -7.122  1.00  0.00     0.008 C 
ATOM      8  C   UNL     1      -5.843   4.714  -8.001  1.00  0.00     0.143 C 
ATOM      9  C   UNL     1      -7.144   5.534  -7.884  1.00  0.00     0.034 C 
ENDROOT
BRANCH   1  10
ATOM     10  C   UNL     1      -5.306   2.904  -3.581  1.00  0.00     0.246 C 
ATOM     11  O   UNL     1      -4.360   2.137  -3.790  1.00  0.00    -0.272 OA
BRANCH  10  12
ATOM     12  C   UNL     1      -5.395   3.741  -2.272  1.00  0.00     0.174 C 
BRANCH  12  13
ATOM     13  N   UNL     1      -6.739   3.639  -1.705  1.00  0.00    -0.342 N 
ATOM     14  C   UNL     1      -7.063   2.954  -0.556  1.00  0.00     0.249 C 
ATOM     15  O   UNL     1      -6.244   2.369   0.143  1.00  0.00    -0.272 OA
ATOM     16  H   UNL     1      -7.541   3.939  -2.254  1.00  0.00     0.164 HD
BRANCH  14  17
ATOM     17  C   UNL     1      -8.570   3.018  -0.228  1.00  0.00     0.207 C 
BRANCH  17  18
ATOM     18  C   UNL     1      -9.231   4.182  -0.975  1.00  0.00     0.077 C 
BRANCH  18  19
ATOM     19  C   UNL     1     -10.269   3.698  -1.962  1.00  0.00    -0.043 A 
ATOM     20  C   UNL     1     -11.453   1.880  -3.046  1.00  0.00     0.083 A 
ATOM     21  C   UNL     1     -10.531   2.326  -2.099  1.00  0.00     0.028 A 
ATOM     22  C   UNL     1     -12.117   2.798  -3.861  1.00  0.00     0.134 A 
ATOM     23  C   UNL     1     -11.867   4.159  -3.736  1.00  0.00     0.048 A 
ATOM     24  C   UNL     1     -10.943   4.609  -2.790  1.00  0.00     0.008 A 
ATOM     25  Cl  UNL     1     -11.762   0.190  -3.200  1.00  0.00    -0.080 Cl
BRANCH  22  26
ATOM     26  O   UNL     1     -13.022   2.407  -4.811  1.00  0.00    -0.506 OA
ATOM     27  H   UNL     1     -13.863   2.853  -4.596  1.00  0.00     0.293 HD
ENDBRANCH  22  26
ENDBRANCH  18  19
ENDBRANCH  17  18
BRANCH  17  28
ATOM     28  O   UNL     1      -8.786   3.174   1.184  1.00  0.00    -0.383 OA
ATOM     29  H   UNL     1      -8.586   2.299   1.587  1.00  0.00     0.211 HD
ENDBRANCH  17  28
ENDBRANCH  14  17
ENDBRANCH  12  13
BRANCH  12  30
ATOM     30  C   UNL     1      -4.945   5.213  -2.470  1.00  0.00     0.018 C 
ATOM     31  C   UNL     1      -3.813   5.575  -1.495  1.00  0.00     0.010 C 
BRANCH  30  32
ATOM     32  C   UNL     1      -6.099   6.237  -2.348  1.00  0.00     0.002 C 
ATOM     33  C   UNL     1      -6.384   7.050  -3.605  1.00  0.00     0.004 C 
ENDBRANCH  30  32
ENDBRANCH  12  30
ENDBRANCH  10  12
ENDBRANCH   1  10
BRANCH   5  34
ATOM     34  C   UNL     1      -7.320   0.860  -5.173  1.00  0.00     0.242 C 
ATOM     35  O   UNL     1      -8.241   0.058  -5.324  1.00  0.00    -0.273 OA
ATOM     36  N   UNL     1      -6.031   0.589  -5.574  1.00  0.00    -0.354 N 
ATOM     37  H   UNL     1      -5.288   1.239  -5.314  1.00  0.00     0.163 HD
BRANCH  36  38
ATOM     38  C   UNL     1      -5.709  -0.529  -6.436  1.00  0.00     0.116 C 
BRANCH  38  39
ATOM     39  C   UNL     1      -6.123  -0.214  -7.871  1.00  0.00     0.023 C 
BRANCH  39  40
ATOM     40  C   UNL     1      -4.925  -0.025  -8.796  1.00  0.00     0.026 C 
BRANCH  40  41
ATOM     41  C   UNL     1      -3.824   0.774  -8.100  1.00  0.00     0.146 C 
BRANCH  41  42
ATOM     42  N   UNL     1      -2.532   0.145  -8.339  1.00  0.00    -0.254 NA
ATOM     43  C   UNL     1      -1.740   0.639  -9.215  1.00  0.00     0.185 C 
ATOM     44  N   UNL     1      -1.892   1.712 -10.012  1.00  0.00    -0.370 N 
ATOM     45  N   UNL     1      -0.555   0.041  -9.424  1.00  0.00    -0.370 N 
ATOM     46  H   UNL     1      -1.302   1.840 -10.817  1.00  0.00     0.159 HD
ATOM     47  H   UNL     1      -2.726   2.289  -9.975  1.00  0.00     0.159 HD
ATOM     48  H   UNL     1      -0.357  -0.772  -8.857  1.00  0.00     0.159 HD
ATOM     49  H   UNL     1       0.203   0.490  -9.906  1.00  0.00     0.159 HD
ENDBRANCH  41  42
ENDBRANCH  40  41
ENDBRANCH  39  40
ENDBRANCH  38  39
ENDBRANCH  36  38
ENDBRANCH   5  34
BRANCH   8  50
ATOM     50  O   UNL     1      -6.088   3.595  -8.854  1.00  0.00    -0.245 OA
BRANCH  50  51
ATOM     51  S   UNL     1      -5.682   3.680 -10.427  1.00  0.00     0.397 S 
ATOM     52  O   UNL     1      -4.738   2.620 -10.701  1.00  0.00    -0.169 OA
ATOM     53  O   UNL     1      -5.406   5.056 -10.784  1.00  0.00    -0.169 OA
BRANCH  51  54
ATOM     54  O   UNL     1      -7.051   3.245 -11.151  1.00  0.00    -0.264 OA
ATOM     55  H   UNL     1      -6.832   2.560 -11.815  1.00  0.00     0.236 HD
ENDBRANCH  51  54
ENDBRANCH  50  51
ENDBRANCH   8  50
TORSDOF 19
ENDMDL
MODEL 6
REMARK VINA RESULT:    -7.570      1.781      2.183
REMARK INTER + INTRA:         -18.251
REMARK INTER:                 -14.737
REMARK INTRA:                  -3.514
REMARK UNBOUND:                -2.937
REMARK SMILES CC[C@@H](C)[C@@H](NC(=O)[C@@H](O)Cc1ccc(O)c(Cl)c1)C(=O)N1[C@H](C(=O)NCCCCN=C(N)N)C[C@H]2CC[C@H](OS(=O)(=O)O)C[C@@H]21
REMARK SMILES IDX 22 1 36 2 46 3 35 4 23 5 45 6 37 7 39 8 38 9 20 10 21 11
REMARK SMILES IDX 5 12 6 13 7 14 8 15 9 17 11 18 12 19 17 20 19 21 15 22 14 23
REMARK SMILES IDX 13 24 18 25 16 26 10 28 3 30 4 31 2 32 1 33 24 34 25 35
REMARK SMILES IDX 26 36 27 38 28 39 29 40 30 41 31 42 32 43 33 44 34 45 40 50
REMARK SMILES IDX 41 51 42 52 43 53 44 54
REMARK H PARENT 6 16 16 27 10 29 26 37 33 46 33 47 34 48 34 49 44 55
ROOT
ATOM      1  N   UNL     1      -2.661   4.568   6.746  1.00  0.00    -0.326 N 
ATOM      2  C   UNL     1      -3.743   2.495   7.018  1.00  0.00     0.014 C 
ATOM      3  C   UNL     1      -2.502   3.287   7.440  1.00  0.00     0.091 C 
ATOM      4  C   UNL     1      -3.968   2.962   5.588  1.00  0.00     0.041 C 
ATOM      5  C   UNL     1      -3.768   4.479   5.762  1.00  0.00     0.175 C 
ATOM      6  C   UNL     1      -2.429   3.293   8.965  1.00  0.00     0.059 C 
ATOM      7  C   UNL     1      -3.563   1.016   7.296  1.00  0.00     0.008 C 
ATOM      8  C   UNL     1      -3.004   2.018   9.621  1.00  0.00     0.143 C 
ATOM      9  C   UNL     1      -2.920   0.797   8.683  1.00  0.00     0.034 C 
ENDROOT
BRANCH   1  10
ATOM     10  C   UNL     1      -1.835   5.679   6.733  1.00  0.00     0.246 C 
ATOM     11  O   UNL     1      -2.207   6.711   7.300  1.00  0.00    -0.272 OA
BRANCH  10  12
ATOM     12  C   UNL     1      -0.442   5.591   6.044  1.00  0.00     0.174 C 
BRANCH  12  13
ATOM     13  N   UNL     1       0.593   6.101   6.943  1.00  0.00    -0.342 N 
ATOM     14  C   UNL     1       1.160   5.392   7.978  1.00  0.00     0.249 C 
ATOM     15  O   UNL     1       0.878   4.230   8.244  1.00  0.00    -0.272 OA
ATOM     16  H   UNL     1       0.814   7.093   6.944  1.00  0.00     0.164 HD
BRANCH  14  17
ATOM     17  C   UNL     1       2.211   6.212   8.756  1.00  0.00     0.207 C 
BRANCH  17  18
ATOM     18  C   UNL     1       3.222   6.840   7.791  1.00  0.00     0.077 C 
BRANCH  18  19
ATOM     19  C   UNL     1       4.069   7.892   8.471  1.00  0.00    -0.043 A 
ATOM     20  C   UNL     1       4.270  10.054   9.551  1.00  0.00     0.083 A 
ATOM     21  C   UNL     1       3.479   9.064   8.969  1.00  0.00     0.028 A 
ATOM     22  C   UNL     1       5.652   9.882   9.639  1.00  0.00     0.134 A 
ATOM     23  C   UNL     1       6.250   8.727   9.151  1.00  0.00     0.048 A 
ATOM     24  C   UNL     1       5.461   7.734   8.566  1.00  0.00     0.008 A 
ATOM     25  Cl  UNL     1       3.526  11.488  10.157  1.00  0.00    -0.080 Cl
BRANCH  22  26
ATOM     26  O   UNL     1       6.470  10.830  10.193  1.00  0.00    -0.506 OA
ATOM     27  H   UNL     1       6.742  11.423   9.468  1.00  0.00     0.293 HD
ENDBRANCH  22  26
ENDBRANCH  18  19
ENDBRANCH  17  18
BRANCH  17  28
ATOM     28  O   UNL     1       2.907   5.391   9.708  1.00  0.00    -0.383 OA
ATOM     29  H   UNL     1       2.554   5.640  10.592  1.00  0.00     0.211 HD
ENDBRANCH  17  28
ENDBRANCH  14  17
ENDBRANCH  12  13
BRANCH  12  30
ATOM     30  C   UNL     1      -0.414   6.285   4.655  1.00  0.00     0.018 C 
ATOM     31  C   UNL     1       0.018   5.297   3.560  1.00  0.00     0.010 C 
BRANCH  30  32
ATOM     32  C   UNL     1       0.474   7.551   4.611  1.00  0.00     0.002 C 
ATOM     33  C   UNL     1       0.758   8.099   3.219  1.00  0.00     0.004 C 
ENDBRANCH  30  32
ENDBRANCH  12  30
ENDBRANCH  10  12
ENDBRANCH   1  10
BRANCH   5  34
ATOM     34  C   UNL     1      -5.048   5.165   6.312  1.00  0.00     0.242 C 
ATOM     35  O   UNL     1      -6.018   4.522   6.713  1.00  0.00    -0.273 OA
ATOM     36  N   UNL     1      -5.040   6.541   6.266  1.00  0.00    -0.354 N 
ATOM     37  H   UNL     1      -4.257   7.013   5.812  1.00  0.00     0.163 HD
BRANCH  36  38
ATOM     38  C   UNL     1      -6.049   7.342   6.928  1.00  0.00     0.116 C 
BRANCH  38  39
ATOM     39  C   UNL     1      -5.422   8.108   8.091  1.00  0.00     0.023 C 
BRANCH  39  40
ATOM     40  C   UNL     1      -5.114   7.208   9.283  1.00  0.00     0.026 C 
BRANCH  40  41
ATOM     41  C   UNL     1      -6.380   6.507   9.774  1.00  0.00     0.146 C 
BRANCH  41  42
ATOM     42  N   UNL     1      -6.087   5.752  10.986  1.00  0.00    -0.254 NA
ATOM     43  C   UNL     1      -6.877   5.835  11.990  1.00  0.00     0.185 C 
ATOM     44  N   UNL     1      -8.011   6.542  12.142  1.00  0.00    -0.370 N 
ATOM     45  N   UNL     1      -6.586   5.135  13.099  1.00  0.00    -0.370 N 
ATOM     46  H   UNL     1      -8.394   6.705  13.058  1.00  0.00     0.159 HD
ATOM     47  H   UNL     1      -8.385   7.118  11.395  1.00  0.00     0.159 HD
ATOM     48  H   UNL     1      -5.750   4.567  13.064  1.00  0.00     0.159 HD
ATOM     49  H   UNL     1      -7.260   4.959  13.823  1.00  0.00     0.159 HD
ENDBRANCH  41  42
ENDBRANCH  40  41
ENDBRANCH  39  40
ENDBRANCH  38  39
ENDBRANCH  36  38
ENDBRANCH   5  34
BRANCH   8  50
ATOM     50  O   UNL     1      -4.371   2.224   9.977  1.00  0.00    -0.245 OA
BRANCH  50  51
ATOM     51  S   UNL     1      -4.796   2.249  11.547  1.00  0.00     0.397 S 
ATOM     52  O   UNL     1      -4.120   1.157  12.210  1.00  0.00    -0.169 OA
ATOM     53  O   UNL     1      -6.228   2.437  11.660  1.00  0.00    -0.169 OA
BRANCH  51  54
ATOM     54  O   UNL     1      -4.077   3.590  12.068  1.00  0.00    -0.264 OA
ATOM     55  H   UNL     1      -4.046   3.551  13.046  1.00  0.00     0.236 HD
ENDBRANCH  51  54
ENDBRANCH  50  51
ENDBRANCH   8  50
TORSDOF 19
ENDMDL
MODEL 7
REMARK VINA RESULT:    -7.557     12.097     15.219
REMARK INTER + INTRA:         -18.225
REMARK INTER:                 -13.194
REMARK INTRA:                  -5.031
REMARK UNBOUND:                -2.937
REMARK SMILES CC[C@@H](C)[C@@H](NC(=O)[C@@H](O)Cc1ccc(O)c(Cl)c1)C(=O)N1[C@H](C(=O)NCCCCN=C(N)N)C[C@H]2CC[C@H](OS(=O)(=O)O)C[C@@H]21
REMARK SMILES IDX 22 1 36 2 46 3 35 4 23 5 45 6 37 7 39 8 38 9 20 10 21 11
REMARK SMILES IDX 5 12 6 13 7 14 8 15 9 17 11 18 12 19 17 20 19 21 15 22 14 23
REMARK SMILES IDX 13 24 18 25 16 26 10 28 3 30 4 31 2 32 1 33 24 34 25 35
REMARK SMILES IDX 26 36 27 38 28 39 29 40 30 41 31 42 32 43 33 44 34 45 40 50
REMARK SMILES IDX 41 51 42 52 43 53 44 54
REMARK H PARENT 6 16 16 27 10 29 26 37 33 46 33 47 34 48 34 49 44 55
ROOT
ATOM      1  N   UNL     1      -7.659   1.390  -3.671  1.00  0.00    -0.326 N 
ATOM      2  C   UNL     1      -7.981   2.145  -1.464  1.00  0.00     0.014 C 
ATOM      3  C   UNL     1      -6.912   1.634  -2.434  1.00  0.00     0.091 C 
ATOM      4  C   UNL     1      -9.213   1.355  -1.879  1.00  0.00     0.041 C 
ATOM      5  C   UNL     1      -9.117   1.484  -3.410  1.00  0.00     0.175 C 
ATOM      6  C   UNL     1      -5.767   2.645  -2.467  1.00  0.00     0.059 C 
ATOM      7  C   UNL     1      -7.495   2.065  -0.030  1.00  0.00     0.008 C 
ATOM      8  C   UNL     1      -5.552   3.384  -1.128  1.00  0.00     0.143 C 
ATOM      9  C   UNL     1      -6.035   2.552   0.077  1.00  0.00     0.034 C 
ENDROOT
BRANCH   1  10
ATOM     10  C   UNL     1      -7.222   0.903  -4.891  1.00  0.00     0.246 C 
ATOM     11  O   UNL     1      -7.766  -0.099  -5.368  1.00  0.00    -0.272 OA
BRANCH  10  12
ATOM     12  C   UNL     1      -6.088   1.648  -5.653  1.00  0.00     0.174 C 
BRANCH  12  13
ATOM     13  N   UNL     1      -6.589   2.922  -6.170  1.00  0.00    -0.342 N 
ATOM     14  C   UNL     1      -6.012   4.150  -5.939  1.00  0.00     0.249 C 
ATOM     15  O   UNL     1      -4.986   4.310  -5.289  1.00  0.00    -0.272 OA
ATOM     16  H   UNL     1      -7.513   2.965  -6.592  1.00  0.00     0.164 HD
BRANCH  14  17
ATOM     17  C   UNL     1      -6.786   5.307  -6.606  1.00  0.00     0.207 C 
BRANCH  17  18
ATOM     18  C   UNL     1      -5.836   6.181  -7.432  1.00  0.00     0.077 C 
BRANCH  18  19
ATOM     19  C   UNL     1      -5.295   5.442  -8.635  1.00  0.00    -0.043 A 
ATOM     20  C   UNL     1      -3.506   5.030 -10.220  1.00  0.00     0.083 A 
ATOM     21  C   UNL     1      -3.985   5.676  -9.080  1.00  0.00     0.028 A 
ATOM     22  C   UNL     1      -4.330   4.149 -10.921  1.00  0.00     0.134 A 
ATOM     23  C   UNL     1      -5.629   3.907 -10.492  1.00  0.00     0.048 A 
ATOM     24  C   UNL     1      -6.113   4.555  -9.352  1.00  0.00     0.008 A 
ATOM     25  Cl  UNL     1      -1.893   5.331 -10.751  1.00  0.00    -0.080 Cl
BRANCH  22  26
ATOM     26  O   UNL     1      -3.908   3.500 -12.050  1.00  0.00    -0.506 OA
ATOM     27  H   UNL     1      -3.800   4.180 -12.741  1.00  0.00     0.293 HD
ENDBRANCH  22  26
ENDBRANCH  18  19
ENDBRANCH  17  18
BRANCH  17  28
ATOM     28  O   UNL     1      -7.450   6.119  -5.625  1.00  0.00    -0.383 OA
ATOM     29  H   UNL     1      -8.353   5.742  -5.526  1.00  0.00     0.211 HD
ENDBRANCH  17  28
ENDBRANCH  14  17
ENDBRANCH  12  13
BRANCH  12  30
ATOM     30  C   UNL     1      -5.434   0.776  -6.758  1.00  0.00     0.018 C 
ATOM     31  C   UNL     1      -3.912   0.982  -6.787  1.00  0.00     0.010 C 
BRANCH  30  32
ATOM     32  C   UNL     1      -6.029   1.010  -8.168  1.00  0.00     0.002 C 
ATOM     33  C   UNL     1      -5.311   0.294  -9.305  1.00  0.00     0.004 C 
ENDBRANCH  30  32
ENDBRANCH  12  30
ENDBRANCH  10  12
ENDBRANCH   1  10
BRANCH   5  34
ATOM     34  C   UNL     1      -9.678   2.844  -3.906  1.00  0.00     0.242 C 
ATOM     35  O   UNL     1      -9.005   3.629  -4.574  1.00  0.00    -0.273 OA
ATOM     36  N   UNL     1     -10.962   3.131  -3.500  1.00  0.00    -0.354 N 
ATOM     37  H   UNL     1     -11.425   2.496  -2.848  1.00  0.00     0.163 HD
BRANCH  36  38
ATOM     38  C   UNL     1     -11.713   4.244  -4.042  1.00  0.00     0.116 C 
BRANCH  38  39
ATOM     39  C   UNL     1     -12.323   5.061  -2.905  1.00  0.00     0.023 C 
BRANCH  39  40
ATOM     40  C   UNL     1     -11.589   4.857  -1.583  1.00  0.00     0.026 C 
BRANCH  40  41
ATOM     41  C   UNL     1     -10.636   6.020  -1.308  1.00  0.00     0.146 C 
BRANCH  41  42
ATOM     42  N   UNL     1      -9.430   5.525  -0.658  1.00  0.00    -0.254 NA
ATOM     43  C   UNL     1      -9.151   5.905   0.532  1.00  0.00     0.185 C 
ATOM     44  N   UNL     1      -9.816   6.739   1.353  1.00  0.00    -0.370 N 
ATOM     45  N   UNL     1      -8.032   5.441   1.113  1.00  0.00    -0.370 N 
ATOM     46  H   UNL     1      -9.362   7.138   2.157  1.00  0.00     0.159 HD
ATOM     47  H   UNL     1     -10.692   7.171   1.077  1.00  0.00     0.159 HD
ATOM     48  H   UNL     1      -7.476   4.798   0.565  1.00  0.00     0.159 HD
ATOM     49  H   UNL     1      -7.869   5.498   2.102  1.00  0.00     0.159 HD
ENDBRANCH  41  42
ENDBRANCH  40  41
ENDBRANCH  39  40
ENDBRANCH  38  39
ENDBRANCH  36  38
ENDBRANCH   5  34
BRANCH   8  50
ATOM     50  O   UNL     1      -6.259   4.625  -1.135  1.00  0.00    -0.245 OA
BRANCH  50  51
ATOM     51  S   UNL     1      -5.476   5.993  -1.534  1.00  0.00     0.397 S 
ATOM     52  O   UNL     1      -4.063   5.695  -1.601  1.00  0.00    -0.169 OA
ATOM     53  O   UNL     1      -5.983   7.093  -0.740  1.00  0.00    -0.169 OA
BRANCH  51  54
ATOM     54  O   UNL     1      -5.948   6.219  -3.054  1.00  0.00    -0.264 OA
ATOM     55  H   UNL     1      -5.413   5.630  -3.624  1.00  0.00     0.236 HD
ENDBRANCH  51  54
ENDBRANCH  50  51
ENDBRANCH   8  50
TORSDOF 19
ENDMDL
MODEL 8
REMARK VINA RESULT:    -7.444      2.626      3.589
REMARK INTER + INTRA:         -17.997
REMARK INTER:                 -14.975
REMARK INTRA:                  -3.023
REMARK UNBOUND:                -2.937
REMARK SMILES CC[C@@H](C)[C@@H](NC(=O)[C@@H](O)Cc1ccc(O)c(Cl)c1)C(=O)N1[C@H](C(=O)NCCCCN=C(N)N)C[C@H]2CC[C@H](OS(=O)(=O)O)C[C@@H]21
REMARK SMILES IDX 22 1 36 2 46 3 35 4 23 5 45 6 37 7 39 8 38 9 20 10 21 11
REMARK SMILES IDX 5 12 6 13 7 14 8 15 9 17 11 18 12 19 17 20 19 21 15 22 14 23
REMARK SMILES IDX 13 24 18 25 16 26 10 28 3 30 4 31 2 32 1 33 24 34 25 35
REMARK SMILES IDX 26 36 27 38 28 39 29 40 30 41 31 42 32 43 33 44 34 45 40 50
REMARK SMILES IDX 41 51 42 52 43 53 44 54
REMARK H PARENT 6 16 16 27 10 29 26 37 33 46 33 47 34 48 34 49 44 55
ROOT
ATOM      1  N   UNL     1      -2.220   4.436   6.799  1.00  0.00    -0.326 N 
ATOM      2  C   UNL     1      -3.173   2.315   7.167  1.00  0.00     0.014 C 
ATOM      3  C   UNL     1      -2.046   3.242   7.630  1.00  0.00     0.091 C 
ATOM      4  C   UNL     1      -3.275   2.629   5.682  1.00  0.00     0.041 C 
ATOM      5  C   UNL     1      -3.205   4.166   5.723  1.00  0.00     0.175 C 
ATOM      6  C   UNL     1      -2.140   3.395   9.147  1.00  0.00     0.059 C 
ATOM      7  C   UNL     1      -2.919   0.888   7.610  1.00  0.00     0.008 C 
ATOM      8  C   UNL     1      -2.689   2.144   9.866  1.00  0.00     0.143 C 
ATOM      9  C   UNL     1      -2.417   0.852   9.069  1.00  0.00     0.034 C 
ENDROOT
BRANCH   1  10
ATOM     10  C   UNL     1      -1.479   5.605   6.758  1.00  0.00     0.246 C 
ATOM     11  O   UNL     1      -2.061   6.690   6.864  1.00  0.00    -0.272 OA
BRANCH  10  12
ATOM     12  C   UNL     1       0.069   5.527   6.622  1.00  0.00     0.174 C 
BRANCH  12  13
ATOM     13  N   UNL     1       0.703   6.078   7.820  1.00  0.00    -0.342 N 
ATOM     14  C   UNL     1       1.742   5.490   8.506  1.00  0.00     0.249 C 
ATOM     15  O   UNL     1       2.276   4.441   8.167  1.00  0.00    -0.272 OA
ATOM     16  H   UNL     1       0.268   6.858   8.307  1.00  0.00     0.164 HD
BRANCH  14  17
ATOM     17  C   UNL     1       2.180   6.307   9.740  1.00  0.00     0.207 C 
BRANCH  17  18
ATOM     18  C   UNL     1       2.115   7.808   9.439  1.00  0.00     0.077 C 
BRANCH  18  19
ATOM     19  C   UNL     1       1.386   8.567  10.525  1.00  0.00    -0.043 A 
ATOM     20  C   UNL     1       1.327   9.489  12.768  1.00  0.00     0.083 A 
ATOM     21  C   UNL     1       2.018   8.832  11.750  1.00  0.00     0.028 A 
ATOM     22  C   UNL     1       0.003   9.885  12.570  1.00  0.00     0.134 A 
ATOM     23  C   UNL     1      -0.635   9.630  11.361  1.00  0.00     0.048 A 
ATOM     24  C   UNL     1       0.055   8.970  10.341  1.00  0.00     0.008 A 
ATOM     25  Cl  UNL     1       2.120   9.805  14.266  1.00  0.00    -0.080 Cl
BRANCH  22  26
ATOM     26  O   UNL     1      -0.719  10.523  13.542  1.00  0.00    -0.506 OA
ATOM     27  H   UNL     1      -0.088  11.070  14.046  1.00  0.00     0.293 HD
ENDBRANCH  22  26
ENDBRANCH  18  19
ENDBRANCH  17  18
BRANCH  17  28
ATOM     28  O   UNL     1       3.514   5.959  10.144  1.00  0.00    -0.383 OA
ATOM     29  H   UNL     1       4.115   6.541   9.626  1.00  0.00     0.211 HD
ENDBRANCH  17  28
ENDBRANCH  14  17
ENDBRANCH  12  13
BRANCH  12  30
ATOM     30  C   UNL     1       0.592   6.189   5.319  1.00  0.00     0.018 C 
ATOM     31  C   UNL     1       0.828   7.693   5.526  1.00  0.00     0.010 C 
BRANCH  30  32
ATOM     32  C   UNL     1      -0.327   5.959   4.094  1.00  0.00     0.002 C 
ATOM     33  C   UNL     1      -0.033   6.838   2.885  1.00  0.00     0.004 C 
ENDBRANCH  30  32
ENDBRANCH  12  30
ENDBRANCH  10  12
ENDBRANCH   1  10
BRANCH   5  34
ATOM     34  C   UNL     1      -4.582   4.793   6.068  1.00  0.00     0.242 C 
ATOM     35  O   UNL     1      -5.533   4.762   5.287  1.00  0.00    -0.273 OA
ATOM     36  N   UNL     1      -4.647   5.431   7.286  1.00  0.00    -0.354 N 
ATOM     37  H   UNL     1      -3.792   5.527   7.836  1.00  0.00     0.163 HD
BRANCH  36  38
ATOM     38  C   UNL     1      -5.899   5.879   7.859  1.00  0.00     0.116 C 
BRANCH  38  39
ATOM     39  C   UNL     1      -6.071   5.286   9.256  1.00  0.00     0.023 C 
BRANCH  39  40
ATOM     40  C   UNL     1      -5.095   5.880  10.266  1.00  0.00     0.026 C 
BRANCH  40  41
ATOM     41  C   UNL     1      -5.789   6.136  11.604  1.00  0.00     0.146 C 
BRANCH  41  42
ATOM     42  N   UNL     1      -6.427   7.445  11.586  1.00  0.00    -0.254 NA
ATOM     43  C   UNL     1      -7.703   7.529  11.637  1.00  0.00     0.185 C 
ATOM     44  N   UNL     1      -8.631   6.557  11.709  1.00  0.00    -0.370 N 
ATOM     45  N   UNL     1      -8.272   8.745  11.614  1.00  0.00    -0.370 N 
ATOM     46  H   UNL     1      -9.595   6.752  11.496  1.00  0.00     0.159 HD
ATOM     47  H   UNL     1      -8.374   5.576  11.749  1.00  0.00     0.159 HD
ATOM     48  H   UNL     1      -7.642   9.534  11.569  1.00  0.00     0.159 HD
ATOM     49  H   UNL     1      -9.226   8.904  11.885  1.00  0.00     0.159 HD
ENDBRANCH  41  42
ENDBRANCH  40  41
ENDBRANCH  39  40
ENDBRANCH  38  39
ENDBRANCH  36  38
ENDBRANCH   5  34
BRANCH   8  50
ATOM     50  O   UNL     1      -4.098   2.269  10.060  1.00  0.00    -0.245 OA
BRANCH  50  51
ATOM     51  S   UNL     1      -4.719   2.118  11.556  1.00  0.00     0.397 S 
ATOM     52  O   UNL     1      -4.269   0.857  12.101  1.00  0.00    -0.169 OA
ATOM     53  O   UNL     1      -6.120   2.483  11.540  1.00  0.00    -0.169 OA
BRANCH  51  54
ATOM     54  O   UNL     1      -3.920   3.254  12.367  1.00  0.00    -0.264 OA
ATOM     55  H   UNL     1      -4.523   3.612  13.051  1.00  0.00     0.236 HD
ENDBRANCH  51  54
ENDBRANCH  50  51
ENDBRANCH   8  50
TORSDOF 19
ENDMDL
MODEL 9
REMARK VINA RESULT:    -7.275     12.109     15.639
REMARK INTER + INTRA:         -17.655
REMARK INTER:                 -13.990
REMARK INTRA:                  -3.665
REMARK UNBOUND:                -2.937
REMARK SMILES CC[C@@H](C)[C@@H](NC(=O)[C@@H](O)Cc1ccc(O)c(Cl)c1)C(=O)N1[C@H](C(=O)NCCCCN=C(N)N)C[C@H]2CC[C@H](OS(=O)(=O)O)C[C@@H]21
REMARK SMILES IDX 22 1 36 2 46 3 35 4 23 5 45 6 37 7 39 8 38 9 20 10 21 11
REMARK SMILES IDX 5 12 6 13 7 14 8 15 9 17 11 18 12 19 17 20 19 21 15 22 14 23
REMARK SMILES IDX 13 24 18 25 16 26 10 28 3 30 4 31 2 32 1 33 24 34 25 35
REMARK SMILES IDX 26 36 27 38 28 39 29 40 30 41 31 42 32 43 33 44 34 45 40 50
REMARK SMILES IDX 41 51 42 52 43 53 44 54
REMARK H PARENT 6 16 16 27 10 29 26 37 33 46 33 47 34 48 34 49 44 55
ROOT
ATOM      1  N   UNL     1      -6.975   3.276  -4.323  1.00  0.00    -0.326 N 
ATOM      2  C   UNL     1      -7.961   3.887  -6.372  1.00  0.00     0.014 C 
ATOM      3  C   UNL     1      -6.762   4.172  -5.463  1.00  0.00     0.091 C 
ATOM      4  C   UNL     1      -9.076   3.604  -5.376  1.00  0.00     0.041 C 
ATOM      5  C   UNL     1      -8.334   2.682  -4.391  1.00  0.00     0.175 C 
ATOM      6  C   UNL     1      -5.484   4.007  -6.284  1.00  0.00     0.059 C 
ATOM      7  C   UNL     1      -8.140   4.990  -7.395  1.00  0.00     0.008 C 
ATOM      8  C   UNL     1      -5.650   4.380  -7.773  1.00  0.00     0.143 C 
ATOM      9  C   UNL     1      -6.779   5.406  -7.991  1.00  0.00     0.034 C 
ENDROOT
BRANCH   1  10
ATOM     10  C   UNL     1      -6.222   3.107  -3.174  1.00  0.00     0.246 C 
ATOM     11  O   UNL     1      -5.131   2.531  -3.249  1.00  0.00    -0.272 OA
BRANCH  10  12
ATOM     12  C   UNL     1      -6.742   3.681  -1.824  1.00  0.00     0.174 C 
BRANCH  12  13
ATOM     13  N   UNL     1      -6.068   4.945  -1.527  1.00  0.00    -0.342 N 
ATOM     14  C   UNL     1      -6.454   6.178  -2.005  1.00  0.00     0.249 C 
ATOM     15  O   UNL     1      -7.433   6.356  -2.718  1.00  0.00    -0.272 OA
ATOM     16  H   UNL     1      -5.155   4.936  -1.080  1.00  0.00     0.164 HD
BRANCH  14  17
ATOM     17  C   UNL     1      -5.530   7.318  -1.527  1.00  0.00     0.207 C 
BRANCH  17  18
ATOM     18  C   UNL     1      -4.156   6.765  -1.135  1.00  0.00     0.077 C 
BRANCH  18  19
ATOM     19  C   UNL     1      -3.040   7.711  -1.514  1.00  0.00    -0.043 A 
ATOM     20  C   UNL     1      -2.192   9.518  -2.894  1.00  0.00     0.083 A 
ATOM     21  C   UNL     1      -3.239   8.678  -2.512  1.00  0.00     0.028 A 
ATOM     22  C   UNL     1      -0.942   9.396  -2.285  1.00  0.00     0.134 A 
ATOM     23  C   UNL     1      -0.731   8.443  -1.296  1.00  0.00     0.048 A 
ATOM     24  C   UNL     1      -1.777   7.600  -0.912  1.00  0.00     0.008 A 
ATOM     25  Cl  UNL     1      -2.457  10.699  -4.122  1.00  0.00    -0.080 Cl
BRANCH  22  26
ATOM     26  O   UNL     1       0.117  10.189  -2.634  1.00  0.00    -0.506 OA
ATOM     27  H   UNL     1       0.201  10.134  -3.604  1.00  0.00     0.293 HD
ENDBRANCH  22  26
ENDBRANCH  18  19
ENDBRANCH  17  18
BRANCH  17  28
ATOM     28  O   UNL     1      -6.102   8.012  -0.407  1.00  0.00    -0.383 OA
ATOM     29  H   UNL     1      -5.634   7.675   0.390  1.00  0.00     0.211 HD
ENDBRANCH  17  28
ENDBRANCH  14  17
ENDBRANCH  12  13
BRANCH  12  30
ATOM     30  C   UNL     1      -6.632   2.664  -0.657  1.00  0.00     0.018 C 
ATOM     31  C   UNL     1      -7.454   1.400  -0.955  1.00  0.00     0.010 C 
BRANCH  30  32
ATOM     32  C   UNL     1      -7.036   3.249   0.718  1.00  0.00     0.002 C 
ATOM     33  C   UNL     1      -8.494   3.672   0.843  1.00  0.00     0.004 C 
ENDBRANCH  30  32
ENDBRANCH  12  30
ENDBRANCH  10  12
ENDBRANCH   1  10
BRANCH   5  34
ATOM     34  C   UNL     1      -8.270   1.222  -4.911  1.00  0.00     0.242 C 
ATOM     35  O   UNL     1      -9.282   0.571  -5.171  1.00  0.00    -0.273 OA
ATOM     36  N   UNL     1      -7.003   0.690  -5.009  1.00  0.00    -0.354 N 
ATOM     37  H   UNL     1      -6.213   1.236  -4.666  1.00  0.00     0.163 HD
BRANCH  36  38
ATOM     38  C   UNL     1      -6.744  -0.571  -5.674  1.00  0.00     0.116 C 
BRANCH  38  39
ATOM     39  C   UNL     1      -5.812  -0.347  -6.863  1.00  0.00     0.023 C 
BRANCH  39  40
ATOM     40  C   UNL     1      -4.537   0.393  -6.473  1.00  0.00     0.026 C 
BRANCH  40  41
ATOM     41  C   UNL     1      -3.378  -0.005  -7.387  1.00  0.00     0.146 C 
BRANCH  41  42
ATOM     42  N   UNL     1      -3.171   1.025  -8.397  1.00  0.00    -0.254 NA
ATOM     43  C   UNL     1      -2.066   1.065  -9.042  1.00  0.00     0.185 C 
ATOM     44  N   UNL     1      -0.983   0.273  -8.953  1.00  0.00    -0.370 N 
ATOM     45  N   UNL     1      -1.893   2.025  -9.966  1.00  0.00    -0.370 N 
ATOM     46  H   UNL     1      -0.101   0.564  -9.340  1.00  0.00     0.159 HD
ATOM     47  H   UNL     1      -0.949  -0.514  -8.312  1.00  0.00     0.159 HD
ATOM     48  H   UNL     1      -2.667   2.661 -10.102  1.00  0.00     0.159 HD
ATOM     49  H   UNL     1      -1.174   1.983 -10.666  1.00  0.00     0.159 HD
ENDBRANCH  41  42
ENDBRANCH  40  41
ENDBRANCH  39  40
ENDBRANCH  38  39
ENDBRANCH  36  38
ENDBRANCH   5  34
BRANCH   8  50
ATOM     50  O   UNL     1      -5.944   3.212  -8.541  1.00  0.00    -0.245 OA
BRANCH  50  51
ATOM     51  S   UNL     1      -5.524   3.156 -10.111  1.00  0.00     0.397 S 
ATOM     52  O   UNL     1      -4.287   3.888 -10.269  1.00  0.00    -0.169 OA
ATOM     53  O   UNL     1      -6.682   3.436 -10.934  1.00  0.00    -0.169 OA
BRANCH  51  54
ATOM     54  O   UNL     1      -5.143   1.606 -10.302  1.00  0.00    -0.264 OA
ATOM     55  H   UNL     1      -4.393   1.558 -10.929  1.00  0.00     0.236 HD
ENDBRANCH  51  54
ENDBRANCH  50  51
ENDBRANCH   8  50
TORSDOF 19
ENDMDL
MODEL 10
REMARK VINA RESULT:    -7.252      5.358      8.698
REMARK INTER + INTRA:         -17.607
REMARK INTER:                 -12.984
REMARK INTRA:                  -4.624
REMARK UNBOUND:                -2.937
REMARK SMILES CC[C@@H](C)[C@@H](NC(=O)[C@@H](O)Cc1ccc(O)c(Cl)c1)C(=O)N1[C@H](C(=O)NCCCCN=C(N)N)C[C@H]2CC[C@H](OS(=O)(=O)O)C[C@@H]21
REMARK SMILES IDX 22 1 36 2 46 3 35 4 23 5 45 6 37 7 39 8 38 9 20 10 21 11
REMARK SMILES IDX 5 12 6 13 7 14 8 15 9 17 11 18 12 19 17 20 19 21 15 22 14 23
REMARK SMILES IDX 13 24 18 25 16 26 10 28 3 30 4 31 2 32 1 33 24 34 25 35
REMARK SMILES IDX 26 36 27 38 28 39 29 40 30 41 31 42 32 43 33 44 34 45 40 50
REMARK SMILES IDX 41 51 42 52 43 53 44 54
REMARK H PARENT 6 16 16 27 10 29 26 37 33 46 33 47 34 48 34 49 44 55
ROOT
ATOM      1  N   UNL     1      -5.818   7.088  10.884  1.00  0.00    -0.326 N 
ATOM      2  C   UNL     1      -4.850   9.117  10.185  1.00  0.00     0.014 C 
ATOM      3  C   UNL     1      -6.024   8.170   9.917  1.00  0.00     0.091 C 
ATOM      4  C   UNL     1      -3.728   8.162  10.559  1.00  0.00     0.041 C 
ATOM      5  C   UNL     1      -4.481   7.217  11.514  1.00  0.00     0.175 C 
ATOM      6  C   UNL     1      -7.320   8.974   9.994  1.00  0.00     0.059 C 
ATOM      7  C   UNL     1      -4.654  10.078   9.028  1.00  0.00     0.008 C 
ATOM      8  C   UNL     1      -7.170  10.442   9.540  1.00  0.00     0.143 C 
ATOM      9  C   UNL     1      -6.012  10.622   8.537  1.00  0.00     0.034 C 
ENDROOT
BRANCH   1  10
ATOM     10  C   UNL     1      -6.556   5.936  11.098  1.00  0.00     0.246 C 
ATOM     11  O   UNL     1      -7.401   5.922  12.000  1.00  0.00    -0.272 OA
BRANCH  10  12
ATOM     12  C   UNL     1      -6.337   4.703  10.174  1.00  0.00     0.174 C 
BRANCH  12  13
ATOM     13  N   UNL     1      -5.095   4.022  10.537  1.00  0.00    -0.342 N 
ATOM     14  C   UNL     1      -5.015   2.875  11.295  1.00  0.00     0.249 C 
ATOM     15  O   UNL     1      -5.990   2.276  11.730  1.00  0.00    -0.272 OA
ATOM     16  H   UNL     1      -4.203   4.485  10.381  1.00  0.00     0.164 HD
BRANCH  14  17
ATOM     17  C   UNL     1      -3.560   2.411  11.520  1.00  0.00     0.207 C 
BRANCH  17  18
ATOM     18  C   UNL     1      -3.244   1.194  10.644  1.00  0.00     0.077 C 
BRANCH  18  19
ATOM     19  C   UNL     1      -2.864   1.598   9.237  1.00  0.00    -0.043 A 
ATOM     20  C   UNL     1      -1.803   3.158   7.712  1.00  0.00     0.083 A 
ATOM     21  C   UNL     1      -2.111   2.761   9.014  1.00  0.00     0.028 A 
ATOM     22  C   UNL     1      -2.245   2.398   6.628  1.00  0.00     0.134 A 
ATOM     23  C   UNL     1      -2.991   1.244   6.835  1.00  0.00     0.048 A 
ATOM     24  C   UNL     1      -3.302   0.845   8.137  1.00  0.00     0.008 A 
ATOM     25  Cl  UNL     1      -0.878   4.590   7.457  1.00  0.00    -0.080 Cl
BRANCH  22  26
ATOM     26  O   UNL     1      -1.978   2.753   5.333  1.00  0.00    -0.506 OA
ATOM     27  H   UNL     1      -1.534   1.989   4.920  1.00  0.00     0.293 HD
ENDBRANCH  22  26
ENDBRANCH  18  19
ENDBRANCH  17  18
BRANCH  17  28
ATOM     28  O   UNL     1      -3.331   2.078  12.899  1.00  0.00    -0.383 OA
ATOM     29  H   UNL     1      -2.388   2.294  13.077  1.00  0.00     0.211 HD
ENDBRANCH  17  28
ENDBRANCH  14  17
ENDBRANCH  12  13
BRANCH  12  30
ATOM     30  C   UNL     1      -6.395   5.065   8.666  1.00  0.00     0.018 C 
ATOM     31  C   UNL     1      -7.811   4.854   8.107  1.00  0.00     0.010 C 
BRANCH  30  32
ATOM     32  C   UNL     1      -5.363   4.300   7.803  1.00  0.00     0.002 C 
ATOM     33  C   UNL     1      -5.955   3.392   6.733  1.00  0.00     0.004 C 
ENDBRANCH  30  32
ENDBRANCH  12  30
ENDBRANCH  10  12
ENDBRANCH   1  10
BRANCH   5  34
ATOM     34  C   UNL     1      -4.599   7.821  12.939  1.00  0.00     0.242 C 
ATOM     35  O   UNL     1      -3.615   8.175  13.588  1.00  0.00    -0.273 OA
ATOM     36  N   UNL     1      -5.879   7.880  13.445  1.00  0.00    -0.354 N 
ATOM     37  H   UNL     1      -6.639   7.461  12.909  1.00  0.00     0.163 HD
BRANCH  36  38
ATOM     38  C   UNL     1      -6.198   8.604  14.658  1.00  0.00     0.116 C 
BRANCH  38  39
ATOM     39  C   UNL     1      -6.568  10.046  14.319  1.00  0.00     0.023 C 
BRANCH  39  40
ATOM     40  C   UNL     1      -7.647  10.602  15.242  1.00  0.00     0.026 C 
BRANCH  40  41
ATOM     41  C   UNL     1      -8.986   9.910  14.990  1.00  0.00     0.146 C 
BRANCH  41  42
ATOM     42  N   UNL     1      -9.554  10.379  13.732  1.00  0.00    -0.254 NA
ATOM     43  C   UNL     1      -9.764   9.546  12.784  1.00  0.00     0.185 C 
ATOM     44  N   UNL     1      -9.543   8.219  12.731  1.00  0.00    -0.370 N 
ATOM     45  N   UNL     1     -10.284   9.998  11.631  1.00  0.00    -0.370 N 
ATOM     46  H   UNL     1      -9.525   7.737  11.849  1.00  0.00     0.159 HD
ATOM     47  H   UNL     1      -9.164   7.711  13.524  1.00  0.00     0.159 HD
ATOM     48  H   UNL     1     -10.489  10.987  11.589  1.00  0.00     0.159 HD
ATOM     49  H   UNL     1     -10.693   9.391  10.943  1.00  0.00     0.159 HD
ENDBRANCH  41  42
ENDBRANCH  40  41
ENDBRANCH  39  40
ENDBRANCH  38  39
ENDBRANCH  36  38
ENDBRANCH   5  34
BRANCH   8  50
ATOM     50  O   UNL     1      -6.926  11.282  10.669  1.00  0.00    -0.245 OA
BRANCH  50  51
ATOM     51  S   UNL     1      -7.804  12.637  10.867  1.00  0.00     0.397 S 
ATOM     52  O   UNL     1      -9.038  12.479  10.131  1.00  0.00    -0.169 OA
ATOM     53  O   UNL     1      -6.955  13.796  10.687  1.00  0.00    -0.169 OA
BRANCH  51  54
ATOM     54  O   UNL     1      -8.206  12.552  12.421  1.00  0.00    -0.264 OA
ATOM     55  H   UNL     1      -7.409  12.280  12.921  1.00  0.00     0.236 HD
ENDBRANCH  51  54
ENDBRANCH  50  51
ENDBRANCH   8  50
TORSDOF 19
ENDMDL
