MODEL 1
REMARK VINA RESULT:    -6.866      0.000      0.000
REMARK INTER + INTRA:         -27.311
REMARK INTER:                 -20.512
REMARK INTRA:                  -6.799
REMARK UNBOUND:                -6.799
REMARK SMILES C=C1C(=O)N[C@H](C)C(=O)N[C@@H](CC(C)C)C(=O)N[C@@H](C(=O)O)[C@H](C)C(=O)N[C@@H](CCCN=C(N)N)C(=O)N[C@@H](/C=C/C(C)=C/[C@H](C)[C@H](Cc2ccccc2)OC)[C@H](C)C(=O)N[C@@H](C(=O)O)CCC(=O)N1C
REMARK SMILES IDX 39 1 38 2 37 3 36 4 28 6 27 7 25 8 26 9 23 11 24 12 19 13
REMARK SMILES IDX 18 14 16 15 17 16 11 18 10 19 8 20 9 21 12 24 13 25 14 26
REMARK SMILES IDX 15 27 20 28 21 29 22 30 29 32 30 33 31 34 32 35 33 36 34 37
REMARK SMILES IDX 35 38 57 43 58 44 59 45 60 46 61 47 62 49 66 50 67 51 68 52
REMARK SMILES IDX 69 53 70 54 71 55 2 56 1 57 3 58 4 59 5 60 6 62 7 63 63 65
REMARK SMILES IDX 64 66 65 67 40 69 41 70 42 71 44 72 43 73 45 74 46 75 47 76
REMARK SMILES IDX 55 77 56 78 48 79 49 80 50 81 54 82 51 83 53 84 52 85
REMARK H PARENT 38 5 27 10 18 17 10 22 22 31 34 39 34 40 35 41 35 42 61 48
REMARK H PARENT 5 61 65 68
REMARK Flexibility Score:  369.900
ROOT
ATOM      1  C   UNL     1     -14.491   1.198  -8.645  1.00  0.00     0.117 C 
ENDROOT
BRANCH   1   2
ATOM      2  N   UNL     1     -13.201   1.809  -8.325  1.00  0.00    -0.347 N 
ATOM      3  O   UNL     1     -12.404   0.156  -6.946  1.00  0.00    -0.273 OA
ATOM      4  C   UNL     1     -12.220   1.195  -7.572  1.00  0.00     0.243 C 
ATOM      5  H   UNL     1     -12.974   2.714  -8.709  1.00  0.00     0.164 HD
BRANCH   4   6
ATOM      6  C   UNL     1     -10.915   2.022  -7.454  1.00  0.00     0.171 C 
BRANCH   6   7
ATOM      7  N   UNL     1      -9.878   1.479  -8.346  1.00  0.00    -0.344 N 
ATOM      8  C   UNL     1      -8.958   0.565  -7.879  1.00  0.00     0.226 C 
ATOM      9  O   UNL     1      -8.940   0.181  -6.715  1.00  0.00    -0.275 OA
ATOM     10  H   UNL     1      -9.819   1.822  -9.296  1.00  0.00     0.164 HD
BRANCH   8  11
ATOM     11  C   UNL     1      -7.990   0.058  -8.933  1.00  0.00     0.109 C 
ATOM     12  C   UNL     1      -7.178   1.220  -9.504  1.00  0.00     0.021 C 
BRANCH  11  13
ATOM     13  C   UNL     1      -7.149  -1.099  -8.356  1.00  0.00     0.204 C 
BRANCH  13  14
ATOM     14  N   UNL     1      -7.981  -2.235  -7.948  1.00  0.00    -0.340 N 
ATOM     15  C   UNL     1      -7.525  -3.238  -7.120  1.00  0.00     0.243 C 
ATOM     16  O   UNL     1      -6.404  -3.217  -6.614  1.00  0.00    -0.273 OA
ATOM     17  H   UNL     1      -8.860  -2.391  -8.449  1.00  0.00     0.164 HD
BRANCH  15  18
ATOM     18  C   UNL     1      -8.502  -4.432  -6.997  1.00  0.00     0.171 C 
BRANCH  18  19
ATOM     19  N   UNL     1      -7.790  -5.608  -7.492  1.00  0.00    -0.343 N 
ATOM     20  C   UNL     1      -8.298  -6.394  -8.508  1.00  0.00     0.242 CG0
ATOM     21  O   UNL     1      -9.431  -6.219  -8.952  1.00  0.00    -0.273 OA
ATOM     22  H   UNL     1      -6.901  -5.863  -7.077  1.00  0.00     0.164 HD
ATOM     23  G   UNL     1      -7.370  -7.544  -8.949  1.00  0.00     0.000 G0
ENDBRANCH  18  19
BRANCH  18  24
ATOM     24  C   UNL     1      -8.951  -4.617  -5.542  1.00  0.00     0.038 C 
BRANCH  24  25
ATOM     25  C   UNL     1      -8.870  -3.343  -4.676  1.00  0.00    -0.015 C 
ATOM     26  C   UNL     1      -8.195  -3.594  -3.327  1.00  0.00     0.007 C 
ATOM     27  C   UNL     1     -10.277  -2.782  -4.452  1.00  0.00     0.007 C 
ENDBRANCH  24  25
ENDBRANCH  18  24
ENDBRANCH  15  18
ENDBRANCH  13  14
BRANCH  13  28
ATOM     28  C   UNL     1      -6.102  -1.632  -9.338  1.00  0.00     0.327 C 
ATOM     29  O   UNL     1      -6.321  -2.095 -10.448  1.00  0.00    -0.250 OA
BRANCH  28  30
ATOM     30  O   UNL     1      -4.857  -1.662  -8.820  1.00  0.00    -0.480 OA
ATOM     31  H   UNL     1      -4.335  -1.083  -9.413  1.00  0.00     0.296 HD
ENDBRANCH  28  30
ENDBRANCH  13  28
ENDBRANCH  11  13
ENDBRANCH   8  11
ENDBRANCH   6   7
BRANCH   6  32
ATOM     32  C   UNL     1     -11.215   3.487  -7.793  1.00  0.00     0.037 C 
BRANCH  32  33
ATOM     33  C   UNL     1     -10.828   4.437  -6.651  1.00  0.00     0.026 C 
BRANCH  33  34
ATOM     34  C   UNL     1      -9.785   5.471  -7.078  1.00  0.00     0.146 C 
BRANCH  34  35
ATOM     35  N   UNL     1      -9.402   5.209  -8.458  1.00  0.00    -0.254 NA
ATOM     36  C   UNL     1      -8.183   4.904  -8.710  1.00  0.00     0.185 C 
ATOM     37  N   UNL     1      -7.820   4.656  -9.978  1.00  0.00    -0.370 N 
ATOM     38  N   UNL     1      -7.149   4.785  -7.859  1.00  0.00    -0.370 N 
ATOM     39  H   UNL     1      -8.548   4.715 -10.679  1.00  0.00     0.159 HD
ATOM     40  H   UNL     1      -6.938   4.246 -10.233  1.00  0.00     0.159 HD
ATOM     41  H   UNL     1      -6.207   4.677  -8.196  1.00  0.00     0.159 HD
ATOM     42  H   UNL     1      -7.273   4.960  -6.873  1.00  0.00     0.159 HD
ENDBRANCH  34  35
ENDBRANCH  33  34
ENDBRANCH  32  33
ENDBRANCH   6  32
ENDBRANCH   4   6
ENDBRANCH   1   2
BRANCH   1  43
ATOM     43  C   UNL     1     -14.434   0.654 -10.102  1.00  0.00     0.102 C 
ATOM     44  C   UNL     1     -13.085   0.906 -10.797  1.00  0.00     0.020 C 
BRANCH  43  45
ATOM     45  C   UNL     1     -15.647   1.122 -10.912  1.00  0.00     0.225 C 
ATOM     46  O   UNL     1     -16.627   0.414 -11.122  1.00  0.00    -0.275 OA
ATOM     47  N   UNL     1     -15.533   2.371 -11.480  1.00  0.00    -0.342 N 
ATOM     48  H   UNL     1     -14.798   2.993 -11.177  1.00  0.00     0.164 HD
BRANCH  47  49
ATOM     49  C   UNL     1     -16.630   2.963 -12.252  1.00  0.00     0.192 C 
BRANCH  49  50
ATOM     50  C   UNL     1     -16.070   4.007 -13.222  1.00  0.00     0.047 C 
BRANCH  50  51
ATOM     51  C   UNL     1     -14.552   4.179 -13.080  1.00  0.00     0.103 C 
BRANCH  51  52
ATOM     52  C   UNL     1     -14.188   5.217 -12.021  1.00  0.00     0.226 C 
ATOM     53  O   UNL     1     -13.990   4.859 -10.858  1.00  0.00    -0.275 OA
BRANCH  52  54
ATOM     54  N   UNL     1     -14.026   6.541 -12.470  1.00  0.00    -0.311 N 
ATOM     55  C   UNL     1     -12.756   6.991 -13.055  1.00  0.00     0.153 C 
BRANCH  54  56
ATOM     56  C   UNL     1     -15.070   7.477 -12.383  1.00  0.00     0.102 C 
ATOM     57  C   UNL     1     -15.673   7.852 -11.243  1.00  0.00     0.043 C 
BRANCH  56  58
ATOM     58  C   UNL     1     -15.577   8.190 -13.614  1.00  0.00     0.268 C 
ATOM     59  O   UNL     1     -16.365   7.686 -14.403  1.00  0.00    -0.268 OA
ATOM     60  N   UNL     1     -15.114   9.480 -13.721  1.00  0.00    -0.339 N 
ATOM     61  H   UNL     1     -14.454   9.820 -13.031  1.00  0.00     0.164 HD
BRANCH  60  62
ATOM     62  C   UNL     1     -15.529  10.370 -14.804  1.00  0.00     0.168 CG0
ATOM     63  C   UNL     1     -14.569  10.281 -15.983  1.00  0.00     0.041 C 
ATOM     64  G   UNL     1     -15.616  11.818 -14.279  1.00  0.00     0.000 G0
ENDBRANCH  60  62
ENDBRANCH  56  58
ENDBRANCH  54  56
ENDBRANCH  52  54
ENDBRANCH  51  52
ENDBRANCH  50  51
ENDBRANCH  49  50
BRANCH  49  65
ATOM     65  C   UNL     1     -17.674   3.624 -11.339  1.00  0.00     0.326 C 
ATOM     66  O   UNL     1     -17.775   4.824 -11.128  1.00  0.00    -0.250 OA
BRANCH  65  67
ATOM     67  O   UNL     1     -18.488   2.759 -10.695  1.00  0.00    -0.480 OA
ATOM     68  H   UNL     1     -19.381   2.986 -11.035  1.00  0.00     0.296 HD
ENDBRANCH  65  67
ENDBRANCH  49  65
ENDBRANCH  47  49
ENDBRANCH  43  45
ENDBRANCH   1  43
BRANCH   1  69
ATOM     69  C   UNL     1     -15.548   2.226  -8.287  1.00  0.00    -0.001 C 
ATOM     70  C   UNL     1     -15.384   3.554  -8.152  1.00  0.00     0.001 C 
BRANCH  70  71
ATOM     71  C   UNL     1     -16.417   4.539  -7.827  1.00  0.00    -0.055 C 
ATOM     72  C   UNL     1     -17.488   4.117  -7.123  1.00  0.00    -0.018 C 
ATOM     73  C   UNL     1     -16.207   5.956  -8.294  1.00  0.00     0.044 C 
BRANCH  72  74
ATOM     74  C   UNL     1     -18.699   4.906  -6.645  1.00  0.00     0.038 C 
ATOM     75  C   UNL     1     -18.360   5.457  -5.254  1.00  0.00     0.015 C 
BRANCH  74  76
ATOM     76  C   UNL     1     -19.951   3.982  -6.695  1.00  0.00     0.128 C 
BRANCH  76  77
ATOM     77  O   UNL     1     -21.007   4.625  -7.427  1.00  0.00    -0.381 OA
ATOM     78  C   UNL     1     -20.559   5.321  -8.583  1.00  0.00     0.195 C 
ENDBRANCH  76  77
BRANCH  76  79
ATOM     79  C   UNL     1     -19.655   2.548  -7.203  1.00  0.00     0.068 C 
BRANCH  79  80
ATOM     80  C   UNL     1     -19.070   1.558  -6.226  1.00  0.00    -0.045 A 
ATOM     81  C   UNL     1     -19.274   1.698  -4.847  1.00  0.00     0.004 A 
ATOM     82  C   UNL     1     -18.284   0.490  -6.686  1.00  0.00     0.004 A 
ATOM     83  C   UNL     1     -18.717   0.786  -3.948  1.00  0.00     0.000 A 
ATOM     84  C   UNL     1     -17.727  -0.421  -5.786  1.00  0.00     0.000 A 
ATOM     85  C   UNL     1     -17.945  -0.275  -4.418  1.00  0.00     0.000 A 
ENDBRANCH  79  80
ENDBRANCH  76  79
ENDBRANCH  74  76
ENDBRANCH  72  74
ENDBRANCH  70  71
ENDBRANCH   1  69
TORSDOF 17
ENDMDL
MODEL 2
REMARK VINA RESULT:    -6.826      2.949     12.616
REMARK INTER + INTRA:         -27.191
REMARK INTER:                 -19.925
REMARK INTRA:                  -7.267
REMARK UNBOUND:                -6.799
REMARK SMILES C=C1C(=O)N[C@H](C)C(=O)N[C@@H](CC(C)C)C(=O)N[C@@H](C(=O)O)[C@H](C)C(=O)N[C@@H](CCCN=C(N)N)C(=O)N[C@@H](/C=C/C(C)=C/[C@H](C)[C@H](Cc2ccccc2)OC)[C@H](C)C(=O)N[C@@H](C(=O)O)CCC(=O)N1C
REMARK SMILES IDX 39 1 38 2 37 3 36 4 28 6 27 7 25 8 26 9 23 11 24 12 19 13
REMARK SMILES IDX 18 14 16 15 17 16 11 18 10 19 8 20 9 21 12 24 13 25 14 26
REMARK SMILES IDX 15 27 20 28 21 29 22 30 29 32 30 33 31 34 32 35 33 36 34 37
REMARK SMILES IDX 35 38 57 43 58 44 59 45 60 46 61 47 62 49 66 50 67 51 68 52
REMARK SMILES IDX 69 53 70 54 71 55 2 56 1 57 3 58 4 59 5 60 6 62 7 63 63 65
REMARK SMILES IDX 64 66 65 67 40 69 41 70 42 71 44 72 43 73 45 74 46 75 47 76
REMARK SMILES IDX 55 77 56 78 48 79 49 80 50 81 54 82 51 83 53 84 52 85
REMARK H PARENT 38 5 27 10 18 17 10 22 22 31 34 39 34 40 35 41 35 42 61 48
REMARK H PARENT 5 61 65 68
REMARK Flexibility Score:  369.900
ROOT
ATOM      1  C   UNL     1     -13.496   1.811  -9.176  1.00  0.00     0.117 C 
ENDROOT
BRANCH   1   2
ATOM      2  N   UNL     1     -14.713   1.786  -8.364  1.00  0.00    -0.347 N 
ATOM      3  O   UNL     1     -15.094  -0.477  -8.442  1.00  0.00    -0.273 OA
ATOM      4  C   UNL     1     -15.366   0.628  -7.985  1.00  0.00     0.243 C 
ATOM      5  H   UNL     1     -15.088   2.652  -8.007  1.00  0.00     0.164 HD
BRANCH   4   6
ATOM      6  C   UNL     1     -16.581   0.874  -7.054  1.00  0.00     0.171 C 
BRANCH   6   7
ATOM      7  N   UNL     1     -17.832   0.865  -7.829  1.00  0.00    -0.344 N 
ATOM      8  C   UNL     1     -18.475   2.044  -8.138  1.00  0.00     0.226 C 
ATOM      9  O   UNL     1     -18.061   3.138  -7.773  1.00  0.00    -0.275 OA
ATOM     10  H   UNL     1     -18.241  -0.023  -8.090  1.00  0.00     0.164 HD
BRANCH   8  11
ATOM     11  C   UNL     1     -19.722   1.872  -8.987  1.00  0.00     0.109 C 
ATOM     12  C   UNL     1     -20.959   2.310  -8.202  1.00  0.00     0.021 C 
BRANCH  11  13
ATOM     13  C   UNL     1     -19.531   2.581 -10.343  1.00  0.00     0.204 C 
BRANCH  13  14
ATOM     14  N   UNL     1     -19.318   4.023 -10.187  1.00  0.00    -0.340 N 
ATOM     15  C   UNL     1     -20.288   4.958 -10.475  1.00  0.00     0.243 C 
ATOM     16  O   UNL     1     -21.424   4.645 -10.827  1.00  0.00    -0.273 OA
ATOM     17  H   UNL     1     -18.360   4.354 -10.047  1.00  0.00     0.164 HD
BRANCH  15  18
ATOM     18  C   UNL     1     -19.771   6.417 -10.435  1.00  0.00     0.171 C 
BRANCH  18  19
ATOM     19  N   UNL     1     -20.937   7.269 -10.213  1.00  0.00    -0.343 N 
ATOM     20  C   UNL     1     -21.308   8.248 -11.114  1.00  0.00     0.242 CG0
ATOM     21  O   UNL     1     -20.600   8.538 -12.076  1.00  0.00    -0.273 OA
ATOM     22  H   UNL     1     -21.490   7.146  -9.372  1.00  0.00     0.164 HD
ATOM     23  G   UNL     1     -22.609   8.991 -10.749  1.00  0.00     0.000 G0
ENDBRANCH  18  19
BRANCH  18  24
ATOM     24  C   UNL     1     -18.727   6.592  -9.325  1.00  0.00     0.038 C 
BRANCH  24  25
ATOM     25  C   UNL     1     -17.302   6.909  -9.824  1.00  0.00    -0.015 C 
ATOM     26  C   UNL     1     -17.182   6.823 -11.346  1.00  0.00     0.007 C 
ATOM     27  C   UNL     1     -16.303   5.948  -9.173  1.00  0.00     0.007 C 
ENDBRANCH  24  25
ENDBRANCH  18  24
ENDBRANCH  15  18
ENDBRANCH  13  14
BRANCH  13  28
ATOM     28  C   UNL     1     -18.351   2.032 -11.150  1.00  0.00     0.327 C 
ATOM     29  O   UNL     1     -17.774   2.600 -12.065  1.00  0.00    -0.250 OA
BRANCH  28  30
ATOM     30  O   UNL     1     -18.044   0.756 -10.838  1.00  0.00    -0.480 OA
ATOM     31  H   UNL     1     -18.376   0.645  -9.923  1.00  0.00     0.296 HD
ENDBRANCH  28  30
ENDBRANCH  13  28
ENDBRANCH  11  13
ENDBRANCH   8  11
ENDBRANCH   6   7
BRANCH   6  32
ATOM     32  C   UNL     1     -16.605  -0.202  -5.963  1.00  0.00     0.037 C 
BRANCH  32  33
ATOM     33  C   UNL     1     -18.019  -0.439  -5.414  1.00  0.00     0.026 C 
BRANCH  33  34
ATOM     34  C   UNL     1     -18.339   0.457  -4.217  1.00  0.00     0.146 C 
BRANCH  34  35
ATOM     35  N   UNL     1     -18.404   1.840  -4.669  1.00  0.00    -0.254 NA
ATOM     36  C   UNL     1     -19.515   2.469  -4.567  1.00  0.00     0.185 C 
ATOM     37  N   UNL     1     -19.584   3.745  -4.976  1.00  0.00    -0.370 N 
ATOM     38  N   UNL     1     -20.692   2.031  -4.087  1.00  0.00    -0.370 N 
ATOM     39  H   UNL     1     -18.732   4.152  -5.342  1.00  0.00     0.159 HD
ATOM     40  H   UNL     1     -20.358   4.353  -4.772  1.00  0.00     0.159 HD
ATOM     41  H   UNL     1     -21.532   2.577  -4.188  1.00  0.00     0.159 HD
ATOM     42  H   UNL     1     -20.791   1.083  -3.758  1.00  0.00     0.159 HD
ENDBRANCH  34  35
ENDBRANCH  33  34
ENDBRANCH  32  33
ENDBRANCH   6  32
ENDBRANCH   4   6
ENDBRANCH   1   2
BRANCH   1  43
ATOM     43  C   UNL     1     -12.269   1.642  -8.234  1.00  0.00     0.102 C 
ATOM     44  C   UNL     1     -11.855   2.944  -7.527  1.00  0.00     0.020 C 
BRANCH  43  45
ATOM     45  C   UNL     1     -11.118   0.932  -8.952  1.00  0.00     0.225 C 
ATOM     46  O   UNL     1     -11.195   0.531 -10.110  1.00  0.00    -0.275 OA
ATOM     47  N   UNL     1     -10.004   0.682  -8.184  1.00  0.00    -0.342 N 
ATOM     48  H   UNL     1      -9.897   1.146  -7.293  1.00  0.00     0.164 HD
BRANCH  47  49
ATOM     49  C   UNL     1      -8.812   0.042  -8.748  1.00  0.00     0.192 C 
BRANCH  49  50
ATOM     50  C   UNL     1      -8.119  -0.796  -7.670  1.00  0.00     0.047 C 
BRANCH  50  51
ATOM     51  C   UNL     1      -7.076  -1.756  -8.259  1.00  0.00     0.103 C 
BRANCH  51  52
ATOM     52  C   UNL     1      -7.440  -3.219  -8.012  1.00  0.00     0.226 C 
ATOM     53  O   UNL     1      -7.820  -3.920  -8.952  1.00  0.00    -0.275 OA
BRANCH  52  54
ATOM     54  N   UNL     1      -7.240  -3.702  -6.706  1.00  0.00    -0.311 N 
ATOM     55  C   UNL     1      -5.887  -3.845  -6.151  1.00  0.00     0.153 C 
BRANCH  54  56
ATOM     56  C   UNL     1      -8.321  -4.061  -5.884  1.00  0.00     0.102 C 
ATOM     57  C   UNL     1      -8.944  -3.232  -5.030  1.00  0.00     0.043 C 
BRANCH  56  58
ATOM     58  C   UNL     1      -8.911  -5.450  -5.941  1.00  0.00     0.268 C 
ATOM     59  O   UNL     1      -9.609  -5.844  -6.865  1.00  0.00    -0.268 OA
ATOM     60  N   UNL     1      -8.529  -6.242  -4.884  1.00  0.00    -0.339 N 
ATOM     61  H   UNL     1      -7.957  -5.837  -4.153  1.00  0.00     0.164 HD
BRANCH  60  62
ATOM     62  C   UNL     1      -8.935  -7.643  -4.775  1.00  0.00     0.168 CG0
ATOM     63  C   UNL     1      -7.726  -8.569  -4.827  1.00  0.00     0.041 C 
ATOM     64  G   UNL     1      -9.932  -7.982  -5.902  1.00  0.00     0.000 G0
ENDBRANCH  60  62
ENDBRANCH  56  58
ENDBRANCH  54  56
ENDBRANCH  52  54
ENDBRANCH  51  52
ENDBRANCH  50  51
ENDBRANCH  49  50
BRANCH  49  65
ATOM     65  C   UNL     1      -7.821   1.078  -9.302  1.00  0.00     0.326 C 
ATOM     66  O   UNL     1      -7.557   1.246 -10.484  1.00  0.00    -0.250 OA
BRANCH  65  67
ATOM     67  O   UNL     1      -7.174   1.799  -8.361  1.00  0.00    -0.480 OA
ATOM     68  H   UNL     1      -6.619   2.417  -8.884  1.00  0.00     0.296 HD
ENDBRANCH  65  67
ENDBRANCH  49  65
ENDBRANCH  47  49
ENDBRANCH  43  45
ENDBRANCH   1  43
BRANCH   1  69
ATOM     69  C   UNL     1     -13.590   3.054 -10.041  1.00  0.00    -0.001 C 
ATOM     70  C   UNL     1     -14.254   3.193 -11.203  1.00  0.00     0.001 C 
BRANCH  70  71
ATOM     71  C   UNL     1     -14.355   4.404 -12.019  1.00  0.00    -0.055 C 
ATOM     72  C   UNL     1     -13.685   5.500 -11.602  1.00  0.00    -0.018 C 
ATOM     73  C   UNL     1     -15.191   4.341 -13.270  1.00  0.00     0.044 C 
BRANCH  72  74
ATOM     74  C   UNL     1     -13.604   6.879 -12.239  1.00  0.00     0.038 C 
ATOM     75  C   UNL     1     -12.320   6.916 -13.077  1.00  0.00     0.015 C 
BRANCH  74  76
ATOM     76  C   UNL     1     -13.681   7.955 -11.116  1.00  0.00     0.128 C 
BRANCH  76  77
ATOM     77  O   UNL     1     -12.361   8.260 -10.637  1.00  0.00    -0.381 OA
ATOM     78  C   UNL     1     -12.290   8.429  -9.227  1.00  0.00     0.195 C 
ENDBRANCH  76  77
BRANCH  76  79
ATOM     79  C   UNL     1     -14.483   9.221 -11.511  1.00  0.00     0.068 C 
BRANCH  79  80
ATOM     80  C   UNL     1     -14.547   9.589 -12.974  1.00  0.00    -0.045 A 
ATOM     81  C   UNL     1     -15.633   9.199 -13.770  1.00  0.00     0.004 A 
ATOM     82  C   UNL     1     -13.500  10.309 -13.569  1.00  0.00     0.004 A 
ATOM     83  C   UNL     1     -15.678   9.531 -15.125  1.00  0.00     0.000 A 
ATOM     84  C   UNL     1     -13.546  10.640 -14.924  1.00  0.00     0.000 A 
ATOM     85  C   UNL     1     -14.635  10.253 -15.702  1.00  0.00     0.000 A 
ENDBRANCH  79  80
ENDBRANCH  76  79
ENDBRANCH  74  76
ENDBRANCH  72  74
ENDBRANCH  70  71
ENDBRANCH   1  69
TORSDOF 17
ENDMDL
MODEL 3
REMARK VINA RESULT:    -6.823     12.826     21.163
REMARK INTER + INTRA:         -27.182
REMARK INTER:                 -20.621
REMARK INTRA:                  -6.561
REMARK UNBOUND:                -6.799
REMARK SMILES C=C1C(=O)N[C@H](C)C(=O)N[C@@H](CC(C)C)C(=O)N[C@@H](C(=O)O)[C@H](C)C(=O)N[C@@H](CCCN=C(N)N)C(=O)N[C@@H](/C=C/C(C)=C/[C@H](C)[C@H](Cc2ccccc2)OC)[C@H](C)C(=O)N[C@@H](C(=O)O)CCC(=O)N1C
REMARK SMILES IDX 39 1 38 2 37 3 36 4 28 6 27 7 25 8 26 9 23 11 24 12 19 13
REMARK SMILES IDX 18 14 16 15 17 16 11 18 10 19 8 20 9 21 12 24 13 25 14 26
REMARK SMILES IDX 15 27 20 28 21 29 22 30 29 32 30 33 31 34 32 35 33 36 34 37
REMARK SMILES IDX 35 38 57 43 58 44 59 45 60 46 61 47 62 49 66 50 67 51 68 52
REMARK SMILES IDX 69 53 70 54 71 55 2 56 1 57 3 58 4 59 5 60 6 62 7 63 63 65
REMARK SMILES IDX 64 66 65 67 40 69 41 70 42 71 44 72 43 73 45 74 46 75 47 76
REMARK SMILES IDX 55 77 56 78 48 79 49 80 50 81 54 82 51 83 53 84 52 85
REMARK H PARENT 38 5 27 10 18 17 10 22 22 31 34 39 34 40 35 41 35 42 61 48
REMARK H PARENT 5 61 65 68
REMARK Flexibility Score:  369.900
ROOT
ATOM      1  C   UNL     1       1.787   2.087   2.211  1.00  0.00     0.117 C 
ENDROOT
BRANCH   1   2
ATOM      2  N   UNL     1       0.600   2.443   1.433  1.00  0.00    -0.347 N 
ATOM      3  O   UNL     1      -0.137   0.314   0.994  1.00  0.00    -0.273 OA
ATOM      4  C   UNL     1      -0.320   1.526   0.963  1.00  0.00     0.243 C 
ATOM      5  H   UNL     1       0.395   3.416   1.261  1.00  0.00     0.164 HD
BRANCH   4   6
ATOM      6  C   UNL     1      -1.532   2.172   0.244  1.00  0.00     0.171 C 
BRANCH   6   7
ATOM      7  N   UNL     1      -1.580   1.747  -1.164  1.00  0.00    -0.344 N 
ATOM      8  C   UNL     1      -1.721   2.675  -2.174  1.00  0.00     0.226 C 
ATOM      9  O   UNL     1      -1.834   3.875  -1.956  1.00  0.00    -0.275 OA
ATOM     10  H   UNL     1      -1.557   0.758  -1.380  1.00  0.00     0.164 HD
BRANCH   8  11
ATOM     11  C   UNL     1      -1.698   2.085  -3.573  1.00  0.00     0.109 C 
ATOM     12  C   UNL     1      -2.224   0.650  -3.547  1.00  0.00     0.021 C 
BRANCH  11  13
ATOM     13  C   UNL     1      -2.433   3.027  -4.548  1.00  0.00     0.204 C 
BRANCH  13  14
ATOM     14  N   UNL     1      -1.634   4.212  -4.877  1.00  0.00    -0.340 N 
ATOM     15  C   UNL     1      -2.158   5.487  -4.892  1.00  0.00     0.243 C 
ATOM     16  O   UNL     1      -3.320   5.727  -4.570  1.00  0.00    -0.273 OA
ATOM     17  H   UNL     1      -0.712   4.068  -5.297  1.00  0.00     0.164 HD
BRANCH  15  18
ATOM     18  C   UNL     1      -1.187   6.547  -5.468  1.00  0.00     0.171 C 
BRANCH  18  19
ATOM     19  N   UNL     1      -1.526   7.816  -4.827  1.00  0.00    -0.343 N 
ATOM     20  C   UNL     1      -2.230   8.803  -5.491  1.00  0.00     0.242 CG0
ATOM     21  O   UNL     1      -2.488   8.714  -6.689  1.00  0.00    -0.273 OA
ATOM     22  H   UNL     1      -1.233   7.985  -3.872  1.00  0.00     0.164 HD
ATOM     23  G   UNL     1      -2.562  10.038  -4.628  1.00  0.00     0.000 G0
ENDBRANCH  18  19
BRANCH  18  24
ATOM     24  C   UNL     1       0.269   6.152  -5.198  1.00  0.00     0.038 C 
BRANCH  24  25
ATOM     25  C   UNL     1       1.307   7.244  -5.533  1.00  0.00    -0.015 C 
ATOM     26  C   UNL     1       1.955   7.035  -6.902  1.00  0.00     0.007 C 
ATOM     27  C   UNL     1       2.389   7.277  -4.451  1.00  0.00     0.007 C 
ENDBRANCH  24  25
ENDBRANCH  18  24
ENDBRANCH  15  18
ENDBRANCH  13  14
BRANCH  13  28
ATOM     28  C   UNL     1      -2.810   2.352  -5.870  1.00  0.00     0.327 C 
ATOM     29  O   UNL     1      -2.039   2.011  -6.753  1.00  0.00    -0.250 OA
BRANCH  28  30
ATOM     30  O   UNL     1      -4.143   2.257  -6.053  1.00  0.00    -0.480 OA
ATOM     31  H   UNL     1      -4.336   2.907  -6.760  1.00  0.00     0.296 HD
ENDBRANCH  28  30
ENDBRANCH  13  28
ENDBRANCH  11  13
ENDBRANCH   8  11
ENDBRANCH   6   7
BRANCH   6  32
ATOM     32  C   UNL     1      -2.820   1.781   0.978  1.00  0.00     0.037 C 
BRANCH  32  33
ATOM     33  C   UNL     1      -2.891   2.389   2.386  1.00  0.00     0.026 C 
BRANCH  33  34
ATOM     34  C   UNL     1      -2.854   3.918   2.366  1.00  0.00     0.146 C 
BRANCH  34  35
ATOM     35  N   UNL     1      -1.682   4.369   3.103  1.00  0.00    -0.254 NA
ATOM     36  C   UNL     1      -1.770   4.502   4.374  1.00  0.00     0.185 C 
ATOM     37  N   UNL     1      -0.695   4.912   5.065  1.00  0.00    -0.370 N 
ATOM     38  N   UNL     1      -2.828   4.282   5.176  1.00  0.00    -0.370 N 
ATOM     39  H   UNL     1       0.147   5.088   4.531  1.00  0.00     0.159 HD
ATOM     40  H   UNL     1      -0.630   4.874   6.067  1.00  0.00     0.159 HD
ATOM     41  H   UNL     1      -2.813   4.557   6.144  1.00  0.00     0.159 HD
ATOM     42  H   UNL     1      -3.710   3.985   4.790  1.00  0.00     0.159 HD
ENDBRANCH  34  35
ENDBRANCH  33  34
ENDBRANCH  32  33
ENDBRANCH   6  32
ENDBRANCH   4   6
ENDBRANCH   1   2
BRANCH   1  43
ATOM     43  C   UNL     1       1.641   2.686   3.640  1.00  0.00     0.102 C 
ATOM     44  C   UNL     1       2.967   3.203   4.224  1.00  0.00     0.020 C 
BRANCH  43  45
ATOM     45  C   UNL     1       0.887   1.725   4.564  1.00  0.00     0.225 C 
ATOM     46  O   UNL     1      -0.154   1.161   4.240  1.00  0.00    -0.275 OA
ATOM     47  N   UNL     1       1.402   1.600   5.835  1.00  0.00    -0.342 N 
ATOM     48  H   UNL     1       2.330   1.945   6.035  1.00  0.00     0.164 HD
BRANCH  47  49
ATOM     49  C   UNL     1       0.805   0.689   6.816  1.00  0.00     0.192 C 
BRANCH  49  50
ATOM     50  C   UNL     1       0.321  -0.581   6.112  1.00  0.00     0.047 C 
BRANCH  50  51
ATOM     51  C   UNL     1       0.726  -1.855   6.865  1.00  0.00     0.103 C 
BRANCH  51  52
ATOM     52  C   UNL     1       0.429  -3.117   6.057  1.00  0.00     0.226 C 
ATOM     53  O   UNL     1       0.218  -3.031   4.846  1.00  0.00    -0.275 OA
BRANCH  52  54
ATOM     54  N   UNL     1       0.493  -4.337   6.756  1.00  0.00    -0.311 N 
ATOM     55  C   UNL     1      -0.557  -4.719   7.710  1.00  0.00     0.153 C 
BRANCH  54  56
ATOM     56  C   UNL     1       1.556  -5.236   6.564  1.00  0.00     0.102 C 
ATOM     57  C   UNL     1       1.574  -6.221   5.650  1.00  0.00     0.043 C 
BRANCH  56  58
ATOM     58  C   UNL     1       2.823  -5.123   7.378  1.00  0.00     0.268 C 
ATOM     59  O   UNL     1       3.179  -4.087   7.923  1.00  0.00    -0.268 OA
ATOM     60  N   UNL     1       3.497  -6.315   7.496  1.00  0.00    -0.339 N 
ATOM     61  H   UNL     1       3.142  -7.127   7.005  1.00  0.00     0.164 HD
BRANCH  60  62
ATOM     62  C   UNL     1       4.716  -6.445   8.294  1.00  0.00     0.168 CG0
ATOM     63  C   UNL     1       4.403  -6.969   9.690  1.00  0.00     0.041 C 
ATOM     64  G   UNL     1       5.431  -5.080   8.370  1.00  0.00     0.000 G0
ENDBRANCH  60  62
ENDBRANCH  56  58
ENDBRANCH  54  56
ENDBRANCH  52  54
ENDBRANCH  51  52
ENDBRANCH  50  51
ENDBRANCH  49  50
BRANCH  49  65
ATOM     65  C   UNL     1      -0.374   1.343   7.553  1.00  0.00     0.326 C 
ATOM     66  O   UNL     1      -0.767   1.044   8.672  1.00  0.00    -0.250 OA
BRANCH  65  67
ATOM     67  O   UNL     1      -1.032   2.284   6.841  1.00  0.00    -0.480 OA
ATOM     68  H   UNL     1      -1.960   2.202   7.150  1.00  0.00     0.296 HD
ENDBRANCH  65  67
ENDBRANCH  49  65
ENDBRANCH  47  49
ENDBRANCH  43  45
ENDBRANCH   1  43
BRANCH   1  69
ATOM     69  C   UNL     1       2.983   2.488   1.366  1.00  0.00    -0.001 C 
ATOM     70  C   UNL     1       3.019   3.405   0.384  1.00  0.00     0.001 C 
BRANCH  70  71
ATOM     71  C   UNL     1       4.184   3.799  -0.410  1.00  0.00    -0.055 C 
ATOM     72  C   UNL     1       5.289   3.027  -0.328  1.00  0.00    -0.018 C 
ATOM     73  C   UNL     1       4.066   5.032  -1.267  1.00  0.00     0.044 C 
BRANCH  72  74
ATOM     74  C   UNL     1       6.629   3.186  -1.032  1.00  0.00     0.038 C 
ATOM     75  C   UNL     1       7.403   4.282  -0.289  1.00  0.00     0.015 C 
BRANCH  74  76
ATOM     76  C   UNL     1       6.372   3.477  -2.540  1.00  0.00     0.128 C 
BRANCH  76  77
ATOM     77  O   UNL     1       7.571   3.977  -3.155  1.00  0.00    -0.381 OA
ATOM     78  C   UNL     1       7.828   3.424  -4.439  1.00  0.00     0.195 C 
ENDBRANCH  76  77
BRANCH  76  79
ATOM     79  C   UNL     1       5.753   2.287  -3.314  1.00  0.00     0.068 C 
BRANCH  79  80
ATOM     80  C   UNL     1       4.343   2.436  -3.832  1.00  0.00    -0.045 A 
ATOM     81  C   UNL     1       3.298   1.658  -3.317  1.00  0.00     0.004 A 
ATOM     82  C   UNL     1       4.061   3.345  -4.864  1.00  0.00     0.004 A 
ATOM     83  C   UNL     1       1.999   1.792  -3.811  1.00  0.00     0.000 A 
ATOM     84  C   UNL     1       2.761   3.478  -5.358  1.00  0.00     0.000 A 
ATOM     85  C   UNL     1       1.731   2.703  -4.831  1.00  0.00     0.000 A 
ENDBRANCH  79  80
ENDBRANCH  76  79
ENDBRANCH  74  76
ENDBRANCH  72  74
ENDBRANCH  70  71
ENDBRANCH   1  69
TORSDOF 17
ENDMDL
MODEL 4
REMARK VINA RESULT:    -6.746     12.715     19.102
REMARK INTER + INTRA:         -26.955
REMARK INTER:                 -19.837
REMARK INTRA:                  -7.118
REMARK UNBOUND:                -6.799
REMARK SMILES C=C1C(=O)N[C@H](C)C(=O)N[C@@H](CC(C)C)C(=O)N[C@@H](C(=O)O)[C@H](C)C(=O)N[C@@H](CCCN=C(N)N)C(=O)N[C@@H](/C=C/C(C)=C/[C@H](C)[C@H](Cc2ccccc2)OC)[C@H](C)C(=O)N[C@@H](C(=O)O)CCC(=O)N1C
REMARK SMILES IDX 39 1 38 2 37 3 36 4 28 6 27 7 25 8 26 9 23 11 24 12 19 13
REMARK SMILES IDX 18 14 16 15 17 16 11 18 10 19 8 20 9 21 12 24 13 25 14 26
REMARK SMILES IDX 15 27 20 28 21 29 22 30 29 32 30 33 31 34 32 35 33 36 34 37
REMARK SMILES IDX 35 38 57 43 58 44 59 45 60 46 61 47 62 49 66 50 67 51 68 52
REMARK SMILES IDX 69 53 70 54 71 55 2 56 1 57 3 58 4 59 5 60 6 62 7 63 63 65
REMARK SMILES IDX 64 66 65 67 40 69 41 70 42 71 44 72 43 73 45 74 46 75 47 76
REMARK SMILES IDX 55 77 56 78 48 79 49 80 50 81 54 82 51 83 53 84 52 85
REMARK H PARENT 38 5 27 10 18 17 10 22 22 31 34 39 34 40 35 41 35 42 61 48
REMARK H PARENT 5 61 65 68
REMARK Flexibility Score:  369.900
ROOT
ATOM      1  C   UNL     1       1.113   3.435   1.104  1.00  0.00     0.117 C 
ENDROOT
BRANCH   1   2
ATOM      2  N   UNL     1       0.189   3.498  -0.029  1.00  0.00    -0.347 N 
ATOM      3  O   UNL     1       0.230   1.273  -0.592  1.00  0.00    -0.273 OA
ATOM      4  C   UNL     1      -0.250   2.393  -0.732  1.00  0.00     0.243 C 
ATOM      5  H   UNL     1      -0.201   4.388  -0.300  1.00  0.00     0.164 HD
BRANCH   4   6
ATOM      6  C   UNL     1      -1.292   2.726  -1.830  1.00  0.00     0.171 C 
BRANCH   6   7
ATOM      7  N   UNL     1      -2.527   3.251  -1.226  1.00  0.00    -0.344 N 
ATOM      8  C   UNL     1      -3.300   2.459  -0.406  1.00  0.00     0.226 C 
ATOM      9  O   UNL     1      -3.019   1.292  -0.159  1.00  0.00    -0.275 OA
ATOM     10  H   UNL     1      -2.827   4.189  -1.460  1.00  0.00     0.164 HD
BRANCH   8  11
ATOM     11  C   UNL     1      -4.511   3.161   0.183  1.00  0.00     0.109 C 
ATOM     12  C   UNL     1      -4.844   2.575   1.555  1.00  0.00     0.021 C 
BRANCH  11  13
ATOM     13  C   UNL     1      -4.287   4.687   0.166  1.00  0.00     0.204 C 
BRANCH  13  14
ATOM     14  N   UNL     1      -5.516   5.428   0.471  1.00  0.00    -0.340 N 
ATOM     15  C   UNL     1      -5.862   6.597  -0.170  1.00  0.00     0.243 C 
ATOM     16  O   UNL     1      -5.193   7.071  -1.087  1.00  0.00    -0.273 OA
ATOM     17  H   UNL     1      -6.032   5.174   1.317  1.00  0.00     0.164 HD
BRANCH  15  18
ATOM     18  C   UNL     1      -7.086   7.308   0.458  1.00  0.00     0.171 C 
BRANCH  18  19
ATOM     19  N   UNL     1      -7.301   8.531  -0.312  1.00  0.00    -0.343 N 
ATOM     20  C   UNL     1      -7.421   9.765   0.298  1.00  0.00     0.242 CG0
ATOM     21  O   UNL     1      -7.485   9.875   1.520  1.00  0.00    -0.273 OA
ATOM     22  H   UNL     1      -7.372   8.477  -1.322  1.00  0.00     0.164 HD
ATOM     23  G   UNL     1      -7.564  10.948  -0.682  1.00  0.00     0.000 G0
ENDBRANCH  18  19
BRANCH  18  24
ATOM     24  C   UNL     1      -8.319   6.396   0.421  1.00  0.00     0.038 C 
BRANCH  24  25
ATOM     25  C   UNL     1      -8.782   5.882   1.801  1.00  0.00    -0.015 C 
ATOM     26  C   UNL     1      -7.988   6.499   2.952  1.00  0.00     0.007 C 
ATOM     27  C   UNL     1      -8.658   4.357   1.850  1.00  0.00     0.007 C 
ENDBRANCH  24  25
ENDBRANCH  18  24
ENDBRANCH  15  18
ENDBRANCH  13  14
BRANCH  13  28
ATOM     28  C   UNL     1      -3.219   5.151   1.161  1.00  0.00     0.327 C 
ATOM     29  O   UNL     1      -3.394   5.409   2.342  1.00  0.00    -0.250 OA
BRANCH  28  30
ATOM     30  O   UNL     1      -2.022   5.377   0.584  1.00  0.00    -0.480 OA
ATOM     31  H   UNL     1      -2.226   5.966  -0.172  1.00  0.00     0.296 HD
ENDBRANCH  28  30
ENDBRANCH  13  28
ENDBRANCH  11  13
ENDBRANCH   8  11
ENDBRANCH   6   7
BRANCH   6  32
ATOM     32  C   UNL     1      -0.686   3.740  -2.807  1.00  0.00     0.037 C 
BRANCH  32  33
ATOM     33  C   UNL     1       0.345   3.096  -3.744  1.00  0.00     0.026 C 
BRANCH  33  34
ATOM     34  C   UNL     1       1.716   3.769  -3.656  1.00  0.00     0.146 C 
BRANCH  34  35
ATOM     35  N   UNL     1       1.705   4.966  -4.486  1.00  0.00    -0.254 NA
ATOM     36  C   UNL     1       2.344   6.000  -4.080  1.00  0.00     0.185 C 
ATOM     37  N   UNL     1       2.345   7.107  -4.839  1.00  0.00    -0.370 N 
ATOM     38  N   UNL     1       3.055   6.165  -2.951  1.00  0.00    -0.370 N 
ATOM     39  H   UNL     1       1.838   7.059  -5.714  1.00  0.00     0.159 HD
ATOM     40  H   UNL     1       2.956   7.890  -4.680  1.00  0.00     0.159 HD
ATOM     41  H   UNL     1       3.396   7.072  -2.677  1.00  0.00     0.159 HD
ATOM     42  H   UNL     1       3.127   5.419  -2.277  1.00  0.00     0.159 HD
ENDBRANCH  34  35
ENDBRANCH  33  34
ENDBRANCH  32  33
ENDBRANCH   6  32
ENDBRANCH   4   6
ENDBRANCH   1   2
BRANCH   1  43
ATOM     43  C   UNL     1       2.373   2.632   0.671  1.00  0.00     0.102 C 
ATOM     44  C   UNL     1       3.050   1.883   1.831  1.00  0.00     0.020 C 
BRANCH  43  45
ATOM     45  C   UNL     1       3.329   3.507  -0.145  1.00  0.00     0.225 C 
ATOM     46  O   UNL     1       3.069   4.662  -0.471  1.00  0.00    -0.275 OA
ATOM     47  N   UNL     1       4.477   2.885  -0.580  1.00  0.00    -0.342 N 
ATOM     48  H   UNL     1       4.746   1.996  -0.181  1.00  0.00     0.164 HD
BRANCH  47  49
ATOM     49  C   UNL     1       5.500   3.609  -1.341  1.00  0.00     0.192 C 
BRANCH  49  50
ATOM     50  C   UNL     1       5.311   3.346  -2.837  1.00  0.00     0.047 C 
BRANCH  50  51
ATOM     51  C   UNL     1       4.535   2.049  -3.106  1.00  0.00     0.103 C 
BRANCH  51  52
ATOM     52  C   UNL     1       5.267   1.136  -4.088  1.00  0.00     0.226 C 
ATOM     53  O   UNL     1       6.432   1.387  -4.402  1.00  0.00    -0.275 OA
BRANCH  52  54
ATOM     54  N   UNL     1       4.567  -0.004  -4.524  1.00  0.00    -0.311 N 
ATOM     55  C   UNL     1       3.100  -0.008  -4.601  1.00  0.00     0.153 C 
BRANCH  54  56
ATOM     56  C   UNL     1       5.242  -1.176  -4.906  1.00  0.00     0.102 C 
ATOM     57  C   UNL     1       5.676  -2.124  -4.059  1.00  0.00     0.043 C 
BRANCH  56  58
ATOM     58  C   UNL     1       5.497  -1.483  -6.363  1.00  0.00     0.268 C 
ATOM     59  O   UNL     1       5.658  -0.617  -7.212  1.00  0.00    -0.268 OA
ATOM     60  N   UNL     1       5.595  -2.830  -6.622  1.00  0.00    -0.339 N 
ATOM     61  H   UNL     1       5.438  -3.484  -5.865  1.00  0.00     0.164 HD
BRANCH  60  62
ATOM     62  C   UNL     1       5.900  -3.346  -7.955  1.00  0.00     0.168 CG0
ATOM     63  C   UNL     1       6.071  -4.860  -7.929  1.00  0.00     0.041 C 
ATOM     64  G   UNL     1       7.173  -2.662  -8.496  1.00  0.00     0.000 G0
ENDBRANCH  60  62
ENDBRANCH  56  58
ENDBRANCH  54  56
ENDBRANCH  52  54
ENDBRANCH  51  52
ENDBRANCH  50  51
ENDBRANCH  49  50
BRANCH  49  65
ATOM     65  C   UNL     1       6.919   3.188  -0.925  1.00  0.00     0.326 C 
ATOM     66  O   UNL     1       7.495   3.542   0.093  1.00  0.00    -0.250 OA
BRANCH  65  67
ATOM     67  O   UNL     1       7.560   2.406  -1.821  1.00  0.00    -0.480 OA
ATOM     68  H   UNL     1       8.066   1.779  -1.261  1.00  0.00     0.296 HD
ENDBRANCH  65  67
ENDBRANCH  49  65
ENDBRANCH  47  49
ENDBRANCH  43  45
ENDBRANCH   1  43
BRANCH   1  69
ATOM     69  C   UNL     1       0.299   2.941   2.287  1.00  0.00    -0.001 C 
ATOM     70  C   UNL     1      -1.019   2.678   2.319  1.00  0.00     0.001 C 
BRANCH  70  71
ATOM     71  C   UNL     1      -1.789   2.181   3.460  1.00  0.00    -0.055 C 
ATOM     72  C   UNL     1      -2.444   3.087   4.217  1.00  0.00    -0.018 C 
ATOM     73  C   UNL     1      -1.803   0.695   3.705  1.00  0.00     0.044 C 
BRANCH  72  74
ATOM     74  C   UNL     1      -3.314   2.866   5.447  1.00  0.00     0.038 C 
ATOM     75  C   UNL     1      -4.640   3.595   5.200  1.00  0.00     0.015 C 
BRANCH  74  76
ATOM     76  C   UNL     1      -2.531   3.341   6.706  1.00  0.00     0.128 C 
BRANCH  76  77
ATOM     77  O   UNL     1      -3.397   3.335   7.853  1.00  0.00    -0.381 OA
ATOM     78  C   UNL     1      -3.747   2.031   8.298  1.00  0.00     0.195 C 
ENDBRANCH  76  77
BRANCH  76  79
ATOM     79  C   UNL     1      -1.207   2.575   6.950  1.00  0.00     0.068 C 
BRANCH  79  80
ATOM     80  C   UNL     1       0.054   3.127   6.330  1.00  0.00    -0.045 A 
ATOM     81  C   UNL     1       1.064   2.274   5.867  1.00  0.00     0.004 A 
ATOM     82  C   UNL     1       0.246   4.514   6.233  1.00  0.00     0.004 A 
ATOM     83  C   UNL     1       2.233   2.793   5.307  1.00  0.00     0.000 A 
ATOM     84  C   UNL     1       1.416   5.032   5.674  1.00  0.00     0.000 A 
ATOM     85  C   UNL     1       2.409   4.172   5.210  1.00  0.00     0.000 A 
ENDBRANCH  79  80
ENDBRANCH  76  79
ENDBRANCH  74  76
ENDBRANCH  72  74
ENDBRANCH  70  71
ENDBRANCH   1  69
TORSDOF 17
ENDMDL
MODEL 5
REMARK VINA RESULT:    -6.722      8.815     15.277
REMARK INTER + INTRA:         -26.882
REMARK INTER:                 -18.915
REMARK INTRA:                  -7.967
REMARK UNBOUND:                -6.799
REMARK SMILES C=C1C(=O)N[C@H](C)C(=O)N[C@@H](CC(C)C)C(=O)N[C@@H](C(=O)O)[C@H](C)C(=O)N[C@@H](CCCN=C(N)N)C(=O)N[C@@H](/C=C/C(C)=C/[C@H](C)[C@H](Cc2ccccc2)OC)[C@H](C)C(=O)N[C@@H](C(=O)O)CCC(=O)N1C
REMARK SMILES IDX 39 1 38 2 37 3 36 4 28 6 27 7 25 8 26 9 23 11 24 12 19 13
REMARK SMILES IDX 18 14 16 15 17 16 11 18 10 19 8 20 9 21 12 24 13 25 14 26
REMARK SMILES IDX 15 27 20 28 21 29 22 30 29 32 30 33 31 34 32 35 33 36 34 37
REMARK SMILES IDX 35 38 57 43 58 44 59 45 60 46 61 47 62 49 66 50 67 51 68 52
REMARK SMILES IDX 69 53 70 54 71 55 2 56 1 57 3 58 4 59 5 60 6 62 7 63 63 65
REMARK SMILES IDX 64 66 65 67 40 69 41 70 42 71 44 72 43 73 45 74 46 75 47 76
REMARK SMILES IDX 55 77 56 78 48 79 49 80 50 81 54 82 51 83 53 84 52 85
REMARK H PARENT 38 5 27 10 18 17 10 22 22 31 34 39 34 40 35 41 35 42 61 48
REMARK H PARENT 5 61 65 68
REMARK Flexibility Score:  369.900
ROOT
ATOM      1  C   UNL     1      -8.492  -7.282  -5.872  1.00  0.00     0.117 C 
ENDROOT
BRANCH   1   2
ATOM      2  N   UNL     1      -7.416  -6.388  -6.303  1.00  0.00    -0.347 N 
ATOM      3  O   UNL     1      -7.431  -6.933  -8.533  1.00  0.00    -0.273 OA
ATOM      4  C   UNL     1      -7.032  -6.219  -7.619  1.00  0.00     0.243 C 
ATOM      5  H   UNL     1      -6.945  -5.815  -5.619  1.00  0.00     0.164 HD
BRANCH   4   6
ATOM      6  C   UNL     1      -5.927  -5.150  -7.813  1.00  0.00     0.171 C 
BRANCH   6   7
ATOM      7  N   UNL     1      -6.514  -3.800  -7.833  1.00  0.00    -0.344 N 
ATOM      8  C   UNL     1      -6.809  -3.180  -9.027  1.00  0.00     0.226 C 
ATOM      9  O   UNL     1      -6.583  -3.698 -10.114  1.00  0.00    -0.275 OA
ATOM     10  H   UNL     1      -6.652  -3.313  -6.957  1.00  0.00     0.164 HD
BRANCH   8  11
ATOM     11  C   UNL     1      -7.460  -1.816  -8.879  1.00  0.00     0.109 C 
ATOM     12  C   UNL     1      -8.055  -1.666  -7.479  1.00  0.00     0.021 C 
BRANCH  11  13
ATOM     13  C   UNL     1      -6.458  -0.714  -9.279  1.00  0.00     0.204 C 
BRANCH  13  14
ATOM     14  N   UNL     1      -5.070  -1.182  -9.217  1.00  0.00    -0.340 N 
ATOM     15  C   UNL     1      -4.149  -0.679  -8.323  1.00  0.00     0.243 C 
ATOM     16  O   UNL     1      -4.445   0.157  -7.472  1.00  0.00    -0.273 OA
ATOM     17  H   UNL     1      -4.722  -1.759  -9.988  1.00  0.00     0.164 HD
BRANCH  15  18
ATOM     18  C   UNL     1      -2.704  -1.171  -8.581  1.00  0.00     0.171 C 
BRANCH  18  19
ATOM     19  N   UNL     1      -1.830  -0.012  -8.409  1.00  0.00    -0.343 N 
ATOM     20  C   UNL     1      -1.065   0.484  -9.447  1.00  0.00     0.242 CG0
ATOM     21  O   UNL     1      -0.982  -0.103 -10.523  1.00  0.00    -0.273 OA
ATOM     22  H   UNL     1      -1.776   0.440  -7.503  1.00  0.00     0.164 HD
ATOM     23  G   UNL     1      -0.268   1.758  -9.098  1.00  0.00     0.000 G0
ENDBRANCH  18  19
BRANCH  18  24
ATOM     24  C   UNL     1      -2.336  -2.301  -7.612  1.00  0.00     0.038 C 
BRANCH  24  25
ATOM     25  C   UNL     1      -1.982  -1.836  -6.183  1.00  0.00    -0.015 C 
ATOM     26  C   UNL     1      -0.593  -2.301  -5.743  1.00  0.00     0.007 C 
ATOM     27  C   UNL     1      -3.034  -2.351  -5.198  1.00  0.00     0.007 C 
ENDBRANCH  24  25
ENDBRANCH  18  24
ENDBRANCH  15  18
ENDBRANCH  13  14
BRANCH  13  28
ATOM     28  C   UNL     1      -6.690  -0.170 -10.692  1.00  0.00     0.327 C 
ATOM     29  O   UNL     1      -7.342   0.820 -10.986  1.00  0.00    -0.250 OA
BRANCH  28  30
ATOM     30  O   UNL     1      -6.190  -0.970 -11.655  1.00  0.00    -0.480 OA
ATOM     31  H   UNL     1      -6.265  -1.872 -11.283  1.00  0.00     0.296 HD
ENDBRANCH  28  30
ENDBRANCH  13  28
ENDBRANCH  11  13
ENDBRANCH   8  11
ENDBRANCH   6   7
BRANCH   6  32
ATOM     32  C   UNL     1      -4.896  -5.282  -6.687  1.00  0.00     0.037 C 
BRANCH  32  33
ATOM     33  C   UNL     1      -3.624  -6.009  -7.148  1.00  0.00     0.026 C 
BRANCH  33  34
ATOM     34  C   UNL     1      -3.357  -5.830  -8.643  1.00  0.00     0.146 C 
BRANCH  34  35
ATOM     35  N   UNL     1      -3.308  -7.143  -9.271  1.00  0.00    -0.254 NA
ATOM     36  C   UNL     1      -4.111  -7.392 -10.238  1.00  0.00     0.185 C 
ATOM     37  N   UNL     1      -4.070  -8.597 -10.827  1.00  0.00    -0.370 N 
ATOM     38  N   UNL     1      -5.042  -6.594 -10.790  1.00  0.00    -0.370 N 
ATOM     39  H   UNL     1      -3.385  -9.253 -10.474  1.00  0.00     0.159 HD
ATOM     40  H   UNL     1      -4.537  -8.809 -11.692  1.00  0.00     0.159 HD
ATOM     41  H   UNL     1      -5.708  -6.953 -11.454  1.00  0.00     0.159 HD
ATOM     42  H   UNL     1      -5.194  -5.663 -10.435  1.00  0.00     0.159 HD
ENDBRANCH  34  35
ENDBRANCH  33  34
ENDBRANCH  32  33
ENDBRANCH   6  32
ENDBRANCH   4   6
ENDBRANCH   1   2
BRANCH   1  43
ATOM     43  C   UNL     1      -9.789  -6.442  -5.691  1.00  0.00     0.102 C 
ATOM     44  C   UNL     1     -10.561  -6.219  -7.003  1.00  0.00     0.020 C 
BRANCH  43  45
ATOM     45  C   UNL     1      -9.508  -5.156  -4.909  1.00  0.00     0.225 C 
ATOM     46  O   UNL     1      -8.864  -4.218  -5.370  1.00  0.00    -0.275 OA
ATOM     47  N   UNL     1      -9.947  -5.148  -3.605  1.00  0.00    -0.342 N 
ATOM     48  H   UNL     1     -10.599  -5.853  -3.292  1.00  0.00     0.164 HD
BRANCH  47  49
ATOM     49  C   UNL     1      -9.780  -3.971  -2.747  1.00  0.00     0.192 C 
BRANCH  49  50
ATOM     50  C   UNL     1      -9.696  -4.409  -1.283  1.00  0.00     0.047 C 
BRANCH  50  51
ATOM     51  C   UNL     1      -9.506  -5.925  -1.139  1.00  0.00     0.103 C 
BRANCH  51  52
ATOM     52  C   UNL     1      -9.884  -6.420   0.255  1.00  0.00     0.226 C 
ATOM     53  O   UNL     1     -11.030  -6.822   0.470  1.00  0.00    -0.275 OA
BRANCH  52  54
ATOM     54  N   UNL     1      -8.851  -6.457   1.210  1.00  0.00    -0.311 N 
ATOM     55  C   UNL     1      -7.447  -6.594   0.799  1.00  0.00     0.153 C 
BRANCH  54  56
ATOM     56  C   UNL     1      -9.120  -6.359   2.585  1.00  0.00     0.102 C 
ATOM     57  C   UNL     1      -9.644  -5.281   3.191  1.00  0.00     0.043 C 
BRANCH  56  58
ATOM     58  C   UNL     1      -8.870  -7.528   3.509  1.00  0.00     0.268 C 
ATOM     59  O   UNL     1      -7.954  -7.557   4.319  1.00  0.00    -0.268 OA
ATOM     60  N   UNL     1      -9.813  -8.521   3.391  1.00  0.00    -0.339 N 
ATOM     61  H   UNL     1     -10.536  -8.426   2.688  1.00  0.00     0.164 HD
BRANCH  60  62
ATOM     62  C   UNL     1      -9.797  -9.715   4.235  1.00  0.00     0.168 CG0
ATOM     63  C   UNL     1     -10.679 -10.811   3.650  1.00  0.00     0.041 C 
ATOM     64  G   UNL     1     -10.258  -9.346   5.661  1.00  0.00     0.000 G0
ENDBRANCH  60  62
ENDBRANCH  56  58
ENDBRANCH  54  56
ENDBRANCH  52  54
ENDBRANCH  51  52
ENDBRANCH  50  51
ENDBRANCH  49  50
BRANCH  49  65
ATOM     65  C   UNL     1     -10.940  -2.977  -2.916  1.00  0.00     0.326 C 
ATOM     66  O   UNL     1     -12.087  -3.269  -3.221  1.00  0.00    -0.250 OA
BRANCH  65  67
ATOM     67  O   UNL     1     -10.599  -1.680  -2.756  1.00  0.00    -0.480 OA
ATOM     68  H   UNL     1     -10.891  -1.258  -3.593  1.00  0.00     0.296 HD
ENDBRANCH  65  67
ENDBRANCH  49  65
ENDBRANCH  47  49
ENDBRANCH  43  45
ENDBRANCH   1  43
BRANCH   1  69
ATOM     69  C   UNL     1      -7.949  -8.057  -4.685  1.00  0.00    -0.001 C 
ATOM     70  C   UNL     1      -6.769  -8.697  -4.598  1.00  0.00     0.001 C 
BRANCH  70  71
ATOM     71  C   UNL     1      -6.247  -9.425  -3.440  1.00  0.00    -0.055 C 
ATOM     72  C   UNL     1      -7.138  -9.910  -2.550  1.00  0.00    -0.018 C 
ATOM     73  C   UNL     1      -4.754  -9.587  -3.327  1.00  0.00     0.044 C 
BRANCH  72  74
ATOM     74  C   UNL     1      -6.891 -10.698  -1.271  1.00  0.00     0.038 C 
ATOM     75  C   UNL     1      -7.215 -12.166  -1.574  1.00  0.00     0.015 C 
BRANCH  74  76
ATOM     76  C   UNL     1      -7.732 -10.067  -0.123  1.00  0.00     0.128 C 
BRANCH  76  77
ATOM     77  O   UNL     1      -9.016  -9.657  -0.624  1.00  0.00    -0.381 OA
ATOM     78  C   UNL     1     -10.111 -10.187   0.111  1.00  0.00     0.195 C 
ENDBRANCH  76  77
BRANCH  76  79
ATOM     79  C   UNL     1      -7.838 -10.956   1.142  1.00  0.00     0.068 C 
BRANCH  79  80
ATOM     80  C   UNL     1      -6.589 -11.170   1.962  1.00  0.00    -0.045 A 
ATOM     81  C   UNL     1      -5.918 -12.400   1.948  1.00  0.00     0.004 A 
ATOM     82  C   UNL     1      -6.095 -10.141   2.779  1.00  0.00     0.004 A 
ATOM     83  C   UNL     1      -4.771 -12.594   2.721  1.00  0.00     0.000 A 
ATOM     84  C   UNL     1      -4.948 -10.337   3.552  1.00  0.00     0.000 A 
ATOM     85  C   UNL     1      -4.286 -11.562   3.522  1.00  0.00     0.000 A 
ENDBRANCH  79  80
ENDBRANCH  76  79
ENDBRANCH  74  76
ENDBRANCH  72  74
ENDBRANCH  70  71
ENDBRANCH   1  69
TORSDOF 17
ENDMDL
MODEL 6
REMARK VINA RESULT:    -6.660     12.764     18.967
REMARK INTER + INTRA:         -26.696
REMARK INTER:                 -19.036
REMARK INTRA:                  -7.660
REMARK UNBOUND:                -6.799
REMARK SMILES C=C1C(=O)N[C@H](C)C(=O)N[C@@H](CC(C)C)C(=O)N[C@@H](C(=O)O)[C@H](C)C(=O)N[C@@H](CCCN=C(N)N)C(=O)N[C@@H](/C=C/C(C)=C/[C@H](C)[C@H](Cc2ccccc2)OC)[C@H](C)C(=O)N[C@@H](C(=O)O)CCC(=O)N1C
REMARK SMILES IDX 39 1 38 2 37 3 36 4 28 6 27 7 25 8 26 9 23 11 24 12 19 13
REMARK SMILES IDX 18 14 16 15 17 16 11 18 10 19 8 20 9 21 12 24 13 25 14 26
REMARK SMILES IDX 15 27 20 28 21 29 22 30 29 32 30 33 31 34 32 35 33 36 34 37
REMARK SMILES IDX 35 38 57 43 58 44 59 45 60 46 61 47 62 49 66 50 67 51 68 52
REMARK SMILES IDX 69 53 70 54 71 55 2 56 1 57 3 58 4 59 5 60 6 62 7 63 63 65
REMARK SMILES IDX 64 66 65 67 40 69 41 70 42 71 44 72 43 73 45 74 46 75 47 76
REMARK SMILES IDX 55 77 56 78 48 79 49 80 50 81 54 82 51 83 53 84 52 85
REMARK H PARENT 38 5 27 10 18 17 10 22 22 31 34 39 34 40 35 41 35 42 61 48
REMARK H PARENT 5 61 65 68
REMARK Flexibility Score:  369.900
ROOT
ATOM      1  C   UNL     1       1.689   2.332   1.594  1.00  0.00     0.117 C 
ENDROOT
BRANCH   1   2
ATOM      2  N   UNL     1       0.499   2.870   0.934  1.00  0.00    -0.347 N 
ATOM      3  O   UNL     1      -0.319   0.892   0.103  1.00  0.00    -0.273 OA
ATOM      4  C   UNL     1      -0.461   2.091   0.317  1.00  0.00     0.243 C 
ATOM      5  H   UNL     1       0.324   3.863   0.962  1.00  0.00     0.164 HD
BRANCH   4   6
ATOM      6  C   UNL     1      -1.665   2.902  -0.228  1.00  0.00     0.171 C 
BRANCH   6   7
ATOM      7  N   UNL     1      -2.273   2.211  -1.376  1.00  0.00    -0.344 N 
ATOM      8  C   UNL     1      -2.295   2.801  -2.621  1.00  0.00     0.226 C 
ATOM      9  O   UNL     1      -1.839   3.919  -2.829  1.00  0.00    -0.275 OA
ATOM     10  H   UNL     1      -2.720   1.314  -1.228  1.00  0.00     0.164 HD
BRANCH   8  11
ATOM     11  C   UNL     1      -2.908   1.939  -3.711  1.00  0.00     0.109 C 
ATOM     12  C   UNL     1      -4.043   2.694  -4.402  1.00  0.00     0.021 C 
BRANCH  11  13
ATOM     13  C   UNL     1      -1.801   1.427  -4.654  1.00  0.00     0.204 C 
BRANCH  13  14
ATOM     14  N   UNL     1      -0.855   2.485  -5.020  1.00  0.00    -0.340 N 
ATOM     15  C   UNL     1      -0.035   2.407  -6.125  1.00  0.00     0.243 C 
ATOM     16  O   UNL     1      -0.083   1.468  -6.917  1.00  0.00    -0.273 OA
ATOM     17  H   UNL     1      -0.658   3.214  -4.329  1.00  0.00     0.164 HD
BRANCH  15  18
ATOM     18  C   UNL     1       1.022   3.537  -6.193  1.00  0.00     0.171 C 
BRANCH  18  19
ATOM     19  N   UNL     1       1.602   3.487  -7.534  1.00  0.00    -0.343 N 
ATOM     20  C   UNL     1       2.901   3.070  -7.751  1.00  0.00     0.242 CG0
ATOM     21  O   UNL     1       3.670   2.849  -6.818  1.00  0.00    -0.273 OA
ATOM     22  H   UNL     1       1.041   3.772  -8.329  1.00  0.00     0.164 HD
ATOM     23  G   UNL     1       3.310   3.009  -9.237  1.00  0.00     0.000 G0
ENDBRANCH  18  19
BRANCH  18  24
ATOM     24  C   UNL     1       0.376   4.899  -5.910  1.00  0.00     0.038 C 
BRANCH  24  25
ATOM     25  C   UNL     1       1.298   5.914  -5.200  1.00  0.00    -0.015 C 
ATOM     26  C   UNL     1       1.950   6.893  -6.176  1.00  0.00     0.007 C 
ATOM     27  C   UNL     1       2.381   5.166  -4.419  1.00  0.00     0.007 C 
ENDBRANCH  24  25
ENDBRANCH  18  24
ENDBRANCH  15  18
ENDBRANCH  13  14
BRANCH  13  28
ATOM     28  C   UNL     1      -0.986   0.275  -4.058  1.00  0.00     0.327 C 
ATOM     29  O   UNL     1      -0.418   0.275  -2.977  1.00  0.00    -0.250 OA
BRANCH  28  30
ATOM     30  O   UNL     1      -0.835  -0.761  -4.908  1.00  0.00    -0.480 OA
ATOM     31  H   UNL     1      -0.734  -1.540  -4.323  1.00  0.00     0.296 HD
ENDBRANCH  28  30
ENDBRANCH  13  28
ENDBRANCH  11  13
ENDBRANCH   8  11
ENDBRANCH   6   7
BRANCH   6  32
ATOM     32  C   UNL     1      -2.688   3.102   0.896  1.00  0.00     0.037 C 
BRANCH  32  33
ATOM     33  C   UNL     1      -3.996   2.344   0.630  1.00  0.00     0.026 C 
BRANCH  33  34
ATOM     34  C   UNL     1      -5.107   3.258   0.111  1.00  0.00     0.146 C 
BRANCH  34  35
ATOM     35  N   UNL     1      -4.503   4.452  -0.463  1.00  0.00    -0.254 NA
ATOM     36  C   UNL     1      -5.128   5.565  -0.364  1.00  0.00     0.185 C 
ATOM     37  N   UNL     1      -4.578   6.673  -0.886  1.00  0.00    -0.370 N 
ATOM     38  N   UNL     1      -6.315   5.819   0.214  1.00  0.00    -0.370 N 
ATOM     39  H   UNL     1      -3.675   6.565  -1.331  1.00  0.00     0.159 HD
ATOM     40  H   UNL     1      -4.915   7.601  -0.700  1.00  0.00     0.159 HD
ATOM     41  H   UNL     1      -6.768   6.711   0.104  1.00  0.00     0.159 HD
ATOM     42  H   UNL     1      -6.850   5.074   0.633  1.00  0.00     0.159 HD
ENDBRANCH  34  35
ENDBRANCH  33  34
ENDBRANCH  32  33
ENDBRANCH   6  32
ENDBRANCH   4   6
ENDBRANCH   1   2
BRANCH   1  43
ATOM     43  C   UNL     1       1.759   2.908   3.037  1.00  0.00     0.102 C 
ATOM     44  C   UNL     1       3.040   2.515   3.792  1.00  0.00     0.020 C 
BRANCH  43  45
ATOM     45  C   UNL     1       0.468   2.616   3.809  1.00  0.00     0.225 C 
ATOM     46  O   UNL     1      -0.167   1.572   3.683  1.00  0.00    -0.275 OA
ATOM     47  N   UNL     1       0.002   3.645   4.595  1.00  0.00    -0.342 N 
ATOM     48  H   UNL     1       0.606   4.427   4.805  1.00  0.00     0.164 HD
BRANCH  47  49
ATOM     49  C   UNL     1      -1.202   3.495   5.417  1.00  0.00     0.192 C 
BRANCH  49  50
ATOM     50  C   UNL     1      -2.421   4.005   4.643  1.00  0.00     0.047 C 
BRANCH  50  51
ATOM     51  C   UNL     1      -3.421   2.885   4.329  1.00  0.00     0.103 C 
BRANCH  51  52
ATOM     52  C   UNL     1      -4.517   2.781   5.389  1.00  0.00     0.226 C 
ATOM     53  O   UNL     1      -4.230   2.406   6.527  1.00  0.00    -0.275 OA
BRANCH  52  54
ATOM     54  N   UNL     1      -5.803   3.203   5.004  1.00  0.00    -0.311 N 
ATOM     55  C   UNL     1      -6.141   3.403   3.589  1.00  0.00     0.153 C 
BRANCH  54  56
ATOM     56  C   UNL     1      -6.810   3.441   5.954  1.00  0.00     0.102 C 
ATOM     57  C   UNL     1      -7.929   2.711   6.088  1.00  0.00     0.043 C 
BRANCH  56  58
ATOM     58  C   UNL     1      -6.675   4.558   6.963  1.00  0.00     0.268 C 
ATOM     59  O   UNL     1      -5.943   5.525   6.797  1.00  0.00    -0.268 OA
ATOM     60  N   UNL     1      -7.503   4.407   8.049  1.00  0.00    -0.339 N 
ATOM     61  H   UNL     1      -8.071   3.571   8.117  1.00  0.00     0.164 HD
BRANCH  60  62
ATOM     62  C   UNL     1      -7.578   5.405   9.116  1.00  0.00     0.168 CG0
ATOM     63  C   UNL     1      -7.441   4.752  10.486  1.00  0.00     0.041 C 
ATOM     64  G   UNL     1      -8.910   6.177   9.009  1.00  0.00     0.000 G0
ENDBRANCH  60  62
ENDBRANCH  56  58
ENDBRANCH  54  56
ENDBRANCH  52  54
ENDBRANCH  51  52
ENDBRANCH  50  51
ENDBRANCH  49  50
BRANCH  49  65
ATOM     65  C   UNL     1      -1.083   4.265   6.742  1.00  0.00     0.326 C 
ATOM     66  O   UNL     1      -0.247   5.120   6.994  1.00  0.00    -0.250 OA
BRANCH  65  67
ATOM     67  O   UNL     1      -1.964   3.888   7.695  1.00  0.00    -0.480 OA
ATOM     68  H   UNL     1      -2.837   4.103   7.301  1.00  0.00     0.296 HD
ENDBRANCH  65  67
ENDBRANCH  49  65
ENDBRANCH  47  49
ENDBRANCH  43  45
ENDBRANCH   1  43
BRANCH   1  69
ATOM     69  C   UNL     1       2.849   2.583   0.647  1.00  0.00    -0.001 C 
ATOM     70  C   UNL     1       3.502   3.741   0.445  1.00  0.00     0.001 C 
BRANCH  70  71
ATOM     71  C   UNL     1       4.634   3.966  -0.456  1.00  0.00    -0.055 C 
ATOM     72  C   UNL     1       5.709   3.159  -0.328  1.00  0.00    -0.018 C 
ATOM     73  C   UNL     1       4.517   5.077  -1.466  1.00  0.00     0.044 C 
BRANCH  72  74
ATOM     74  C   UNL     1       7.011   3.157  -1.116  1.00  0.00     0.038 C 
ATOM     75  C   UNL     1       7.886   4.280  -0.548  1.00  0.00     0.015 C 
BRANCH  74  76
ATOM     76  C   UNL     1       6.679   3.291  -2.632  1.00  0.00     0.128 C 
BRANCH  76  77
ATOM     77  O   UNL     1       7.554   4.254  -3.243  1.00  0.00    -0.381 OA
ATOM     78  C   UNL     1       8.216   3.769  -4.403  1.00  0.00     0.195 C 
ENDBRANCH  76  77
BRANCH  76  79
ATOM     79  C   UNL     1       6.649   1.941  -3.392  1.00  0.00     0.068 C 
BRANCH  79  80
ATOM     80  C   UNL     1       5.303   1.368  -3.764  1.00  0.00    -0.045 A 
ATOM     81  C   UNL     1       4.116   2.001  -3.373  1.00  0.00     0.004 A 
ATOM     82  C   UNL     1       5.220   0.170  -4.490  1.00  0.00     0.004 A 
ATOM     83  C   UNL     1       2.874   1.458  -3.709  1.00  0.00     0.000 A 
ATOM     84  C   UNL     1       3.978  -0.372  -4.826  1.00  0.00     0.000 A 
ATOM     85  C   UNL     1       2.806   0.272  -4.437  1.00  0.00     0.000 A 
ENDBRANCH  79  80
ENDBRANCH  76  79
ENDBRANCH  74  76
ENDBRANCH  72  74
ENDBRANCH  70  71
ENDBRANCH   1  69
TORSDOF 17
ENDMDL
MODEL 7
REMARK VINA RESULT:    -6.646      9.616     16.264
REMARK INTER + INTRA:         -26.656
REMARK INTER:                 -18.813
REMARK INTRA:                  -7.843
REMARK UNBOUND:                -6.799
REMARK SMILES C=C1C(=O)N[C@H](C)C(=O)N[C@@H](CC(C)C)C(=O)N[C@@H](C(=O)O)[C@H](C)C(=O)N[C@@H](CCCN=C(N)N)C(=O)N[C@@H](/C=C/C(C)=C/[C@H](C)[C@H](Cc2ccccc2)OC)[C@H](C)C(=O)N[C@@H](C(=O)O)CCC(=O)N1C
REMARK SMILES IDX 39 1 38 2 37 3 36 4 28 6 27 7 25 8 26 9 23 11 24 12 19 13
REMARK SMILES IDX 18 14 16 15 17 16 11 18 10 19 8 20 9 21 12 24 13 25 14 26
REMARK SMILES IDX 15 27 20 28 21 29 22 30 29 32 30 33 31 34 32 35 33 36 34 37
REMARK SMILES IDX 35 38 57 43 58 44 59 45 60 46 61 47 62 49 66 50 67 51 68 52
REMARK SMILES IDX 69 53 70 54 71 55 2 56 1 57 3 58 4 59 5 60 6 62 7 63 63 65
REMARK SMILES IDX 64 66 65 67 40 69 41 70 42 71 44 72 43 73 45 74 46 75 47 76
REMARK SMILES IDX 55 77 56 78 48 79 49 80 50 81 54 82 51 83 53 84 52 85
REMARK H PARENT 38 5 27 10 18 17 10 22 22 31 34 39 34 40 35 41 35 42 61 48
REMARK H PARENT 5 61 65 68
REMARK Flexibility Score:  369.900
ROOT
ATOM      1  C   UNL     1      -7.716  -9.736  -1.050  1.00  0.00     0.117 C 
ENDROOT
BRANCH   1   2
ATOM      2  N   UNL     1      -8.738  -8.715  -0.820  1.00  0.00    -0.347 N 
ATOM      3  O   UNL     1      -7.343  -6.896  -0.706  1.00  0.00    -0.273 OA
ATOM      4  C   UNL     1      -8.477  -7.360  -0.757  1.00  0.00     0.243 C 
ATOM      5  H   UNL     1      -9.706  -8.991  -0.749  1.00  0.00     0.164 HD
BRANCH   4   6
ATOM      6  C   UNL     1      -9.747  -6.487  -0.591  1.00  0.00     0.171 C 
BRANCH   6   7
ATOM      7  N   UNL     1      -9.550  -5.489   0.472  1.00  0.00    -0.344 N 
ATOM      8  C   UNL     1     -10.377  -5.464   1.574  1.00  0.00     0.226 C 
ATOM      9  O   UNL     1     -11.314  -6.241   1.715  1.00  0.00    -0.275 OA
ATOM     10  H   UNL     1      -8.829  -4.788   0.359  1.00  0.00     0.164 HD
BRANCH   8  11
ATOM     11  C   UNL     1     -10.011  -4.412   2.606  1.00  0.00     0.109 C 
ATOM     12  C   UNL     1     -11.220  -3.525   2.904  1.00  0.00     0.021 C 
BRANCH  11  13
ATOM     13  C   UNL     1      -9.383  -5.089   3.841  1.00  0.00     0.204 C 
BRANCH  13  14
ATOM     14  N   UNL     1     -10.376  -5.820   4.634  1.00  0.00    -0.340 N 
ATOM     15  C   UNL     1     -10.279  -5.971   6.000  1.00  0.00     0.243 C 
ATOM     16  O   UNL     1      -9.382  -5.449   6.660  1.00  0.00    -0.273 OA
ATOM     17  H   UNL     1     -11.056  -6.400   4.135  1.00  0.00     0.164 HD
BRANCH  15  18
ATOM     18  C   UNL     1     -11.323  -6.951   6.590  1.00  0.00     0.171 C 
BRANCH  18  19
ATOM     19  N   UNL     1     -11.460  -6.615   8.006  1.00  0.00    -0.343 N 
ATOM     20  C   UNL     1     -11.294  -7.561   8.999  1.00  0.00     0.242 CG0
ATOM     21  O   UNL     1     -11.155  -8.753   8.735  1.00  0.00    -0.273 OA
ATOM     22  H   UNL     1     -11.689  -5.664   8.271  1.00  0.00     0.164 HD
ATOM     23  G   UNL     1     -11.399  -7.003  10.433  1.00  0.00     0.000 G0
ENDBRANCH  18  19
BRANCH  18  24
ATOM     24  C   UNL     1     -12.661  -6.828   5.851  1.00  0.00     0.038 C 
BRANCH  24  25
ATOM     25  C   UNL     1     -13.106  -8.104   5.105  1.00  0.00    -0.015 C 
ATOM     26  C   UNL     1     -11.936  -9.040   4.798  1.00  0.00     0.007 C 
ATOM     27  C   UNL     1     -13.814  -7.719   3.804  1.00  0.00     0.007 C 
ENDBRANCH  24  25
ENDBRANCH  18  24
ENDBRANCH  15  18
ENDBRANCH  13  14
BRANCH  13  28
ATOM     28  C   UNL     1      -8.268  -6.078   3.486  1.00  0.00     0.327 C 
ATOM     29  O   UNL     1      -7.071  -5.839   3.465  1.00  0.00    -0.250 OA
BRANCH  28  30
ATOM     30  O   UNL     1      -8.735  -7.271   3.065  1.00  0.00    -0.480 OA
ATOM     31  H   UNL     1      -7.927  -7.802   2.905  1.00  0.00     0.296 HD
ENDBRANCH  28  30
ENDBRANCH  13  28
ENDBRANCH  11  13
ENDBRANCH   8  11
ENDBRANCH   6   7
BRANCH   6  32
ATOM     32  C   UNL     1     -10.069  -5.808  -1.927  1.00  0.00     0.037 C 
BRANCH  32  33
ATOM     33  C   UNL     1     -10.342  -4.307  -1.763  1.00  0.00     0.026 C 
BRANCH  33  34
ATOM     34  C   UNL     1      -9.447  -3.448  -2.656  1.00  0.00     0.146 C 
BRANCH  34  35
ATOM     35  N   UNL     1     -10.237  -2.950  -3.774  1.00  0.00    -0.254 NA
ATOM     36  C   UNL     1     -10.820  -1.815  -3.657  1.00  0.00     0.185 C 
ATOM     37  N   UNL     1     -11.546  -1.344  -4.683  1.00  0.00    -0.370 N 
ATOM     38  N   UNL     1     -10.820  -0.969  -2.612  1.00  0.00    -0.370 N 
ATOM     39  H   UNL     1     -11.586  -1.921  -5.513  1.00  0.00     0.159 HD
ATOM     40  H   UNL     1     -11.885  -0.399  -4.737  1.00  0.00     0.159 HD
ATOM     41  H   UNL     1     -11.431  -0.170  -2.589  1.00  0.00     0.159 HD
ATOM     42  H   UNL     1     -10.327  -1.202  -1.764  1.00  0.00     0.159 HD
ENDBRANCH  34  35
ENDBRANCH  33  34
ENDBRANCH  32  33
ENDBRANCH   6  32
ENDBRANCH   4   6
ENDBRANCH   1   2
BRANCH   1  43
ATOM     43  C   UNL     1      -8.075 -10.513  -2.350  1.00  0.00     0.102 C 
ATOM     44  C   UNL     1      -7.567 -11.965  -2.355  1.00  0.00     0.020 C 
BRANCH  43  45
ATOM     45  C   UNL     1      -7.683  -9.712  -3.595  1.00  0.00     0.225 C 
ATOM     46  O   UNL     1      -6.525  -9.608  -3.988  1.00  0.00    -0.275 OA
ATOM     47  N   UNL     1      -8.709  -9.028  -4.206  1.00  0.00    -0.342 N 
ATOM     48  H   UNL     1      -9.666  -9.243  -3.967  1.00  0.00     0.164 HD
BRANCH  47  49
ATOM     49  C   UNL     1      -8.488  -8.249  -5.428  1.00  0.00     0.192 C 
BRANCH  49  50
ATOM     50  C   UNL     1      -8.850  -6.783  -5.176  1.00  0.00     0.047 C 
BRANCH  50  51
ATOM     51  C   UNL     1      -7.680  -5.990  -4.578  1.00  0.00     0.103 C 
BRANCH  51  52
ATOM     52  C   UNL     1      -6.709  -5.502  -5.652  1.00  0.00     0.226 C 
ATOM     53  O   UNL     1      -5.518  -5.809  -5.583  1.00  0.00    -0.275 OA
BRANCH  52  54
ATOM     54  N   UNL     1      -7.269  -4.776  -6.720  1.00  0.00    -0.311 N 
ATOM     55  C   UNL     1      -7.807  -3.424  -6.515  1.00  0.00     0.153 C 
BRANCH  54  56
ATOM     56  C   UNL     1      -7.330  -5.311  -8.017  1.00  0.00     0.102 C 
ATOM     57  C   UNL     1      -8.428  -5.845  -8.577  1.00  0.00     0.043 C 
BRANCH  56  58
ATOM     58  C   UNL     1      -6.124  -5.281  -8.925  1.00  0.00     0.268 C 
ATOM     59  O   UNL     1      -5.386  -4.310  -9.027  1.00  0.00    -0.268 OA
ATOM     60  N   UNL     1      -5.905  -6.474  -9.572  1.00  0.00    -0.339 N 
ATOM     61  H   UNL     1      -6.569  -7.227  -9.443  1.00  0.00     0.164 HD
BRANCH  60  62
ATOM     62  C   UNL     1      -4.755  -6.683 -10.452  1.00  0.00     0.168 CG0
ATOM     63  C   UNL     1      -3.606  -7.344  -9.702  1.00  0.00     0.041 C 
ATOM     64  G   UNL     1      -4.311  -5.333 -11.052  1.00  0.00     0.000 G0
ENDBRANCH  60  62
ENDBRANCH  56  58
ENDBRANCH  54  56
ENDBRANCH  52  54
ENDBRANCH  51  52
ENDBRANCH  50  51
ENDBRANCH  49  50
BRANCH  49  65
ATOM     65  C   UNL     1      -9.325  -8.785  -6.601  1.00  0.00     0.326 C 
ATOM     66  O   UNL     1      -8.945  -9.595  -7.433  1.00  0.00    -0.250 OA
BRANCH  65  67
ATOM     67  O   UNL     1     -10.558  -8.242  -6.708  1.00  0.00    -0.480 OA
ATOM     68  H   UNL     1     -10.548  -7.513  -6.050  1.00  0.00     0.296 HD
ENDBRANCH  65  67
ENDBRANCH  49  65
ENDBRANCH  47  49
ENDBRANCH  43  45
ENDBRANCH   1  43
BRANCH   1  69
ATOM     69  C   UNL     1      -7.585 -10.506   0.252  1.00  0.00    -0.001 C 
ATOM     70  C   UNL     1      -8.561 -11.130   0.934  1.00  0.00     0.001 C 
BRANCH  70  71
ATOM     71  C   UNL     1      -8.419 -11.888   2.178  1.00  0.00    -0.055 C 
ATOM     72  C   UNL     1      -9.279 -11.614   3.182  1.00  0.00    -0.018 C 
ATOM     73  C   UNL     1      -7.329 -12.925   2.248  1.00  0.00     0.044 C 
BRANCH  72  74
ATOM     74  C   UNL     1      -9.371 -12.236   4.568  1.00  0.00     0.038 C 
ATOM     75  C   UNL     1     -10.831 -12.649   4.783  1.00  0.00     0.015 C 
BRANCH  74  76
ATOM     76  C   UNL     1      -8.820 -11.218   5.611  1.00  0.00     0.128 C 
BRANCH  76  77
ATOM     77  O   UNL     1      -9.654 -11.214   6.781  1.00  0.00    -0.381 OA
ATOM     78  C   UNL     1      -9.060 -11.844   7.908  1.00  0.00     0.195 C 
ENDBRANCH  76  77
BRANCH  76  79
ATOM     79  C   UNL     1      -7.319 -11.409   5.945  1.00  0.00     0.068 C 
BRANCH  79  80
ATOM     80  C   UNL     1      -6.303 -10.787   5.018  1.00  0.00    -0.045 A 
ATOM     81  C   UNL     1      -5.010 -11.314   4.905  1.00  0.00     0.004 A 
ATOM     82  C   UNL     1      -6.633  -9.645   4.272  1.00  0.00     0.004 A 
ATOM     83  C   UNL     1      -4.072 -10.724   4.055  1.00  0.00     0.000 A 
ATOM     84  C   UNL     1      -5.694  -9.055   3.424  1.00  0.00     0.000 A 
ATOM     85  C   UNL     1      -4.415  -9.595   3.314  1.00  0.00     0.000 A 
ENDBRANCH  79  80
ENDBRANCH  76  79
ENDBRANCH  74  76
ENDBRANCH  72  74
ENDBRANCH  70  71
ENDBRANCH   1  69
TORSDOF 17
ENDMDL
MODEL 8
REMARK VINA RESULT:    -6.598     11.674     17.934
REMARK INTER + INTRA:         -26.512
REMARK INTER:                 -18.975
REMARK INTRA:                  -7.538
REMARK UNBOUND:                -6.799
REMARK SMILES C=C1C(=O)N[C@H](C)C(=O)N[C@@H](CC(C)C)C(=O)N[C@@H](C(=O)O)[C@H](C)C(=O)N[C@@H](CCCN=C(N)N)C(=O)N[C@@H](/C=C/C(C)=C/[C@H](C)[C@H](Cc2ccccc2)OC)[C@H](C)C(=O)N[C@@H](C(=O)O)CCC(=O)N1C
REMARK SMILES IDX 39 1 38 2 37 3 36 4 28 6 27 7 25 8 26 9 23 11 24 12 19 13
REMARK SMILES IDX 18 14 16 15 17 16 11 18 10 19 8 20 9 21 12 24 13 25 14 26
REMARK SMILES IDX 15 27 20 28 21 29 22 30 29 32 30 33 31 34 32 35 33 36 34 37
REMARK SMILES IDX 35 38 57 43 58 44 59 45 60 46 61 47 62 49 66 50 67 51 68 52
REMARK SMILES IDX 69 53 70 54 71 55 2 56 1 57 3 58 4 59 5 60 6 62 7 63 63 65
REMARK SMILES IDX 64 66 65 67 40 69 41 70 42 71 44 72 43 73 45 74 46 75 47 76
REMARK SMILES IDX 55 77 56 78 48 79 49 80 50 81 54 82 51 83 53 84 52 85
REMARK H PARENT 38 5 27 10 18 17 10 22 22 31 34 39 34 40 35 41 35 42 61 48
REMARK H PARENT 5 61 65 68
REMARK Flexibility Score:  369.900
ROOT
ATOM      1  C   UNL     1      -3.894   5.098   1.519  1.00  0.00     0.117 C 
ENDROOT
BRANCH   1   2
ATOM      2  N   UNL     1      -4.959   4.206   1.979  1.00  0.00    -0.347 N 
ATOM      3  O   UNL     1      -5.464   5.304   3.931  1.00  0.00    -0.273 OA
ATOM      4  C   UNL     1      -5.723   4.433   3.107  1.00  0.00     0.243 C 
ATOM      5  H   UNL     1      -5.198   3.397   1.428  1.00  0.00     0.164 HD
BRANCH   4   6
ATOM      6  C   UNL     1      -6.841   3.382   3.324  1.00  0.00     0.171 C 
BRANCH   6   7
ATOM      7  N   UNL     1      -7.790   3.401   2.199  1.00  0.00    -0.344 N 
ATOM      8  C   UNL     1      -9.148   3.460   2.426  1.00  0.00     0.226 C 
ATOM      9  O   UNL     1      -9.629   3.477   3.553  1.00  0.00    -0.275 OA
ATOM     10  H   UNL     1      -7.433   3.320   1.255  1.00  0.00     0.164 HD
BRANCH   8  11
ATOM     11  C   UNL     1      -9.990   3.528   1.164  1.00  0.00     0.109 C 
ATOM     12  C   UNL     1     -10.913   2.312   1.082  1.00  0.00     0.021 C 
BRANCH  11  13
ATOM     13  C   UNL     1     -10.706   4.891   1.088  1.00  0.00     0.204 C 
BRANCH  13  14
ATOM     14  N   UNL     1     -11.714   5.045   2.141  1.00  0.00    -0.340 N 
ATOM     15  C   UNL     1     -13.068   4.944   1.903  1.00  0.00     0.243 C 
ATOM     16  O   UNL     1     -13.524   4.656   0.798  1.00  0.00    -0.273 OA
ATOM     17  H   UNL     1     -11.414   5.431   3.040  1.00  0.00     0.164 HD
BRANCH  15  18
ATOM     18  C   UNL     1     -13.941   5.348   3.116  1.00  0.00     0.171 C 
BRANCH  18  19
ATOM     19  N   UNL     1     -15.237   4.697   2.933  1.00  0.00    -0.343 N 
ATOM     20  C   UNL     1     -16.423   5.404   2.995  1.00  0.00     0.242 CG0
ATOM     21  O   UNL     1     -16.451   6.584   3.338  1.00  0.00    -0.273 OA
ATOM     22  H   UNL     1     -15.273   3.699   2.762  1.00  0.00     0.164 HD
ATOM     23  G   UNL     1     -17.682   4.563   2.700  1.00  0.00     0.000 G0
ENDBRANCH  18  19
BRANCH  18  24
ATOM     24  C   UNL     1     -13.277   4.917   4.429  1.00  0.00     0.038 C 
BRANCH  24  25
ATOM     25  C   UNL     1     -12.907   6.079   5.375  1.00  0.00    -0.015 C 
ATOM     26  C   UNL     1     -13.284   7.445   4.800  1.00  0.00     0.007 C 
ATOM     27  C   UNL     1     -11.406   6.042   5.673  1.00  0.00     0.007 C 
ENDBRANCH  24  25
ENDBRANCH  18  24
ENDBRANCH  15  18
ENDBRANCH  13  14
BRANCH  13  28
ATOM     28  C   UNL     1      -9.750   6.082   1.197  1.00  0.00     0.327 C 
ATOM     29  O   UNL     1      -8.848   6.359   0.421  1.00  0.00    -0.250 OA
BRANCH  28  30
ATOM     30  O   UNL     1      -9.908   6.784   2.338  1.00  0.00    -0.480 OA
ATOM     31  H   UNL     1      -9.985   7.714   2.040  1.00  0.00     0.296 HD
ENDBRANCH  28  30
ENDBRANCH  13  28
ENDBRANCH  11  13
ENDBRANCH   8  11
ENDBRANCH   6   7
BRANCH   6  32
ATOM     32  C   UNL     1      -6.206   1.996   3.481  1.00  0.00     0.037 C 
BRANCH  32  33
ATOM     33  C   UNL     1      -6.940   1.136   4.519  1.00  0.00     0.026 C 
BRANCH  33  34
ATOM     34  C   UNL     1      -6.986   1.795   5.898  1.00  0.00     0.146 C 
BRANCH  34  35
ATOM     35  N   UNL     1      -5.654   1.750   6.485  1.00  0.00    -0.254 NA
ATOM     36  C   UNL     1      -5.098   2.850   6.833  1.00  0.00     0.185 C 
ATOM     37  N   UNL     1      -3.873   2.820   7.379  1.00  0.00    -0.370 N 
ATOM     38  N   UNL     1      -5.573   4.104   6.734  1.00  0.00    -0.370 N 
ATOM     39  H   UNL     1      -3.451   1.907   7.497  1.00  0.00     0.159 HD
ATOM     40  H   UNL     1      -3.447   3.609   7.833  1.00  0.00     0.159 HD
ATOM     41  H   UNL     1      -4.983   4.900   6.914  1.00  0.00     0.159 HD
ATOM     42  H   UNL     1      -6.478   4.279   6.326  1.00  0.00     0.159 HD
ENDBRANCH  34  35
ENDBRANCH  33  34
ENDBRANCH  32  33
ENDBRANCH   6  32
ENDBRANCH   4   6
ENDBRANCH   1   2
BRANCH   1  43
ATOM     43  C   UNL     1      -4.151   5.446   0.024  1.00  0.00     0.102 C 
ATOM     44  C   UNL     1      -5.522   6.098  -0.225  1.00  0.00     0.020 C 
BRANCH  43  45
ATOM     45  C   UNL     1      -3.862   4.243  -0.879  1.00  0.00     0.225 C 
ATOM     46  O   UNL     1      -4.599   3.264  -0.949  1.00  0.00    -0.275 OA
ATOM     47  N   UNL     1      -2.660   4.281  -1.548  1.00  0.00    -0.342 N 
ATOM     48  H   UNL     1      -2.143   5.148  -1.600  1.00  0.00     0.164 HD
BRANCH  47  49
ATOM     49  C   UNL     1      -2.266   3.216  -2.475  1.00  0.00     0.192 C 
BRANCH  49  50
ATOM     50  C   UNL     1      -1.310   2.249  -1.771  1.00  0.00     0.047 C 
BRANCH  50  51
ATOM     51  C   UNL     1      -0.003   2.930  -1.344  1.00  0.00     0.103 C 
BRANCH  51  52
ATOM     52  C   UNL     1       1.224   2.243  -1.941  1.00  0.00     0.226 C 
ATOM     53  O   UNL     1       1.076   1.281  -2.698  1.00  0.00    -0.275 OA
BRANCH  52  54
ATOM     54  N   UNL     1       2.473   2.815  -1.637  1.00  0.00    -0.311 N 
ATOM     55  C   UNL     1       3.001   2.794  -0.267  1.00  0.00     0.153 C 
BRANCH  54  56
ATOM     56  C   UNL     1       3.262   3.420  -2.630  1.00  0.00     0.102 C 
ATOM     57  C   UNL     1       4.550   3.125  -2.873  1.00  0.00     0.043 C 
BRANCH  56  58
ATOM     58  C   UNL     1       2.677   4.455  -3.561  1.00  0.00     0.268 C 
ATOM     59  O   UNL     1       1.819   4.198  -4.395  1.00  0.00    -0.268 OA
ATOM     60  N   UNL     1       3.157   5.722  -3.330  1.00  0.00    -0.339 N 
ATOM     61  H   UNL     1       3.875   5.850  -2.627  1.00  0.00     0.164 HD
BRANCH  60  62
ATOM     62  C   UNL     1       2.678   6.885  -4.076  1.00  0.00     0.168 CG0
ATOM     63  C   UNL     1       3.629   7.234  -5.215  1.00  0.00     0.041 C 
ATOM     64  G   UNL     1       2.513   8.082  -3.117  1.00  0.00     0.000 G0
ENDBRANCH  60  62
ENDBRANCH  56  58
ENDBRANCH  54  56
ENDBRANCH  52  54
ENDBRANCH  51  52
ENDBRANCH  50  51
ENDBRANCH  49  50
BRANCH  49  65
ATOM     65  C   UNL     1      -1.584   3.781  -3.731  1.00  0.00     0.326 C 
ATOM     66  O   UNL     1      -1.592   4.953  -4.077  1.00  0.00    -0.250 OA
BRANCH  65  67
ATOM     67  O   UNL     1      -0.985   2.855  -4.512  1.00  0.00    -0.480 OA
ATOM     68  H   UNL     1      -0.140   3.282  -4.770  1.00  0.00     0.296 HD
ENDBRANCH  65  67
ENDBRANCH  49  65
ENDBRANCH  47  49
ENDBRANCH  43  45
ENDBRANCH   1  43
BRANCH   1  69
ATOM     69  C   UNL     1      -2.586   4.430   1.901  1.00  0.00    -0.001 C 
ATOM     70  C   UNL     1      -2.387   3.134   2.200  1.00  0.00     0.001 C 
BRANCH  70  71
ATOM     71  C   UNL     1      -1.116   2.496   2.547  1.00  0.00    -0.055 C 
ATOM     72  C   UNL     1      -1.161   1.369   3.289  1.00  0.00    -0.018 C 
ATOM     73  C   UNL     1       0.152   3.137   2.045  1.00  0.00     0.044 C 
BRANCH  72  74
ATOM     74  C   UNL     1      -0.017   0.501   3.792  1.00  0.00     0.038 C 
ATOM     75  C   UNL     1      -0.557  -0.928   3.923  1.00  0.00     0.015 C 
BRANCH  74  76
ATOM     76  C   UNL     1       0.536   1.114   5.112  1.00  0.00     0.128 C 
BRANCH  76  77
ATOM     77  O   UNL     1       0.731   0.079   6.090  1.00  0.00    -0.381 OA
ATOM     78  C   UNL     1       0.430   0.485   7.419  1.00  0.00     0.195 C 
ENDBRANCH  76  77
BRANCH  76  79
ATOM     79  C   UNL     1       1.793   1.999   4.917  1.00  0.00     0.068 C 
BRANCH  79  80
ATOM     80  C   UNL     1       1.698   3.456   5.300  1.00  0.00    -0.045 A 
ATOM     81  C   UNL     1       2.832   4.278   5.299  1.00  0.00     0.004 A 
ATOM     82  C   UNL     1       0.468   4.005   5.693  1.00  0.00     0.004 A 
ATOM     83  C   UNL     1       2.739   5.622   5.669  1.00  0.00     0.000 A 
ATOM     84  C   UNL     1       0.376   5.349   6.063  1.00  0.00     0.000 A 
ATOM     85  C   UNL     1       1.510   6.157   6.049  1.00  0.00     0.000 A 
ENDBRANCH  79  80
ENDBRANCH  76  79
ENDBRANCH  74  76
ENDBRANCH  72  74
ENDBRANCH  70  71
ENDBRANCH   1  69
TORSDOF 17
ENDMDL
MODEL 9
REMARK VINA RESULT:    -6.586     13.000     18.936
REMARK INTER + INTRA:         -26.475
REMARK INTER:                 -19.447
REMARK INTRA:                  -7.028
REMARK UNBOUND:                -6.799
REMARK SMILES C=C1C(=O)N[C@H](C)C(=O)N[C@@H](CC(C)C)C(=O)N[C@@H](C(=O)O)[C@H](C)C(=O)N[C@@H](CCCN=C(N)N)C(=O)N[C@@H](/C=C/C(C)=C/[C@H](C)[C@H](Cc2ccccc2)OC)[C@H](C)C(=O)N[C@@H](C(=O)O)CCC(=O)N1C
REMARK SMILES IDX 39 1 38 2 37 3 36 4 28 6 27 7 25 8 26 9 23 11 24 12 19 13
REMARK SMILES IDX 18 14 16 15 17 16 11 18 10 19 8 20 9 21 12 24 13 25 14 26
REMARK SMILES IDX 15 27 20 28 21 29 22 30 29 32 30 33 31 34 32 35 33 36 34 37
REMARK SMILES IDX 35 38 57 43 58 44 59 45 60 46 61 47 62 49 66 50 67 51 68 52
REMARK SMILES IDX 69 53 70 54 71 55 2 56 1 57 3 58 4 59 5 60 6 62 7 63 63 65
REMARK SMILES IDX 64 66 65 67 40 69 41 70 42 71 44 72 43 73 45 74 46 75 47 76
REMARK SMILES IDX 55 77 56 78 48 79 49 80 50 81 54 82 51 83 53 84 52 85
REMARK H PARENT 38 5 27 10 18 17 10 22 22 31 34 39 34 40 35 41 35 42 61 48
REMARK H PARENT 5 61 65 68
REMARK Flexibility Score:  369.900
ROOT
ATOM      1  C   UNL     1      -3.792   3.785   2.763  1.00  0.00     0.117 C 
ENDROOT
BRANCH   1   2
ATOM      2  N   UNL     1      -5.004   4.146   3.499  1.00  0.00    -0.347 N 
ATOM      3  O   UNL     1      -6.110   5.196   1.784  1.00  0.00    -0.273 OA
ATOM      4  C   UNL     1      -6.108   4.745   2.924  1.00  0.00     0.243 C 
ATOM      5  H   UNL     1      -5.078   3.909   4.477  1.00  0.00     0.164 HD
BRANCH   4   6
ATOM      6  C   UNL     1      -7.292   4.943   3.905  1.00  0.00     0.171 C 
BRANCH   6   7
ATOM      7  N   UNL     1      -6.826   4.852   5.298  1.00  0.00    -0.344 N 
ATOM      8  C   UNL     1      -7.720   4.651   6.327  1.00  0.00     0.226 C 
ATOM      9  O   UNL     1      -8.929   4.563   6.143  1.00  0.00    -0.275 OA
ATOM     10  H   UNL     1      -5.842   4.987   5.496  1.00  0.00     0.164 HD
BRANCH   8  11
ATOM     11  C   UNL     1      -7.080   4.525   7.698  1.00  0.00     0.109 C 
ATOM     12  C   UNL     1      -7.817   5.406   8.706  1.00  0.00     0.021 C 
BRANCH  11  13
ATOM     13  C   UNL     1      -6.977   3.038   8.090  1.00  0.00     0.204 C 
BRANCH  13  14
ATOM     14  N   UNL     1      -7.956   2.210   7.379  1.00  0.00    -0.340 N 
ATOM     15  C   UNL     1      -8.932   1.484   8.026  1.00  0.00     0.243 C 
ATOM     16  O   UNL     1      -9.089   1.527   9.245  1.00  0.00    -0.273 OA
ATOM     17  H   UNL     1      -7.789   2.012   6.389  1.00  0.00     0.164 HD
BRANCH  15  18
ATOM     18  C   UNL     1      -9.713   0.528   7.091  1.00  0.00     0.171 C 
BRANCH  18  19
ATOM     19  N   UNL     1     -10.477   1.371   6.174  1.00  0.00    -0.343 N 
ATOM     20  C   UNL     1     -11.819   1.153   5.930  1.00  0.00     0.242 CG0
ATOM     21  O   UNL     1     -12.400   0.163   6.368  1.00  0.00    -0.273 OA
ATOM     22  H   UNL     1     -10.012   2.134   5.696  1.00  0.00     0.164 HD
ATOM     23  G   UNL     1     -12.474   2.191   4.995  1.00  0.00     0.000 G0
ENDBRANCH  18  19
BRANCH  18  24
ATOM     24  C   UNL     1      -8.751  -0.397   6.336  1.00  0.00     0.038 C 
BRANCH  24  25
ATOM     25  C   UNL     1      -9.233  -1.857   6.200  1.00  0.00    -0.015 C 
ATOM     26  C   UNL     1      -8.082  -2.861   6.252  1.00  0.00     0.007 C 
ATOM     27  C   UNL     1     -10.004  -2.024   4.888  1.00  0.00     0.007 C 
ENDBRANCH  24  25
ENDBRANCH  18  24
ENDBRANCH  15  18
ENDBRANCH  13  14
BRANCH  13  28
ATOM     28  C   UNL     1      -5.594   2.437   7.821  1.00  0.00     0.327 C 
ATOM     29  O   UNL     1      -4.648   2.424   8.594  1.00  0.00    -0.250 OA
BRANCH  28  30
ATOM     30  O   UNL     1      -5.447   1.995   6.555  1.00  0.00    -0.480 OA
ATOM     31  H   UNL     1      -6.199   2.396   6.071  1.00  0.00     0.296 HD
ENDBRANCH  28  30
ENDBRANCH  13  28
ENDBRANCH  11  13
ENDBRANCH   8  11
ENDBRANCH   6   7
BRANCH   6  32
ATOM     32  C   UNL     1      -7.948   6.301   3.635  1.00  0.00     0.037 C 
BRANCH  32  33
ATOM     33  C   UNL     1      -9.408   6.160   3.185  1.00  0.00     0.026 C 
BRANCH  33  34
ATOM     34  C   UNL     1      -9.699   4.795   2.560  1.00  0.00     0.146 C 
BRANCH  34  35
ATOM     35  N   UNL     1     -10.972   4.862   1.856  1.00  0.00    -0.254 NA
ATOM     36  C   UNL     1     -11.293   3.899   1.075  1.00  0.00     0.185 C 
ATOM     37  N   UNL     1     -12.466   3.948   0.425  1.00  0.00    -0.370 N 
ATOM     38  N   UNL     1     -10.605   2.780   0.785  1.00  0.00    -0.370 N 
ATOM     39  H   UNL     1     -13.049   4.757   0.599  1.00  0.00     0.159 HD
ATOM     40  H   UNL     1     -12.865   3.164  -0.062  1.00  0.00     0.159 HD
ATOM     41  H   UNL     1     -10.901   2.163   0.047  1.00  0.00     0.159 HD
ATOM     42  H   UNL     1      -9.697   2.618   1.191  1.00  0.00     0.159 HD
ENDBRANCH  34  35
ENDBRANCH  33  34
ENDBRANCH  32  33
ENDBRANCH   6  32
ENDBRANCH   4   6
ENDBRANCH   1   2
BRANCH   1  43
ATOM     43  C   UNL     1      -4.008   2.390   2.108  1.00  0.00     0.102 C 
ATOM     44  C   UNL     1      -4.561   1.336   3.082  1.00  0.00     0.020 C 
BRANCH  43  45
ATOM     45  C   UNL     1      -2.757   1.939   1.349  1.00  0.00     0.225 C 
ATOM     46  O   UNL     1      -2.202   0.862   1.550  1.00  0.00    -0.275 OA
ATOM     47  N   UNL     1      -2.225   2.864   0.480  1.00  0.00    -0.342 N 
ATOM     48  H   UNL     1      -2.770   3.672   0.215  1.00  0.00     0.164 HD
BRANCH  47  49
ATOM     49  C   UNL     1      -1.050   2.558  -0.341  1.00  0.00     0.192 C 
BRANCH  49  50
ATOM     50  C   UNL     1       0.195   3.191   0.287  1.00  0.00     0.047 C 
BRANCH  50  51
ATOM     51  C   UNL     1       1.476   2.417  -0.052  1.00  0.00     0.103 C 
BRANCH  51  52
ATOM     52  C   UNL     1       2.667   3.348  -0.273  1.00  0.00     0.226 C 
ATOM     53  O   UNL     1       3.191   3.907   0.691  1.00  0.00    -0.275 OA
BRANCH  52  54
ATOM     54  N   UNL     1       3.147   3.448  -1.592  1.00  0.00    -0.311 N 
ATOM     55  C   UNL     1       2.863   2.401  -2.583  1.00  0.00     0.153 C 
BRANCH  54  56
ATOM     56  C   UNL     1       3.908   4.552  -2.012  1.00  0.00     0.102 C 
ATOM     57  C   UNL     1       3.407   5.654  -2.595  1.00  0.00     0.043 C 
BRANCH  56  58
ATOM     58  C   UNL     1       5.401   4.595  -1.786  1.00  0.00     0.268 C 
ATOM     59  O   UNL     1       5.911   5.039  -0.766  1.00  0.00    -0.268 OA
ATOM     60  N   UNL     1       6.119   4.027  -2.811  1.00  0.00    -0.339 N 
ATOM     61  H   UNL     1       5.622   3.691  -3.627  1.00  0.00     0.164 HD
BRANCH  60  62
ATOM     62  C   UNL     1       7.576   3.907  -2.768  1.00  0.00     0.168 CG0
ATOM     63  C   UNL     1       8.004   2.776  -1.841  1.00  0.00     0.041 C 
ATOM     64  G   UNL     1       8.192   5.247  -2.314  1.00  0.00     0.000 G0
ENDBRANCH  60  62
ENDBRANCH  56  58
ENDBRANCH  54  56
ENDBRANCH  52  54
ENDBRANCH  51  52
ENDBRANCH  50  51
ENDBRANCH  49  50
BRANCH  49  65
ATOM     65  C   UNL     1      -1.212   3.073  -1.779  1.00  0.00     0.326 C 
ATOM     66  O   UNL     1      -0.804   2.512  -2.786  1.00  0.00    -0.250 OA
BRANCH  65  67
ATOM     67  O   UNL     1      -1.815   4.278  -1.881  1.00  0.00    -0.480 OA
ATOM     68  H   UNL     1      -1.070   4.896  -2.049  1.00  0.00     0.296 HD
ENDBRANCH  65  67
ENDBRANCH  49  65
ENDBRANCH  47  49
ENDBRANCH  43  45
ENDBRANCH   1  43
BRANCH   1  69
ATOM     69  C   UNL     1      -2.637   3.969   3.731  1.00  0.00    -0.001 C 
ATOM     70  C   UNL     1      -2.677   3.899   5.073  1.00  0.00     0.001 C 
BRANCH  70  71
ATOM     71  C   UNL     1      -1.551   4.058   5.996  1.00  0.00    -0.055 C 
ATOM     72  C   UNL     1      -0.558   4.899   5.636  1.00  0.00    -0.018 C 
ATOM     73  C   UNL     1      -1.584   3.278   7.285  1.00  0.00     0.044 C 
BRANCH  72  74
ATOM     74  C   UNL     1       0.717   5.260   6.384  1.00  0.00     0.038 C 
ATOM     75  C   UNL     1       0.430   6.543   7.174  1.00  0.00     0.015 C 
BRANCH  74  76
ATOM     76  C   UNL     1       1.884   5.370   5.360  1.00  0.00     0.128 C 
BRANCH  76  77
ATOM     77  O   UNL     1       2.742   6.469   5.710  1.00  0.00    -0.381 OA
ATOM     78  C   UNL     1       3.896   6.083   6.444  1.00  0.00     0.195 C 
ENDBRANCH  76  77
BRANCH  76  79
ATOM     79  C   UNL     1       2.662   4.047   5.148  1.00  0.00     0.068 C 
BRANCH  79  80
ATOM     80  C   UNL     1       1.864   2.785   4.927  1.00  0.00    -0.045 A 
ATOM     81  C   UNL     1       1.393   2.442   3.653  1.00  0.00     0.004 A 
ATOM     82  C   UNL     1       1.556   1.945   6.008  1.00  0.00     0.004 A 
ATOM     83  C   UNL     1       0.643   1.280   3.460  1.00  0.00     0.000 A 
ATOM     84  C   UNL     1       0.805   0.783   5.814  1.00  0.00     0.000 A 
ATOM     85  C   UNL     1       0.351   0.450   4.540  1.00  0.00     0.000 A 
ENDBRANCH  79  80
ENDBRANCH  76  79
ENDBRANCH  74  76
ENDBRANCH  72  74
ENDBRANCH  70  71
ENDBRANCH   1  69
TORSDOF 17
ENDMDL
MODEL 10
REMARK VINA RESULT:    -6.557     12.562     16.314
REMARK INTER + INTRA:         -26.390
REMARK INTER:                 -19.091
REMARK INTRA:                  -7.299
REMARK UNBOUND:                -6.799
REMARK SMILES C=C1C(=O)N[C@H](C)C(=O)N[C@@H](CC(C)C)C(=O)N[C@@H](C(=O)O)[C@H](C)C(=O)N[C@@H](CCCN=C(N)N)C(=O)N[C@@H](/C=C/C(C)=C/[C@H](C)[C@H](Cc2ccccc2)OC)[C@H](C)C(=O)N[C@@H](C(=O)O)CCC(=O)N1C
REMARK SMILES IDX 39 1 38 2 37 3 36 4 28 6 27 7 25 8 26 9 23 11 24 12 19 13
REMARK SMILES IDX 18 14 16 15 17 16 11 18 10 19 8 20 9 21 12 24 13 25 14 26
REMARK SMILES IDX 15 27 20 28 21 29 22 30 29 32 30 33 31 34 32 35 33 36 34 37
REMARK SMILES IDX 35 38 57 43 58 44 59 45 60 46 61 47 62 49 66 50 67 51 68 52
REMARK SMILES IDX 69 53 70 54 71 55 2 56 1 57 3 58 4 59 5 60 6 62 7 63 63 65
REMARK SMILES IDX 64 66 65 67 40 69 41 70 42 71 44 72 43 73 45 74 46 75 47 76
REMARK SMILES IDX 55 77 56 78 48 79 49 80 50 81 54 82 51 83 53 84 52 85
REMARK H PARENT 38 5 27 10 18 17 10 22 22 31 34 39 34 40 35 41 35 42 61 48
REMARK H PARENT 5 61 65 68
REMARK Flexibility Score:  369.900
ROOT
ATOM      1  C   UNL     1      -1.132   3.758  -4.292  1.00  0.00     0.117 C 
ENDROOT
BRANCH   1   2
ATOM      2  N   UNL     1      -1.014   3.767  -2.834  1.00  0.00    -0.347 N 
ATOM      3  O   UNL     1      -3.072   2.871  -2.348  1.00  0.00    -0.273 OA
ATOM      4  C   UNL     1      -1.960   3.236  -1.978  1.00  0.00     0.243 C 
ATOM      5  H   UNL     1      -0.177   4.133  -2.407  1.00  0.00     0.164 HD
BRANCH   4   6
ATOM      6  C   UNL     1      -1.553   3.295  -0.484  1.00  0.00     0.171 C 
BRANCH   6   7
ATOM      7  N   UNL     1      -2.724   3.069   0.378  1.00  0.00    -0.344 N 
ATOM      8  C   UNL     1      -3.253   4.097   1.128  1.00  0.00     0.226 C 
ATOM      9  O   UNL     1      -2.773   5.225   1.135  1.00  0.00    -0.275 OA
ATOM     10  H   UNL     1      -3.107   2.135   0.450  1.00  0.00     0.164 HD
BRANCH   8  11
ATOM     11  C   UNL     1      -4.491   3.720   1.922  1.00  0.00     0.109 C 
ATOM     12  C   UNL     1      -5.501   3.014   1.016  1.00  0.00     0.021 C 
BRANCH  11  13
ATOM     13  C   UNL     1      -4.083   2.927   3.179  1.00  0.00     0.204 C 
BRANCH  13  14
ATOM     14  N   UNL     1      -2.827   3.415   3.755  1.00  0.00    -0.340 N 
ATOM     15  C   UNL     1      -1.942   2.597   4.423  1.00  0.00     0.243 C 
ATOM     16  O   UNL     1      -2.115   1.384   4.530  1.00  0.00    -0.273 OA
ATOM     17  H   UNL     1      -2.696   4.427   3.834  1.00  0.00     0.164 HD
BRANCH  15  18
ATOM     18  C   UNL     1      -0.794   3.366   5.122  1.00  0.00     0.171 C 
BRANCH  18  19
ATOM     19  N   UNL     1      -0.483   2.633   6.347  1.00  0.00    -0.343 N 
ATOM     20  C   UNL     1      -1.098   2.927   7.549  1.00  0.00     0.242 CG0
ATOM     21  O   UNL     1      -1.834   3.903   7.673  1.00  0.00    -0.273 OA
ATOM     22  H   UNL     1       0.207   1.890   6.321  1.00  0.00     0.164 HD
ATOM     23  G   UNL     1      -0.700   1.995   8.712  1.00  0.00     0.000 G0
ENDBRANCH  18  19
BRANCH  18  24
ATOM     24  C   UNL     1       0.429   3.468   4.202  1.00  0.00     0.038 C 
BRANCH  24  25
ATOM     25  C   UNL     1       1.742   2.934   4.814  1.00  0.00    -0.015 C 
ATOM     26  C   UNL     1       2.680   4.058   5.255  1.00  0.00     0.007 C 
ATOM     27  C   UNL     1       2.455   2.036   3.800  1.00  0.00     0.007 C 
ENDBRANCH  24  25
ENDBRANCH  18  24
ENDBRANCH  15  18
ENDBRANCH  13  14
BRANCH  13  28
ATOM     28  C   UNL     1      -5.138   2.970   4.289  1.00  0.00     0.327 C 
ATOM     29  O   UNL     1      -5.758   3.955   4.659  1.00  0.00    -0.250 OA
BRANCH  28  30
ATOM     30  O   UNL     1      -5.264   1.798   4.944  1.00  0.00    -0.480 OA
ATOM     31  H   UNL     1      -6.199   1.542   4.804  1.00  0.00     0.296 HD
ENDBRANCH  28  30
ENDBRANCH  13  28
ENDBRANCH  11  13
ENDBRANCH   8  11
ENDBRANCH   6   7
BRANCH   6  32
ATOM     32  C   UNL     1      -0.467   2.247  -0.217  1.00  0.00     0.037 C 
BRANCH  32  33
ATOM     33  C   UNL     1      -1.044   0.950   0.366  1.00  0.00     0.026 C 
BRANCH  33  34
ATOM     34  C   UNL     1      -0.337   0.520   1.652  1.00  0.00     0.146 C 
BRANCH  34  35
ATOM     35  N   UNL     1      -0.327  -0.934   1.719  1.00  0.00    -0.254 NA
ATOM     36  C   UNL     1      -0.320  -1.497   2.870  1.00  0.00     0.185 C 
ATOM     37  N   UNL     1      -0.315  -2.837   2.943  1.00  0.00    -0.370 N 
ATOM     38  N   UNL     1      -0.318  -0.927   4.088  1.00  0.00    -0.370 N 
ATOM     39  H   UNL     1      -0.327  -3.340   2.065  1.00  0.00     0.159 HD
ATOM     40  H   UNL     1      -0.485  -3.348   3.793  1.00  0.00     0.159 HD
ATOM     41  H   UNL     1      -0.172  -1.476   4.920  1.00  0.00     0.159 HD
ATOM     42  H   UNL     1      -0.305   0.076   4.185  1.00  0.00     0.159 HD
ENDBRANCH  34  35
ENDBRANCH  33  34
ENDBRANCH  32  33
ENDBRANCH   6  32
ENDBRANCH   4   6
ENDBRANCH   1   2
BRANCH   1  43
ATOM     43  C   UNL     1       0.257   3.407  -4.899  1.00  0.00     0.102 C 
ATOM     44  C   UNL     1       0.489   1.895  -5.061  1.00  0.00     0.020 C 
BRANCH  43  45
ATOM     45  C   UNL     1       1.382   4.132  -4.155  1.00  0.00     0.225 C 
ATOM     46  O   UNL     1       1.889   3.702  -3.123  1.00  0.00    -0.275 OA
ATOM     47  N   UNL     1       1.735   5.360  -4.666  1.00  0.00    -0.342 N 
ATOM     48  H   UNL     1       1.422   5.626  -5.589  1.00  0.00     0.164 HD
BRANCH  47  49
ATOM     49  C   UNL     1       2.820   6.151  -4.079  1.00  0.00     0.192 C 
BRANCH  49  50
ATOM     50  C   UNL     1       2.621   7.630  -4.419  1.00  0.00     0.047 C 
BRANCH  50  51
ATOM     51  C   UNL     1       1.433   7.855  -5.365  1.00  0.00     0.103 C 
BRANCH  51  52
ATOM     52  C   UNL     1       1.875   8.412  -6.717  1.00  0.00     0.226 C 
ATOM     53  O   UNL     1       3.073   8.594  -6.940  1.00  0.00    -0.275 OA
BRANCH  52  54
ATOM     54  N   UNL     1       0.861   8.617  -7.672  1.00  0.00    -0.311 N 
ATOM     55  C   UNL     1      -0.459   7.992  -7.518  1.00  0.00     0.153 C 
BRANCH  54  56
ATOM     56  C   UNL     1       1.070   9.427  -8.800  1.00  0.00     0.102 C 
ATOM     57  C   UNL     1       0.608  10.680  -8.943  1.00  0.00     0.043 C 
BRANCH  56  58
ATOM     58  C   UNL     1       1.904   8.938  -9.961  1.00  0.00     0.268 C 
ATOM     59  O   UNL     1       1.445   8.282 -10.886  1.00  0.00    -0.268 OA
ATOM     60  N   UNL     1       3.211   9.362  -9.904  1.00  0.00    -0.339 N 
ATOM     61  H   UNL     1       3.515   9.894  -9.098  1.00  0.00     0.164 HD
BRANCH  60  62
ATOM     62  C   UNL     1       4.176   9.055 -10.959  1.00  0.00     0.168 CG0
ATOM     63  C   UNL     1       4.382  10.253 -11.877  1.00  0.00     0.041 C 
ATOM     64  G   UNL     1       3.692   7.829 -11.762  1.00  0.00     0.000 G0
ENDBRANCH  60  62
ENDBRANCH  56  58
ENDBRANCH  54  56
ENDBRANCH  52  54
ENDBRANCH  51  52
ENDBRANCH  50  51
ENDBRANCH  49  50
BRANCH  49  65
ATOM     65  C   UNL     1       4.196   5.692  -4.587  1.00  0.00     0.326 C 
ATOM     66  O   UNL     1       4.768   6.126  -5.576  1.00  0.00    -0.250 OA
BRANCH  65  67
ATOM     67  O   UNL     1       4.752   4.685  -3.879  1.00  0.00    -0.480 OA
ATOM     68  H   UNL     1       5.561   5.089  -3.498  1.00  0.00     0.296 HD
ENDBRANCH  65  67
ENDBRANCH  49  65
ENDBRANCH  47  49
ENDBRANCH  43  45
ENDBRANCH   1  43
BRANCH   1  69
ATOM     69  C   UNL     1      -1.787   5.074  -4.672  1.00  0.00    -0.001 C 
ATOM     70  C   UNL     1      -3.066   5.275  -5.034  1.00  0.00     0.001 C 
BRANCH  70  71
ATOM     71  C   UNL     1      -3.692   6.553  -5.379  1.00  0.00    -0.055 C 
ATOM     72  C   UNL     1      -3.577   7.567  -4.495  1.00  0.00    -0.018 C 
ATOM     73  C   UNL     1      -4.413   6.650  -6.698  1.00  0.00     0.044 C 
BRANCH  72  74
ATOM     74  C   UNL     1      -4.114   8.988  -4.583  1.00  0.00     0.038 C 
ATOM     75  C   UNL     1      -3.251   9.735  -5.608  1.00  0.00     0.015 C 
BRANCH  74  76
ATOM     76  C   UNL     1      -4.120   9.611  -3.156  1.00  0.00     0.128 C 
BRANCH  76  77
ATOM     77  O   UNL     1      -3.414  10.864  -3.165  1.00  0.00    -0.381 OA
ATOM     78  C   UNL     1      -3.697  11.687  -2.041  1.00  0.00     0.195 C 
ENDBRANCH  76  77
BRANCH  76  79
ATOM     79  C   UNL     1      -5.530   9.722  -2.524  1.00  0.00     0.068 C 
BRANCH  79  80
ATOM     80  C   UNL     1      -5.933   8.681  -1.508  1.00  0.00    -0.045 A 
ATOM     81  C   UNL     1      -5.209   7.489  -1.369  1.00  0.00     0.004 A 
ATOM     82  C   UNL     1      -7.063   8.880  -0.701  1.00  0.00     0.004 A 
ATOM     83  C   UNL     1      -5.597   6.524  -0.437  1.00  0.00     0.000 A 
ATOM     84  C   UNL     1      -7.451   7.915   0.231  1.00  0.00     0.000 A 
ATOM     85  C   UNL     1      -6.717   6.738   0.363  1.00  0.00     0.000 A 
ENDBRANCH  79  80
ENDBRANCH  76  79
ENDBRANCH  74  76
ENDBRANCH  72  74
ENDBRANCH  70  71
ENDBRANCH   1  69
TORSDOF 17
ENDMDL
MODEL 11
REMARK VINA RESULT:    -6.511      1.814      3.518
REMARK INTER + INTRA:         -26.252
REMARK INTER:                 -19.591
REMARK INTRA:                  -6.662
REMARK UNBOUND:                -6.799
REMARK SMILES C=C1C(=O)N[C@H](C)C(=O)N[C@@H](CC(C)C)C(=O)N[C@@H](C(=O)O)[C@H](C)C(=O)N[C@@H](CCCN=C(N)N)C(=O)N[C@@H](/C=C/C(C)=C/[C@H](C)[C@H](Cc2ccccc2)OC)[C@H](C)C(=O)N[C@@H](C(=O)O)CCC(=O)N1C
REMARK SMILES IDX 39 1 38 2 37 3 36 4 28 6 27 7 25 8 26 9 23 11 24 12 19 13
REMARK SMILES IDX 18 14 16 15 17 16 11 18 10 19 8 20 9 21 12 24 13 25 14 26
REMARK SMILES IDX 15 27 20 28 21 29 22 30 29 32 30 33 31 34 32 35 33 36 34 37
REMARK SMILES IDX 35 38 57 43 58 44 59 45 60 46 61 47 62 49 66 50 67 51 68 52
REMARK SMILES IDX 69 53 70 54 71 55 2 56 1 57 3 58 4 59 5 60 6 62 7 63 63 65
REMARK SMILES IDX 64 66 65 67 40 69 41 70 42 71 44 72 43 73 45 74 46 75 47 76
REMARK SMILES IDX 55 77 56 78 48 79 49 80 50 81 54 82 51 83 53 84 52 85
REMARK H PARENT 38 5 27 10 18 17 10 22 22 31 34 39 34 40 35 41 35 42 61 48
REMARK H PARENT 5 61 65 68
REMARK Flexibility Score:  369.900
ROOT
ATOM      1  C   UNL     1     -14.699   1.647  -9.381  1.00  0.00     0.117 C 
ENDROOT
BRANCH   1   2
ATOM      2  N   UNL     1     -13.424   2.103  -8.828  1.00  0.00    -0.347 N 
ATOM      3  O   UNL     1     -12.828   0.156  -7.768  1.00  0.00    -0.273 OA
ATOM      4  C   UNL     1     -12.544   1.290  -8.140  1.00  0.00     0.243 C 
ATOM      5  H   UNL     1     -13.126   3.054  -8.990  1.00  0.00     0.164 HD
BRANCH   4   6
ATOM      6  C   UNL     1     -11.226   1.998  -7.737  1.00  0.00     0.171 C 
BRANCH   6   7
ATOM      7  N   UNL     1     -10.124   1.575  -8.616  1.00  0.00    -0.344 N 
ATOM      8  C   UNL     1      -9.109   0.775  -8.135  1.00  0.00     0.226 C 
ATOM      9  O   UNL     1      -9.059   0.402  -6.970  1.00  0.00    -0.275 OA
ATOM     10  H   UNL     1     -10.096   1.919  -9.567  1.00  0.00     0.164 HD
BRANCH   8  11
ATOM     11  C   UNL     1      -8.078   0.380  -9.177  1.00  0.00     0.109 C 
ATOM     12  C   UNL     1      -7.320   1.616  -9.663  1.00  0.00     0.021 C 
BRANCH  11  13
ATOM     13  C   UNL     1      -7.188  -0.752  -8.627  1.00  0.00     0.204 C 
BRANCH  13  14
ATOM     14  N   UNL     1      -7.946  -1.984  -8.388  1.00  0.00    -0.340 N 
ATOM     15  C   UNL     1      -7.473  -3.013  -7.603  1.00  0.00     0.243 C 
ATOM     16  O   UNL     1      -6.406  -2.945  -6.997  1.00  0.00    -0.273 OA
ATOM     17  H   UNL     1      -8.762  -2.167  -8.978  1.00  0.00     0.164 HD
BRANCH  15  18
ATOM     18  C   UNL     1      -8.347  -4.290  -7.665  1.00  0.00     0.171 C 
BRANCH  18  19
ATOM     19  N   UNL     1      -7.823  -5.103  -8.761  1.00  0.00    -0.343 N 
ATOM     20  C   UNL     1      -6.849  -6.062  -8.556  1.00  0.00     0.242 CG0
ATOM     21  O   UNL     1      -6.285  -6.183  -7.471  1.00  0.00    -0.273 OA
ATOM     22  H   UNL     1      -8.176  -4.959  -9.700  1.00  0.00     0.164 HD
ATOM     23  G   UNL     1      -6.479  -6.873  -9.815  1.00  0.00     0.000 G0
ENDBRANCH  18  19
BRANCH  18  24
ATOM     24  C   UNL     1      -8.298  -5.045  -6.332  1.00  0.00     0.038 C 
BRANCH  24  25
ATOM     25  C   UNL     1      -9.035  -4.348  -5.169  1.00  0.00    -0.015 C 
ATOM     26  C   UNL     1      -8.174  -4.242  -3.910  1.00  0.00     0.007 C 
ATOM     27  C   UNL     1     -10.326  -5.106  -4.848  1.00  0.00     0.007 C 
ENDBRANCH  24  25
ENDBRANCH  18  24
ENDBRANCH  15  18
ENDBRANCH  13  14
BRANCH  13  28
ATOM     28  C   UNL     1      -6.022  -1.108  -9.554  1.00  0.00     0.327 C 
ATOM     29  O   UNL     1      -6.111  -1.516 -10.703  1.00  0.00    -0.250 OA
BRANCH  28  30
ATOM     30  O   UNL     1      -4.822  -1.045  -8.943  1.00  0.00    -0.480 OA
ATOM     31  H   UNL     1      -4.918  -1.628  -8.162  1.00  0.00     0.296 HD
ENDBRANCH  28  30
ENDBRANCH  13  28
ENDBRANCH  11  13
ENDBRANCH   8  11
ENDBRANCH   6   7
BRANCH   6  32
ATOM     32  C   UNL     1     -11.428   3.516  -7.806  1.00  0.00     0.037 C 
BRANCH  32  33
ATOM     33  C   UNL     1     -10.995   4.218  -6.511  1.00  0.00     0.026 C 
BRANCH  33  34
ATOM     34  C   UNL     1      -9.736   5.066  -6.699  1.00  0.00     0.146 C 
BRANCH  34  35
ATOM     35  N   UNL     1      -9.388   5.084  -8.113  1.00  0.00    -0.254 NA
ATOM     36  C   UNL     1      -8.152   5.025  -8.443  1.00  0.00     0.185 C 
ATOM     37  N   UNL     1      -7.820   5.036  -9.743  1.00  0.00    -0.370 N 
ATOM     38  N   UNL     1      -7.069   4.950  -7.649  1.00  0.00    -0.370 N 
ATOM     39  H   UNL     1      -8.583   5.080 -10.406  1.00  0.00     0.159 HD
ATOM     40  H   UNL     1      -6.899   4.820 -10.084  1.00  0.00     0.159 HD
ATOM     41  H   UNL     1      -6.140   5.051  -8.024  1.00  0.00     0.159 HD
ATOM     42  H   UNL     1      -7.168   4.950  -6.646  1.00  0.00     0.159 HD
ENDBRANCH  34  35
ENDBRANCH  33  34
ENDBRANCH  32  33
ENDBRANCH   6  32
ENDBRANCH   4   6
ENDBRANCH   1   2
BRANCH   1  43
ATOM     43  C   UNL     1     -14.985   2.442 -10.688  1.00  0.00     0.102 C 
ATOM     44  C   UNL     1     -14.414   1.772 -11.949  1.00  0.00     0.020 C 
BRANCH  43  45
ATOM     45  C   UNL     1     -14.591   3.914 -10.534  1.00  0.00     0.225 C 
ATOM     46  O   UNL     1     -15.117   4.668  -9.720  1.00  0.00    -0.275 OA
ATOM     47  N   UNL     1     -13.661   4.376 -11.438  1.00  0.00    -0.342 N 
ATOM     48  H   UNL     1     -13.133   3.717 -11.992  1.00  0.00     0.164 HD
BRANCH  47  49
ATOM     49  C   UNL     1     -13.163   5.754 -11.388  1.00  0.00     0.192 C 
BRANCH  49  50
ATOM     50  C   UNL     1     -12.695   6.182 -12.781  1.00  0.00     0.047 C 
BRANCH  50  51
ATOM     51  C   UNL     1     -13.671   7.163 -13.446  1.00  0.00     0.103 C 
BRANCH  51  52
ATOM     52  C   UNL     1     -15.065   6.561 -13.612  1.00  0.00     0.226 C 
ATOM     53  O   UNL     1     -15.185   5.394 -13.991  1.00  0.00    -0.275 OA
BRANCH  52  54
ATOM     54  N   UNL     1     -16.149   7.377 -13.239  1.00  0.00    -0.311 N 
ATOM     55  C   UNL     1     -16.770   8.296 -14.202  1.00  0.00     0.153 C 
BRANCH  54  56
ATOM     56  C   UNL     1     -16.679   7.341 -11.938  1.00  0.00     0.102 C 
ATOM     57  C   UNL     1     -17.578   6.445 -11.500  1.00  0.00     0.043 C 
BRANCH  56  58
ATOM     58  C   UNL     1     -16.220   8.324 -10.887  1.00  0.00     0.268 C 
ATOM     59  O   UNL     1     -15.206   8.166 -10.220  1.00  0.00    -0.268 OA
ATOM     60  N   UNL     1     -17.019   9.439 -10.804  1.00  0.00    -0.339 N 
ATOM     61  H   UNL     1     -17.847   9.489 -11.385  1.00  0.00     0.164 HD
BRANCH  60  62
ATOM     62  C   UNL     1     -16.721  10.545  -9.895  1.00  0.00     0.168 CG0
ATOM     63  C   UNL     1     -17.952  10.937  -9.087  1.00  0.00     0.041 C 
ATOM     64  G   UNL     1     -16.192  11.749 -10.702  1.00  0.00     0.000 G0
ENDBRANCH  60  62
ENDBRANCH  56  58
ENDBRANCH  54  56
ENDBRANCH  52  54
ENDBRANCH  51  52
ENDBRANCH  50  51
ENDBRANCH  49  50
BRANCH  49  65
ATOM     65  C   UNL     1     -12.001   5.900 -10.393  1.00  0.00     0.326 C 
ATOM     66  O   UNL     1     -12.062   6.453  -9.304  1.00  0.00    -0.250 OA
BRANCH  65  67
ATOM     67  O   UNL     1     -10.820   5.409 -10.830  1.00  0.00    -0.480 OA
ATOM     68  H   UNL     1     -10.726   5.796 -11.727  1.00  0.00     0.296 HD
ENDBRANCH  65  67
ENDBRANCH  49  65
ENDBRANCH  47  49
ENDBRANCH  43  45
ENDBRANCH   1  43
BRANCH   1  69
ATOM     69  C   UNL     1     -15.703   1.718  -8.245  1.00  0.00    -0.001 C 
ATOM     70  C   UNL     1     -16.730   0.882  -8.009  1.00  0.00     0.001 C 
BRANCH  70  71
ATOM     71  C   UNL     1     -17.680   0.948  -6.897  1.00  0.00    -0.055 C 
ATOM     72  C   UNL     1     -18.596   1.939  -6.912  1.00  0.00    -0.018 C 
ATOM     73  C   UNL     1     -17.573  -0.099  -5.819  1.00  0.00     0.044 C 
BRANCH  72  74
ATOM     74  C   UNL     1     -19.696   2.250  -5.906  1.00  0.00     0.038 C 
ATOM     75  C   UNL     1     -20.891   2.797  -6.697  1.00  0.00     0.015 C 
BRANCH  74  76
ATOM     76  C   UNL     1     -19.128   3.219  -4.827  1.00  0.00     0.128 C 
BRANCH  76  77
ATOM     77  O   UNL     1     -18.959   2.521  -3.582  1.00  0.00    -0.381 OA
ATOM     78  C   UNL     1     -19.999   1.594  -3.301  1.00  0.00     0.195 C 
ENDBRANCH  76  77
BRANCH  76  79
ATOM     79  C   UNL     1     -17.849   3.974  -5.270  1.00  0.00     0.068 C 
BRANCH  79  80
ATOM     80  C   UNL     1     -18.016   5.325  -5.922  1.00  0.00    -0.045 A 
ATOM     81  C   UNL     1     -17.844   5.486  -7.303  1.00  0.00     0.004 A 
ATOM     82  C   UNL     1     -18.321   6.453  -5.145  1.00  0.00     0.004 A 
ATOM     83  C   UNL     1     -17.987   6.741  -7.897  1.00  0.00     0.000 A 
ATOM     84  C   UNL     1     -18.462   7.708  -5.740  1.00  0.00     0.000 A 
ATOM     85  C   UNL     1     -18.297   7.852  -7.116  1.00  0.00     0.000 A 
ENDBRANCH  79  80
ENDBRANCH  76  79
ENDBRANCH  74  76
ENDBRANCH  72  74
ENDBRANCH  70  71
ENDBRANCH   1  69
TORSDOF 17
ENDMDL
MODEL 12
REMARK VINA RESULT:    -6.508     12.172     19.406
REMARK INTER + INTRA:         -26.244
REMARK INTER:                 -18.965
REMARK INTRA:                  -7.279
REMARK UNBOUND:                -6.799
REMARK SMILES C=C1C(=O)N[C@H](C)C(=O)N[C@@H](CC(C)C)C(=O)N[C@@H](C(=O)O)[C@H](C)C(=O)N[C@@H](CCCN=C(N)N)C(=O)N[C@@H](/C=C/C(C)=C/[C@H](C)[C@H](Cc2ccccc2)OC)[C@H](C)C(=O)N[C@@H](C(=O)O)CCC(=O)N1C
REMARK SMILES IDX 39 1 38 2 37 3 36 4 28 6 27 7 25 8 26 9 23 11 24 12 19 13
REMARK SMILES IDX 18 14 16 15 17 16 11 18 10 19 8 20 9 21 12 24 13 25 14 26
REMARK SMILES IDX 15 27 20 28 21 29 22 30 29 32 30 33 31 34 32 35 33 36 34 37
REMARK SMILES IDX 35 38 57 43 58 44 59 45 60 46 61 47 62 49 66 50 67 51 68 52
REMARK SMILES IDX 69 53 70 54 71 55 2 56 1 57 3 58 4 59 5 60 6 62 7 63 63 65
REMARK SMILES IDX 64 66 65 67 40 69 41 70 42 71 44 72 43 73 45 74 46 75 47 76
REMARK SMILES IDX 55 77 56 78 48 79 49 80 50 81 54 82 51 83 53 84 52 85
REMARK H PARENT 38 5 27 10 18 17 10 22 22 31 34 39 34 40 35 41 35 42 61 48
REMARK H PARENT 5 61 65 68
REMARK Flexibility Score:  369.900
ROOT
ATOM      1  C   UNL     1       1.766   2.337   1.107  1.00  0.00     0.117 C 
ENDROOT
BRANCH   1   2
ATOM      2  N   UNL     1       0.645   3.074   0.521  1.00  0.00    -0.347 N 
ATOM      3  O   UNL     1      -0.239   1.360  -0.724  1.00  0.00    -0.273 OA
ATOM      4  C   UNL     1      -0.324   2.499  -0.279  1.00  0.00     0.243 C 
ATOM      5  H   UNL     1       0.526   4.051   0.742  1.00  0.00     0.164 HD
BRANCH   4   6
ATOM      6  C   UNL     1      -1.448   3.480  -0.698  1.00  0.00     0.171 C 
BRANCH   6   7
ATOM      7  N   UNL     1      -2.101   3.018  -1.933  1.00  0.00    -0.344 N 
ATOM      8  C   UNL     1      -1.676   3.470  -3.164  1.00  0.00     0.226 C 
ATOM      9  O   UNL     1      -0.766   4.281  -3.291  1.00  0.00    -0.275 OA
ATOM     10  H   UNL     1      -2.899   2.400  -1.864  1.00  0.00     0.164 HD
BRANCH   8  11
ATOM     11  C   UNL     1      -2.412   2.859  -4.343  1.00  0.00     0.109 C 
ATOM     12  C   UNL     1      -3.596   2.027  -3.849  1.00  0.00     0.021 C 
BRANCH  11  13
ATOM     13  C   UNL     1      -2.772   3.960  -5.360  1.00  0.00     0.204 C 
BRANCH  13  14
ATOM     14  N   UNL     1      -1.580   4.582  -5.944  1.00  0.00    -0.340 N 
ATOM     15  C   UNL     1      -1.561   5.883  -6.398  1.00  0.00     0.243 C 
ATOM     16  O   UNL     1      -2.528   6.635  -6.288  1.00  0.00    -0.273 OA
ATOM     17  H   UNL     1      -0.798   3.974  -6.202  1.00  0.00     0.164 HD
BRANCH  15  18
ATOM     18  C   UNL     1      -0.266   6.254  -7.160  1.00  0.00     0.171 C 
BRANCH  18  19
ATOM     19  N   UNL     1       0.042   7.640  -6.814  1.00  0.00    -0.343 N 
ATOM     20  C   UNL     1      -0.116   8.670  -7.722  1.00  0.00     0.242 CG0
ATOM     21  O   UNL     1      -0.394   8.453  -8.899  1.00  0.00    -0.273 OA
ATOM     22  H   UNL     1       0.386   7.856  -5.886  1.00  0.00     0.164 HD
ATOM     23  G   UNL     1       0.183  10.072  -7.152  1.00  0.00     0.000 G0
ENDBRANCH  18  19
BRANCH  18  24
ATOM     24  C   UNL     1       0.879   5.310  -6.773  1.00  0.00     0.038 C 
BRANCH  24  25
ATOM     25  C   UNL     1       1.641   4.697  -7.967  1.00  0.00    -0.015 C 
ATOM     26  C   UNL     1       2.643   3.626  -7.534  1.00  0.00     0.007 C 
ATOM     27  C   UNL     1       2.369   5.802  -8.736  1.00  0.00     0.007 C 
ENDBRANCH  24  25
ENDBRANCH  18  24
ENDBRANCH  15  18
ENDBRANCH  13  14
BRANCH  13  28
ATOM     28  C   UNL     1      -3.634   3.451  -6.520  1.00  0.00     0.327 C 
ATOM     29  O   UNL     1      -3.412   2.466  -7.207  1.00  0.00    -0.250 OA
BRANCH  28  30
ATOM     30  O   UNL     1      -4.656   4.278  -6.821  1.00  0.00    -0.480 OA
ATOM     31  H   UNL     1      -5.446   3.697  -6.813  1.00  0.00     0.296 HD
ENDBRANCH  28  30
ENDBRANCH  13  28
ENDBRANCH  11  13
ENDBRANCH   8  11
ENDBRANCH   6   7
BRANCH   6  32
ATOM     32  C   UNL     1      -2.463   3.601   0.445  1.00  0.00     0.037 C 
BRANCH  32  33
ATOM     33  C   UNL     1      -2.731   5.063   0.830  1.00  0.00     0.026 C 
BRANCH  33  34
ATOM     34  C   UNL     1      -4.223   5.397   0.854  1.00  0.00     0.146 C 
BRANCH  34  35
ATOM     35  N   UNL     1      -4.688   5.370   2.234  1.00  0.00    -0.254 NA
ATOM     36  C   UNL     1      -5.864   5.807   2.494  1.00  0.00     0.185 C 
ATOM     37  N   UNL     1      -6.305   5.781   3.762  1.00  0.00    -0.370 N 
ATOM     38  N   UNL     1      -6.782   6.316   1.653  1.00  0.00    -0.370 N 
ATOM     39  H   UNL     1      -5.673   5.401   4.455  1.00  0.00     0.159 HD
ATOM     40  H   UNL     1      -7.263   5.940   4.020  1.00  0.00     0.159 HD
ATOM     41  H   UNL     1      -7.619   6.755   2.000  1.00  0.00     0.159 HD
ATOM     42  H   UNL     1      -6.580   6.410   0.670  1.00  0.00     0.159 HD
ENDBRANCH  34  35
ENDBRANCH  33  34
ENDBRANCH  32  33
ENDBRANCH   6  32
ENDBRANCH   4   6
ENDBRANCH   1   2
BRANCH   1  43
ATOM     43  C   UNL     1       1.918   2.767   2.595  1.00  0.00     0.102 C 
ATOM     44  C   UNL     1       3.126   2.125   3.297  1.00  0.00     0.020 C 
BRANCH  43  45
ATOM     45  C   UNL     1       0.597   2.602   3.353  1.00  0.00     0.225 C 
ATOM     46  O   UNL     1      -0.216   1.717   3.099  1.00  0.00    -0.275 OA
ATOM     47  N   UNL     1       0.326   3.573   4.289  1.00  0.00    -0.342 N 
ATOM     48  H   UNL     1       1.061   4.196   4.591  1.00  0.00     0.164 HD
BRANCH  47  49
ATOM     49  C   UNL     1      -0.884   3.523   5.116  1.00  0.00     0.192 C 
BRANCH  49  50
ATOM     50  C   UNL     1      -2.061   4.122   4.342  1.00  0.00     0.047 C 
BRANCH  50  51
ATOM     51  C   UNL     1      -3.374   4.051   5.132  1.00  0.00     0.103 C 
BRANCH  51  52
ATOM     52  C   UNL     1      -4.168   2.786   4.813  1.00  0.00     0.226 C 
ATOM     53  O   UNL     1      -3.651   1.896   4.134  1.00  0.00    -0.275 OA
BRANCH  52  54
ATOM     54  N   UNL     1      -5.446   2.684   5.393  1.00  0.00    -0.311 N 
ATOM     55  C   UNL     1      -6.565   2.082   4.656  1.00  0.00     0.153 C 
BRANCH  54  56
ATOM     56  C   UNL     1      -5.698   3.148   6.695  1.00  0.00     0.102 C 
ATOM     57  C   UNL     1      -6.444   4.224   6.996  1.00  0.00     0.043 C 
BRANCH  56  58
ATOM     58  C   UNL     1      -5.161   2.410   7.898  1.00  0.00     0.268 C 
ATOM     59  O   UNL     1      -4.013   2.534   8.303  1.00  0.00    -0.268 OA
ATOM     60  N   UNL     1      -6.110   1.638   8.526  1.00  0.00    -0.339 N 
ATOM     61  H   UNL     1      -7.036   1.580   8.121  1.00  0.00     0.164 HD
BRANCH  60  62
ATOM     62  C   UNL     1      -5.820   0.888   9.748  1.00  0.00     0.168 CG0
ATOM     63  C   UNL     1      -5.370  -0.531   9.424  1.00  0.00     0.041 C 
ATOM     64  G   UNL     1      -7.069   0.873  10.653  1.00  0.00     0.000 G0
ENDBRANCH  60  62
ENDBRANCH  56  58
ENDBRANCH  54  56
ENDBRANCH  52  54
ENDBRANCH  51  52
ENDBRANCH  50  51
ENDBRANCH  49  50
BRANCH  49  65
ATOM     65  C   UNL     1      -0.700   4.289   6.436  1.00  0.00     0.326 C 
ATOM     66  O   UNL     1      -1.072   3.908   7.536  1.00  0.00    -0.250 OA
BRANCH  65  67
ATOM     67  O   UNL     1      -0.123   5.504   6.307  1.00  0.00    -0.480 OA
ATOM     68  H   UNL     1      -0.808   6.038   5.851  1.00  0.00     0.296 HD
ENDBRANCH  65  67
ENDBRANCH  49  65
ENDBRANCH  47  49
ENDBRANCH  43  45
ENDBRANCH   1  43
BRANCH   1  69
ATOM     69  C   UNL     1       2.939   2.531   0.164  1.00  0.00    -0.001 C 
ATOM     70  C   UNL     1       3.732   3.612   0.057  1.00  0.00     0.001 C 
BRANCH  70  71
ATOM     71  C   UNL     1       4.875   3.778  -0.842  1.00  0.00    -0.055 C 
ATOM     72  C   UNL     1       5.110   2.804  -1.746  1.00  0.00    -0.018 C 
ATOM     73  C   UNL     1       5.704   5.029  -0.701  1.00  0.00     0.044 C 
BRANCH  72  74
ATOM     74  C   UNL     1       6.208   2.709  -2.796  1.00  0.00     0.038 C 
ATOM     75  C   UNL     1       7.545   2.639  -2.048  1.00  0.00     0.015 C 
BRANCH  74  76
ATOM     76  C   UNL     1       6.070   3.911  -3.776  1.00  0.00     0.128 C 
BRANCH  76  77
ATOM     77  O   UNL     1       7.124   3.872  -4.752  1.00  0.00    -0.381 OA
ATOM     78  C   UNL     1       6.799   3.121  -5.914  1.00  0.00     0.195 C 
ENDBRANCH  76  77
BRANCH  76  79
ATOM     79  C   UNL     1       4.665   4.043  -4.416  1.00  0.00     0.068 C 
BRANCH  79  80
ATOM     80  C   UNL     1       4.137   5.432  -4.683  1.00  0.00    -0.045 A 
ATOM     81  C   UNL     1       4.630   6.199  -5.747  1.00  0.00     0.004 A 
ATOM     82  C   UNL     1       3.158   5.990  -3.847  1.00  0.00     0.004 A 
ATOM     83  C   UNL     1       4.147   7.489  -5.979  1.00  0.00     0.000 A 
ATOM     84  C   UNL     1       2.677   7.280  -4.079  1.00  0.00     0.000 A 
ATOM     85  C   UNL     1       3.170   8.028  -5.146  1.00  0.00     0.000 A 
ENDBRANCH  79  80
ENDBRANCH  76  79
ENDBRANCH  74  76
ENDBRANCH  72  74
ENDBRANCH  70  71
ENDBRANCH   1  69
TORSDOF 17
ENDMDL
MODEL 13
REMARK VINA RESULT:    -6.502      2.144      3.550
REMARK INTER + INTRA:         -26.224
REMARK INTER:                 -20.064
REMARK INTRA:                  -6.159
REMARK UNBOUND:                -6.799
REMARK SMILES C=C1C(=O)N[C@H](C)C(=O)N[C@@H](CC(C)C)C(=O)N[C@@H](C(=O)O)[C@H](C)C(=O)N[C@@H](CCCN=C(N)N)C(=O)N[C@@H](/C=C/C(C)=C/[C@H](C)[C@H](Cc2ccccc2)OC)[C@H](C)C(=O)N[C@@H](C(=O)O)CCC(=O)N1C
REMARK SMILES IDX 39 1 38 2 37 3 36 4 28 6 27 7 25 8 26 9 23 11 24 12 19 13
REMARK SMILES IDX 18 14 16 15 17 16 11 18 10 19 8 20 9 21 12 24 13 25 14 26
REMARK SMILES IDX 15 27 20 28 21 29 22 30 29 32 30 33 31 34 32 35 33 36 34 37
REMARK SMILES IDX 35 38 57 43 58 44 59 45 60 46 61 47 62 49 66 50 67 51 68 52
REMARK SMILES IDX 69 53 70 54 71 55 2 56 1 57 3 58 4 59 5 60 6 62 7 63 63 65
REMARK SMILES IDX 64 66 65 67 40 69 41 70 42 71 44 72 43 73 45 74 46 75 47 76
REMARK SMILES IDX 55 77 56 78 48 79 49 80 50 81 54 82 51 83 53 84 52 85
REMARK H PARENT 38 5 27 10 18 17 10 22 22 31 34 39 34 40 35 41 35 42 61 48
REMARK H PARENT 5 61 65 68
REMARK Flexibility Score:  369.900
ROOT
ATOM      1  C   UNL     1     -13.105   2.610  -9.218  1.00  0.00     0.117 C 
ENDROOT
BRANCH   1   2
ATOM      2  N   UNL     1     -11.996   2.051  -8.444  1.00  0.00    -0.347 N 
ATOM      3  O   UNL     1     -11.297   0.494  -9.980  1.00  0.00    -0.273 OA
ATOM      4  C   UNL     1     -11.121   1.097  -8.926  1.00  0.00     0.243 C 
ATOM      5  H   UNL     1     -11.811   2.405  -7.518  1.00  0.00     0.164 HD
BRANCH   4   6
ATOM      6  C   UNL     1      -9.983   0.738  -7.937  1.00  0.00     0.171 C 
BRANCH   6   7
ATOM      7  N   UNL     1      -8.883   0.060  -8.642  1.00  0.00    -0.344 N 
ATOM      8  C   UNL     1      -8.225  -1.002  -8.060  1.00  0.00     0.226 C 
ATOM      9  O   UNL     1      -8.499  -1.415  -6.939  1.00  0.00    -0.275 OA
ATOM     10  H   UNL     1      -8.584   0.415  -9.541  1.00  0.00     0.164 HD
BRANCH   8  11
ATOM     11  C   UNL     1      -7.153  -1.629  -8.934  1.00  0.00     0.109 C 
ATOM     12  C   UNL     1      -6.330  -0.538  -9.619  1.00  0.00     0.021 C 
BRANCH  11  13
ATOM     13  C   UNL     1      -6.332  -2.639  -8.109  1.00  0.00     0.204 C 
BRANCH  13  14
ATOM     14  N   UNL     1      -7.154  -3.751  -7.620  1.00  0.00    -0.340 N 
ATOM     15  C   UNL     1      -6.955  -4.346  -6.394  1.00  0.00     0.243 C 
ATOM     16  O   UNL     1      -6.110  -3.947  -5.595  1.00  0.00    -0.273 OA
ATOM     17  H   UNL     1      -7.767  -4.225  -8.289  1.00  0.00     0.164 HD
BRANCH  15  18
ATOM     18  C   UNL     1      -7.801  -5.626  -6.183  1.00  0.00     0.171 C 
BRANCH  18  19
ATOM     19  N   UNL     1      -7.461  -6.139  -4.858  1.00  0.00    -0.343 N 
ATOM     20  C   UNL     1      -7.046  -7.443  -4.666  1.00  0.00     0.242 CG0
ATOM     21  O   UNL     1      -7.071  -8.267  -5.577  1.00  0.00    -0.273 OA
ATOM     22  H   UNL     1      -7.535  -5.527  -4.053  1.00  0.00     0.164 HD
ATOM     23  G   UNL     1      -6.655  -7.779  -3.212  1.00  0.00     0.000 G0
ENDBRANCH  18  19
BRANCH  18  24
ATOM     24  C   UNL     1      -9.298  -5.310  -6.296  1.00  0.00     0.038 C 
BRANCH  24  25
ATOM     25  C   UNL     1     -10.077  -6.219  -7.270  1.00  0.00    -0.015 C 
ATOM     26  C   UNL     1     -10.358  -7.602  -6.682  1.00  0.00     0.007 C 
ATOM     27  C   UNL     1      -9.292  -6.365  -8.577  1.00  0.00     0.007 C 
ENDBRANCH  24  25
ENDBRANCH  18  24
ENDBRANCH  15  18
ENDBRANCH  13  14
BRANCH  13  28
ATOM     28  C   UNL     1      -5.164  -3.248  -8.890  1.00  0.00     0.327 C 
ATOM     29  O   UNL     1      -5.162  -3.544 -10.075  1.00  0.00    -0.250 OA
BRANCH  28  30
ATOM     30  O   UNL     1      -4.110  -3.559  -8.108  1.00  0.00    -0.480 OA
ATOM     31  H   UNL     1      -4.481  -3.586  -7.202  1.00  0.00     0.296 HD
ENDBRANCH  28  30
ENDBRANCH  13  28
ENDBRANCH  11  13
ENDBRANCH   8  11
ENDBRANCH   6   7
BRANCH   6  32
ATOM     32  C   UNL     1      -9.488   2.018  -7.254  1.00  0.00     0.037 C 
BRANCH  32  33
ATOM     33  C   UNL     1      -8.433   2.752  -8.094  1.00  0.00     0.026 C 
BRANCH  33  34
ATOM     34  C   UNL     1      -8.056   4.110  -7.501  1.00  0.00     0.146 C 
BRANCH  34  35
ATOM     35  N   UNL     1      -9.058   5.090  -7.896  1.00  0.00    -0.254 NA
ATOM     36  C   UNL     1      -8.682   6.124  -8.552  1.00  0.00     0.185 C 
ATOM     37  N   UNL     1      -9.598   7.031  -8.926  1.00  0.00    -0.370 N 
ATOM     38  N   UNL     1      -7.444   6.467  -8.952  1.00  0.00    -0.370 N 
ATOM     39  H   UNL     1     -10.558   6.838  -8.670  1.00  0.00     0.159 HD
ATOM     40  H   UNL     1      -9.414   7.769  -9.583  1.00  0.00     0.159 HD
ATOM     41  H   UNL     1      -7.256   7.376  -9.341  1.00  0.00     0.159 HD
ATOM     42  H   UNL     1      -6.653   5.884  -8.726  1.00  0.00     0.159 HD
ENDBRANCH  34  35
ENDBRANCH  33  34
ENDBRANCH  32  33
ENDBRANCH   6  32
ENDBRANCH   4   6
ENDBRANCH   1   2
BRANCH   1  43
ATOM     43  C   UNL     1     -12.814   4.115  -9.484  1.00  0.00     0.102 C 
ATOM     44  C   UNL     1     -13.149   5.024  -8.289  1.00  0.00     0.020 C 
BRANCH  43  45
ATOM     45  C   UNL     1     -13.440   4.571 -10.805  1.00  0.00     0.225 C 
ATOM     46  O   UNL     1     -12.777   4.976 -11.757  1.00  0.00    -0.275 OA
ATOM     47  N   UNL     1     -14.815   4.590 -10.834  1.00  0.00    -0.342 N 
ATOM     48  H   UNL     1     -15.337   4.117 -10.110  1.00  0.00     0.164 HD
BRANCH  47  49
ATOM     49  C   UNL     1     -15.551   4.970 -12.044  1.00  0.00     0.192 C 
BRANCH  49  50
ATOM     50  C   UNL     1     -16.798   5.770 -11.658  1.00  0.00     0.047 C 
BRANCH  50  51
ATOM     51  C   UNL     1     -16.730   7.224 -12.143  1.00  0.00     0.103 C 
BRANCH  51  52
ATOM     52  C   UNL     1     -15.403   7.889 -11.781  1.00  0.00     0.226 C 
ATOM     53  O   UNL     1     -14.992   7.837 -10.620  1.00  0.00    -0.275 OA
BRANCH  52  54
ATOM     54  N   UNL     1     -14.681   8.467 -12.841  1.00  0.00    -0.311 N 
ATOM     55  C   UNL     1     -13.279   8.104 -13.088  1.00  0.00     0.153 C 
BRANCH  54  56
ATOM     56  C   UNL     1     -15.273   9.405 -13.704  1.00  0.00     0.102 C 
ATOM     57  C   UNL     1     -15.692   9.143 -14.953  1.00  0.00     0.043 C 
BRANCH  56  58
ATOM     58  C   UNL     1     -15.529  10.822 -13.249  1.00  0.00     0.268 C 
ATOM     59  O   UNL     1     -16.407  11.121 -12.451  1.00  0.00    -0.268 OA
ATOM     60  N   UNL     1     -14.637  11.727 -13.772  1.00  0.00    -0.339 N 
ATOM     61  H   UNL     1     -13.945  11.401 -14.436  1.00  0.00     0.164 HD
BRANCH  60  62
ATOM     62  C   UNL     1     -14.665  13.145 -13.415  1.00  0.00     0.168 CG0
ATOM     63  C   UNL     1     -15.326  13.972 -14.510  1.00  0.00     0.041 C 
ATOM     64  G   UNL     1     -13.228  13.640 -13.149  1.00  0.00     0.000 G0
ENDBRANCH  60  62
ENDBRANCH  56  58
ENDBRANCH  54  56
ENDBRANCH  52  54
ENDBRANCH  51  52
ENDBRANCH  50  51
ENDBRANCH  49  50
BRANCH  49  65
ATOM     65  C   UNL     1     -15.970   3.739 -12.863  1.00  0.00     0.326 C 
ATOM     66  O   UNL     1     -16.162   2.618 -12.414  1.00  0.00    -0.250 OA
BRANCH  65  67
ATOM     67  O   UNL     1     -16.066   3.953 -14.194  1.00  0.00    -0.480 OA
ATOM     68  H   UNL     1     -15.564   3.206 -14.585  1.00  0.00     0.296 HD
ENDBRANCH  65  67
ENDBRANCH  49  65
ENDBRANCH  47  49
ENDBRANCH  43  45
ENDBRANCH   1  43
BRANCH   1  69
ATOM     69  C   UNL     1     -14.374   2.228  -8.477  1.00  0.00    -0.001 C 
ATOM     70  C   UNL     1     -15.062   1.077  -8.575  1.00  0.00     0.001 C 
BRANCH  70  71
ATOM     71  C   UNL     1     -16.273   0.711  -7.839  1.00  0.00    -0.055 C 
ATOM     72  C   UNL     1     -17.404   1.396  -8.111  1.00  0.00    -0.018 C 
ATOM     73  C   UNL     1     -16.174  -0.409  -6.836  1.00  0.00     0.044 C 
BRANCH  72  74
ATOM     74  C   UNL     1     -18.794   1.236  -7.513  1.00  0.00     0.038 C 
ATOM     75  C   UNL     1     -19.795   1.282  -8.674  1.00  0.00     0.015 C 
BRANCH  74  76
ATOM     76  C   UNL     1     -19.002   2.333  -6.428  1.00  0.00     0.128 C 
BRANCH  76  77
ATOM     77  O   UNL     1     -19.594   1.755  -5.252  1.00  0.00    -0.381 OA
ATOM     78  C   UNL     1     -18.694   0.962  -4.491  1.00  0.00     0.195 C 
ENDBRANCH  76  77
BRANCH  76  79
ATOM     79  C   UNL     1     -17.729   3.158  -6.114  1.00  0.00     0.068 C 
BRANCH  79  80
ATOM     80  C   UNL     1     -17.730   4.625  -6.471  1.00  0.00    -0.045 A 
ATOM     81  C   UNL     1     -18.318   5.573  -5.623  1.00  0.00     0.004 A 
ATOM     82  C   UNL     1     -17.164   5.059  -7.679  1.00  0.00     0.004 A 
ATOM     83  C   UNL     1     -18.327   6.926  -5.967  1.00  0.00     0.000 A 
ATOM     84  C   UNL     1     -17.175   6.413  -8.022  1.00  0.00     0.000 A 
ATOM     85  C   UNL     1     -17.755   7.346  -7.165  1.00  0.00     0.000 A 
ENDBRANCH  79  80
ENDBRANCH  76  79
ENDBRANCH  74  76
ENDBRANCH  72  74
ENDBRANCH  70  71
ENDBRANCH   1  69
TORSDOF 17
ENDMDL
MODEL 14
REMARK VINA RESULT:    -6.461      5.166     12.153
REMARK INTER + INTRA:         -26.103
REMARK INTER:                 -19.061
REMARK INTRA:                  -7.043
REMARK UNBOUND:                -6.799
REMARK SMILES C=C1C(=O)N[C@H](C)C(=O)N[C@@H](CC(C)C)C(=O)N[C@@H](C(=O)O)[C@H](C)C(=O)N[C@@H](CCCN=C(N)N)C(=O)N[C@@H](/C=C/C(C)=C/[C@H](C)[C@H](Cc2ccccc2)OC)[C@H](C)C(=O)N[C@@H](C(=O)O)CCC(=O)N1C
REMARK SMILES IDX 39 1 38 2 37 3 36 4 28 6 27 7 25 8 26 9 23 11 24 12 19 13
REMARK SMILES IDX 18 14 16 15 17 16 11 18 10 19 8 20 9 21 12 24 13 25 14 26
REMARK SMILES IDX 15 27 20 28 21 29 22 30 29 32 30 33 31 34 32 35 33 36 34 37
REMARK SMILES IDX 35 38 57 43 58 44 59 45 60 46 61 47 62 49 66 50 67 51 68 52
REMARK SMILES IDX 69 53 70 54 71 55 2 56 1 57 3 58 4 59 5 60 6 62 7 63 63 65
REMARK SMILES IDX 64 66 65 67 40 69 41 70 42 71 44 72 43 73 45 74 46 75 47 76
REMARK SMILES IDX 55 77 56 78 48 79 49 80 50 81 54 82 51 83 53 84 52 85
REMARK H PARENT 38 5 27 10 18 17 10 22 22 31 34 39 34 40 35 41 35 42 61 48
REMARK H PARENT 5 61 65 68
REMARK Flexibility Score:  369.900
ROOT
ATOM      1  C   UNL     1      -6.014  -3.170  -7.596  1.00  0.00     0.117 C 
ENDROOT
BRANCH   1   2
ATOM      2  N   UNL     1      -6.792  -4.263  -7.011  1.00  0.00    -0.347 N 
ATOM      3  O   UNL     1      -8.457  -2.993  -6.071  1.00  0.00    -0.273 OA
ATOM      4  C   UNL     1      -8.005  -4.092  -6.371  1.00  0.00     0.243 C 
ATOM      5  H   UNL     1      -6.466  -5.212  -7.113  1.00  0.00     0.164 HD
BRANCH   4   6
ATOM      6  C   UNL     1      -8.663  -5.421  -5.920  1.00  0.00     0.171 C 
BRANCH   6   7
ATOM      7  N   UNL     1      -7.950  -5.981  -4.761  1.00  0.00    -0.344 N 
ATOM      8  C   UNL     1      -7.179  -7.115  -4.892  1.00  0.00     0.226 C 
ATOM      9  O   UNL     1      -7.066  -7.719  -5.952  1.00  0.00    -0.275 OA
ATOM     10  H   UNL     1      -8.072  -5.549  -3.854  1.00  0.00     0.164 HD
BRANCH   8  11
ATOM     11  C   UNL     1      -6.464  -7.536  -3.620  1.00  0.00     0.109 C 
ATOM     12  C   UNL     1      -7.467  -7.681  -2.476  1.00  0.00     0.021 C 
BRANCH  11  13
ATOM     13  C   UNL     1      -5.606  -8.788  -3.893  1.00  0.00     0.204 C 
BRANCH  13  14
ATOM     14  N   UNL     1      -4.173  -8.518  -3.746  1.00  0.00    -0.340 N 
ATOM     15  C   UNL     1      -3.362  -8.181  -4.809  1.00  0.00     0.243 C 
ATOM     16  O   UNL     1      -3.798  -8.025  -5.948  1.00  0.00    -0.273 OA
ATOM     17  H   UNL     1      -3.723  -8.776  -2.864  1.00  0.00     0.164 HD
BRANCH  15  18
ATOM     18  C   UNL     1      -1.856  -8.148  -4.452  1.00  0.00     0.171 C 
BRANCH  18  19
ATOM     19  N   UNL     1      -1.237  -9.278  -5.141  1.00  0.00    -0.343 N 
ATOM     20  C   UNL     1      -1.439 -10.582  -4.730  1.00  0.00     0.242 CG0
ATOM     21  O   UNL     1      -2.038 -10.843  -3.690  1.00  0.00    -0.273 OA
ATOM     22  H   UNL     1      -0.638  -9.106  -5.940  1.00  0.00     0.164 HD
ATOM     23  G   UNL     1      -0.769 -11.643  -5.628  1.00  0.00     0.000 G0
ENDBRANCH  18  19
BRANCH  18  24
ATOM     24  C   UNL     1      -1.227  -6.816  -4.880  1.00  0.00     0.038 C 
BRANCH  24  25
ATOM     25  C   UNL     1      -0.459  -6.078  -3.763  1.00  0.00    -0.015 C 
ATOM     26  C   UNL     1       0.515  -6.992  -3.020  1.00  0.00     0.007 C 
ATOM     27  C   UNL     1      -1.453  -5.469  -2.770  1.00  0.00     0.007 C 
ENDBRANCH  24  25
ENDBRANCH  18  24
ENDBRANCH  15  18
ENDBRANCH  13  14
BRANCH  13  28
ATOM     28  C   UNL     1      -5.943  -9.963  -2.970  1.00  0.00     0.327 C 
ATOM     29  O   UNL     1      -6.868 -10.749  -3.109  1.00  0.00    -0.250 OA
BRANCH  28  30
ATOM     30  O   UNL     1      -5.170 -10.007  -1.866  1.00  0.00    -0.480 OA
ATOM     31  H   UNL     1      -5.190  -9.089  -1.521  1.00  0.00     0.296 HD
ENDBRANCH  28  30
ENDBRANCH  13  28
ENDBRANCH  11  13
ENDBRANCH   8  11
ENDBRANCH   6   7
BRANCH   6  32
ATOM     32  C   UNL     1     -10.136  -5.163  -5.583  1.00  0.00     0.037 C 
BRANCH  32  33
ATOM     33  C   UNL     1     -10.351  -4.899  -4.087  1.00  0.00     0.026 C 
BRANCH  33  34
ATOM     34  C   UNL     1     -11.554  -3.994  -3.819  1.00  0.00     0.146 C 
BRANCH  34  35
ATOM     35  N   UNL     1     -11.200  -3.037  -2.780  1.00  0.00    -0.254 NA
ATOM     36  C   UNL     1     -10.832  -1.861  -3.128  1.00  0.00     0.185 C 
ATOM     37  N   UNL     1     -10.508  -0.969  -2.178  1.00  0.00    -0.370 N 
ATOM     38  N   UNL     1     -10.710  -1.344  -4.364  1.00  0.00    -0.370 N 
ATOM     39  H   UNL     1     -10.584  -1.280  -1.218  1.00  0.00     0.159 HD
ATOM     40  H   UNL     1     -10.380   0.012  -2.357  1.00  0.00     0.159 HD
ATOM     41  H   UNL     1     -10.276  -0.448  -4.513  1.00  0.00     0.159 HD
ATOM     42  H   UNL     1     -10.906  -1.908  -5.176  1.00  0.00     0.159 HD
ENDBRANCH  34  35
ENDBRANCH  33  34
ENDBRANCH  32  33
ENDBRANCH   6  32
ENDBRANCH   4   6
ENDBRANCH   1   2
BRANCH   1  43
ATOM     43  C   UNL     1      -6.554  -2.890  -9.028  1.00  0.00     0.102 C 
ATOM     44  C   UNL     1      -6.317  -4.050 -10.010  1.00  0.00     0.020 C 
BRANCH  43  45
ATOM     45  C   UNL     1      -6.068  -1.531  -9.543  1.00  0.00     0.225 C 
ATOM     46  O   UNL     1      -4.976  -1.369 -10.079  1.00  0.00    -0.275 OA
ATOM     47  N   UNL     1      -6.901  -0.467  -9.282  1.00  0.00    -0.342 N 
ATOM     48  H   UNL     1      -7.850  -0.636  -8.982  1.00  0.00     0.164 HD
BRANCH  47  49
ATOM     49  C   UNL     1      -6.582   0.887  -9.746  1.00  0.00     0.192 C 
BRANCH  49  50
ATOM     50  C   UNL     1      -7.235   1.915  -8.820  1.00  0.00     0.047 C 
BRANCH  50  51
ATOM     51  C   UNL     1      -8.251   1.275  -7.864  1.00  0.00     0.103 C 
BRANCH  51  52
ATOM     52  C   UNL     1      -9.671   1.318  -8.424  1.00  0.00     0.226 C 
ATOM     53  O   UNL     1      -9.994   0.543  -9.327  1.00  0.00    -0.275 OA
BRANCH  52  54
ATOM     54  N   UNL     1     -10.564   2.211  -7.804  1.00  0.00    -0.311 N 
ATOM     55  C   UNL     1     -10.078   3.245  -6.879  1.00  0.00     0.153 C 
BRANCH  54  56
ATOM     56  C   UNL     1     -11.946   2.154  -8.048  1.00  0.00     0.102 C 
ATOM     57  C   UNL     1     -12.819   1.406  -7.354  1.00  0.00     0.043 C 
BRANCH  56  58
ATOM     58  C   UNL     1     -12.578   3.001  -9.127  1.00  0.00     0.268 C 
ATOM     59  O   UNL     1     -12.696   2.631 -10.287  1.00  0.00    -0.268 OA
ATOM     60  N   UNL     1     -13.065   4.198  -8.658  1.00  0.00    -0.339 N 
ATOM     61  H   UNL     1     -12.918   4.436  -7.684  1.00  0.00     0.164 HD
BRANCH  60  62
ATOM     62  C   UNL     1     -13.771   5.144  -9.521  1.00  0.00     0.168 CG0
ATOM     63  C   UNL     1     -12.819   6.200 -10.069  1.00  0.00     0.041 C 
ATOM     64  G   UNL     1     -14.922   5.803  -8.733  1.00  0.00     0.000 G0
ENDBRANCH  60  62
ENDBRANCH  56  58
ENDBRANCH  54  56
ENDBRANCH  52  54
ENDBRANCH  51  52
ENDBRANCH  50  51
ENDBRANCH  49  50
BRANCH  49  65
ATOM     65  C   UNL     1      -7.064   1.120 -11.186  1.00  0.00     0.326 C 
ATOM     66  O   UNL     1      -7.379   0.246 -11.981  1.00  0.00    -0.250 OA
BRANCH  65  67
ATOM     67  O   UNL     1      -7.070   2.414 -11.576  1.00  0.00    -0.480 OA
ATOM     68  H   UNL     1      -7.829   2.465 -12.197  1.00  0.00     0.296 HD
ENDBRANCH  65  67
ENDBRANCH  49  65
ENDBRANCH  47  49
ENDBRANCH  43  45
ENDBRANCH   1  43
BRANCH   1  69
ATOM     69  C   UNL     1      -4.555  -3.550  -7.424  1.00  0.00    -0.001 C 
ATOM     70  C   UNL     1      -3.511  -2.722  -7.241  1.00  0.00     0.001 C 
BRANCH  70  71
ATOM     71  C   UNL     1      -2.109  -3.101  -7.054  1.00  0.00    -0.055 C 
ATOM     72  C   UNL     1      -1.390  -3.406  -8.155  1.00  0.00    -0.018 C 
ATOM     73  C   UNL     1      -1.567  -3.116  -5.649  1.00  0.00     0.044 C 
BRANCH  72  74
ATOM     74  C   UNL     1       0.069  -3.825  -8.266  1.00  0.00     0.038 C 
ATOM     75  C   UNL     1       0.850  -2.614  -8.788  1.00  0.00     0.015 C 
BRANCH  74  76
ATOM     76  C   UNL     1       0.158  -5.095  -9.162  1.00  0.00     0.128 C 
BRANCH  76  77
ATOM     77  O   UNL     1       1.515  -5.301  -9.589  1.00  0.00    -0.381 OA
ATOM     78  C   UNL     1       1.661  -6.340 -10.548  1.00  0.00     0.195 C 
ENDBRANCH  76  77
BRANCH  76  79
ATOM     79  C   UNL     1      -0.468  -6.361  -8.525  1.00  0.00     0.068 C 
BRANCH  79  80
ATOM     80  C   UNL     1      -1.681  -6.963  -9.192  1.00  0.00    -0.045 A 
ATOM     81  C   UNL     1      -1.558  -8.043 -10.076  1.00  0.00     0.004 A 
ATOM     82  C   UNL     1      -2.957  -6.427  -8.956  1.00  0.00     0.004 A 
ATOM     83  C   UNL     1      -2.684  -8.584 -10.700  1.00  0.00     0.000 A 
ATOM     84  C   UNL     1      -4.082  -6.969  -9.581  1.00  0.00     0.000 A 
ATOM     85  C   UNL     1      -3.945  -8.048 -10.451  1.00  0.00     0.000 A 
ENDBRANCH  79  80
ENDBRANCH  76  79
ENDBRANCH  74  76
ENDBRANCH  72  74
ENDBRANCH  70  71
ENDBRANCH   1  69
TORSDOF 17
ENDMDL
MODEL 15
REMARK VINA RESULT:    -6.458      3.200     12.434
REMARK INTER + INTRA:         -26.093
REMARK INTER:                 -18.622
REMARK INTRA:                  -7.471
REMARK UNBOUND:                -6.799
REMARK SMILES C=C1C(=O)N[C@H](C)C(=O)N[C@@H](CC(C)C)C(=O)N[C@@H](C(=O)O)[C@H](C)C(=O)N[C@@H](CCCN=C(N)N)C(=O)N[C@@H](/C=C/C(C)=C/[C@H](C)[C@H](Cc2ccccc2)OC)[C@H](C)C(=O)N[C@@H](C(=O)O)CCC(=O)N1C
REMARK SMILES IDX 39 1 38 2 37 3 36 4 28 6 27 7 25 8 26 9 23 11 24 12 19 13
REMARK SMILES IDX 18 14 16 15 17 16 11 18 10 19 8 20 9 21 12 24 13 25 14 26
REMARK SMILES IDX 15 27 20 28 21 29 22 30 29 32 30 33 31 34 32 35 33 36 34 37
REMARK SMILES IDX 35 38 57 43 58 44 59 45 60 46 61 47 62 49 66 50 67 51 68 52
REMARK SMILES IDX 69 53 70 54 71 55 2 56 1 57 3 58 4 59 5 60 6 62 7 63 63 65
REMARK SMILES IDX 64 66 65 67 40 69 41 70 42 71 44 72 43 73 45 74 46 75 47 76
REMARK SMILES IDX 55 77 56 78 48 79 49 80 50 81 54 82 51 83 53 84 52 85
REMARK H PARENT 38 5 27 10 18 17 10 22 22 31 34 39 34 40 35 41 35 42 61 48
REMARK H PARENT 5 61 65 68
REMARK Flexibility Score:  369.900
ROOT
ATOM      1  C   UNL     1     -13.015   2.399  -9.062  1.00  0.00     0.117 C 
ENDROOT
BRANCH   1   2
ATOM      2  N   UNL     1     -14.291   2.150  -8.391  1.00  0.00    -0.347 N 
ATOM      3  O   UNL     1     -14.453  -0.093  -8.850  1.00  0.00    -0.273 OA
ATOM      4  C   UNL     1     -14.865   0.900  -8.260  1.00  0.00     0.243 C 
ATOM      5  H   UNL     1     -14.774   2.917  -7.947  1.00  0.00     0.164 HD
BRANCH   4   6
ATOM      6  C   UNL     1     -16.174   0.900  -7.430  1.00  0.00     0.171 C 
BRANCH   6   7
ATOM      7  N   UNL     1     -17.346   0.902  -8.320  1.00  0.00    -0.344 N 
ATOM      8  C   UNL     1     -18.236   1.955  -8.306  1.00  0.00     0.226 C 
ATOM      9  O   UNL     1     -18.114   2.913  -7.553  1.00  0.00    -0.275 OA
ATOM     10  H   UNL     1     -17.518   0.097  -8.908  1.00  0.00     0.164 HD
BRANCH   8  11
ATOM     11  C   UNL     1     -19.362   1.835  -9.319  1.00  0.00     0.109 C 
ATOM     12  C   UNL     1     -20.713   2.004  -8.625  1.00  0.00     0.021 C 
BRANCH  11  13
ATOM     13  C   UNL     1     -19.111   2.802 -10.494  1.00  0.00     0.204 C 
BRANCH  13  14
ATOM     14  N   UNL     1     -18.872   4.174 -10.037  1.00  0.00    -0.340 N 
ATOM     15  C   UNL     1     -19.773   5.198 -10.240  1.00  0.00     0.243 C 
ATOM     16  O   UNL     1     -20.870   5.017 -10.767  1.00  0.00    -0.273 OA
ATOM     17  H   UNL     1     -17.927   4.422  -9.733  1.00  0.00     0.164 HD
BRANCH  15  18
ATOM     18  C   UNL     1     -19.219   6.593  -9.862  1.00  0.00     0.171 C 
BRANCH  18  19
ATOM     19  N   UNL     1     -20.344   7.524  -9.934  1.00  0.00    -0.343 N 
ATOM     20  C   UNL     1     -20.542   8.344 -11.028  1.00  0.00     0.242 CG0
ATOM     21  O   UNL     1     -19.712   8.426 -11.930  1.00  0.00    -0.273 OA
ATOM     22  H   UNL     1     -20.996   7.576  -9.160  1.00  0.00     0.164 HD
ATOM     23  G   UNL     1     -21.824   9.199 -10.959  1.00  0.00     0.000 G0
ENDBRANCH  18  19
BRANCH  18  24
ATOM     24  C   UNL     1     -18.600   6.568  -8.459  1.00  0.00     0.038 C 
BRANCH  24  25
ATOM     25  C   UNL     1     -17.113   6.976  -8.403  1.00  0.00    -0.015 C 
ATOM     26  C   UNL     1     -16.172   5.783  -8.578  1.00  0.00     0.007 C 
ATOM     27  C   UNL     1     -16.820   7.673  -7.072  1.00  0.00     0.007 C 
ENDBRANCH  24  25
ENDBRANCH  18  24
ENDBRANCH  15  18
ENDBRANCH  13  14
BRANCH  13  28
ATOM     28  C   UNL     1     -17.916   2.398 -11.363  1.00  0.00     0.327 C 
ATOM     29  O   UNL     1     -17.945   1.654 -12.331  1.00  0.00    -0.250 OA
BRANCH  28  30
ATOM     30  O   UNL     1     -16.740   2.859 -10.891  1.00  0.00    -0.480 OA
ATOM     31  H   UNL     1     -16.066   2.322 -11.358  1.00  0.00     0.296 HD
ENDBRANCH  28  30
ENDBRANCH  13  28
ENDBRANCH  11  13
ENDBRANCH   8  11
ENDBRANCH   6   7
BRANCH   6  32
ATOM     32  C   UNL     1     -16.187  -0.327  -6.512  1.00  0.00     0.037 C 
BRANCH  32  33
ATOM     33  C   UNL     1     -17.580  -0.597  -5.925  1.00  0.00     0.026 C 
BRANCH  33  34
ATOM     34  C   UNL     1     -17.993   0.454  -4.894  1.00  0.00     0.146 C 
BRANCH  34  35
ATOM     35  N   UNL     1     -18.369  -0.221  -3.659  1.00  0.00    -0.254 NA
ATOM     36  C   UNL     1     -19.402   0.191  -3.024  1.00  0.00     0.185 C 
ATOM     37  N   UNL     1     -19.760  -0.428  -1.888  1.00  0.00    -0.370 N 
ATOM     38  N   UNL     1     -20.236   1.201  -3.330  1.00  0.00    -0.370 N 
ATOM     39  H   UNL     1     -19.186  -1.208  -1.595  1.00  0.00     0.159 HD
ATOM     40  H   UNL     1     -20.644  -0.282  -1.430  1.00  0.00     0.159 HD
ATOM     41  H   UNL     1     -20.934   1.516  -2.677  1.00  0.00     0.159 HD
ATOM     42  H   UNL     1     -20.078   1.764  -4.151  1.00  0.00     0.159 HD
ENDBRANCH  34  35
ENDBRANCH  33  34
ENDBRANCH  32  33
ENDBRANCH   6  32
ENDBRANCH   4   6
ENDBRANCH   1   2
BRANCH   1  43
ATOM     43  C   UNL     1     -11.863   1.945  -8.120  1.00  0.00     0.102 C 
ATOM     44  C   UNL     1     -11.183   3.109  -7.379  1.00  0.00     0.020 C 
BRANCH  43  45
ATOM     45  C   UNL     1     -10.886   1.020  -8.852  1.00  0.00     0.225 C 
ATOM     46  O   UNL     1     -11.117   0.541  -9.958  1.00  0.00    -0.275 OA
ATOM     47  N   UNL     1      -9.756   0.674  -8.146  1.00  0.00    -0.342 N 
ATOM     48  H   UNL     1      -9.510   1.189  -7.313  1.00  0.00     0.164 HD
BRANCH  47  49
ATOM     49  C   UNL     1      -8.717  -0.176  -8.734  1.00  0.00     0.192 C 
BRANCH  49  50
ATOM     50  C   UNL     1      -8.195  -1.154  -7.678  1.00  0.00     0.047 C 
BRANCH  50  51
ATOM     51  C   UNL     1      -7.705  -2.471  -8.296  1.00  0.00     0.103 C 
BRANCH  51  52
ATOM     52  C   UNL     1      -6.373  -2.923  -7.701  1.00  0.00     0.226 C 
ATOM     53  O   UNL     1      -5.483  -2.095  -7.497  1.00  0.00    -0.275 OA
BRANCH  52  54
ATOM     54  N   UNL     1      -6.275  -4.281  -7.345  1.00  0.00    -0.311 N 
ATOM     55  C   UNL     1      -5.871  -4.681  -5.991  1.00  0.00     0.153 C 
BRANCH  54  56
ATOM     56  C   UNL     1      -6.563  -5.302  -8.266  1.00  0.00     0.102 C 
ATOM     57  C   UNL     1      -7.625  -6.122  -8.197  1.00  0.00     0.043 C 
BRANCH  56  58
ATOM     58  C   UNL     1      -5.684  -5.528  -9.474  1.00  0.00     0.268 C 
ATOM     59  O   UNL     1      -5.688  -4.793 -10.452  1.00  0.00    -0.268 OA
ATOM     60  N   UNL     1      -4.837  -6.601  -9.332  1.00  0.00    -0.339 N 
ATOM     61  H   UNL     1      -4.903  -7.167  -8.495  1.00  0.00     0.164 HD
BRANCH  60  62
ATOM     62  C   UNL     1      -3.857  -6.961 -10.357  1.00  0.00     0.168 CG0
ATOM     63  C   UNL     1      -3.695  -8.473 -10.451  1.00  0.00     0.041 C 
ATOM     64  G   UNL     1      -2.507  -6.285 -10.040  1.00  0.00     0.000 G0
ENDBRANCH  60  62
ENDBRANCH  56  58
ENDBRANCH  54  56
ENDBRANCH  52  54
ENDBRANCH  51  52
ENDBRANCH  50  51
ENDBRANCH  49  50
BRANCH  49  65
ATOM     65  C   UNL     1      -7.546   0.656  -9.280  1.00  0.00     0.326 C 
ATOM     66  O   UNL     1      -6.619   1.098  -8.617  1.00  0.00    -0.250 OA
BRANCH  65  67
ATOM     67  O   UNL     1      -7.623   0.941 -10.598  1.00  0.00    -0.480 OA
ATOM     68  H   UNL     1      -8.577   0.834 -10.803  1.00  0.00     0.296 HD
ENDBRANCH  65  67
ENDBRANCH  49  65
ENDBRANCH  47  49
ENDBRANCH  43  45
ENDBRANCH   1  43
BRANCH   1  69
ATOM     69  C   UNL     1     -13.056   3.843  -9.528  1.00  0.00    -0.001 C 
ATOM     70  C   UNL     1     -12.963   4.298 -10.790  1.00  0.00     0.001 C 
BRANCH  70  71
ATOM     71  C   UNL     1     -13.025   5.693 -11.229  1.00  0.00    -0.055 C 
ATOM     72  C   UNL     1     -12.909   6.653 -10.288  1.00  0.00    -0.018 C 
ATOM     73  C   UNL     1     -13.206   5.959 -12.701  1.00  0.00     0.044 C 
BRANCH  72  74
ATOM     74  C   UNL     1     -12.933   8.167 -10.448  1.00  0.00     0.038 C 
ATOM     75  C   UNL     1     -11.505   8.670 -10.204  1.00  0.00     0.015 C 
BRANCH  74  76
ATOM     76  C   UNL     1     -14.006   8.755  -9.485  1.00  0.00     0.128 C 
BRANCH  76  77
ATOM     77  O   UNL     1     -13.390   9.672  -8.564  1.00  0.00    -0.381 OA
ATOM     78  C   UNL     1     -14.097  10.896  -8.419  1.00  0.00     0.195 C 
ENDBRANCH  76  77
BRANCH  76  79
ATOM     79  C   UNL     1     -15.233   9.366 -10.208  1.00  0.00     0.068 C 
BRANCH  79  80
ATOM     80  C   UNL     1     -15.529   8.901 -11.613  1.00  0.00    -0.045 A 
ATOM     81  C   UNL     1     -16.275   7.738 -11.847  1.00  0.00     0.004 A 
ATOM     82  C   UNL     1     -15.033   9.617 -12.714  1.00  0.00     0.004 A 
ATOM     83  C   UNL     1     -16.533   7.307 -13.151  1.00  0.00     0.000 A 
ATOM     84  C   UNL     1     -15.291   9.184 -14.017  1.00  0.00     0.000 A 
ATOM     85  C   UNL     1     -16.041   8.031 -14.235  1.00  0.00     0.000 A 
ENDBRANCH  79  80
ENDBRANCH  76  79
ENDBRANCH  74  76
ENDBRANCH  72  74
ENDBRANCH  70  71
ENDBRANCH   1  69
TORSDOF 17
ENDMDL
MODEL 16
REMARK VINA RESULT:    -6.443     14.621     20.478
REMARK INTER + INTRA:         -26.048
REMARK INTER:                 -20.225
REMARK INTRA:                  -5.823
REMARK UNBOUND:                -6.799
REMARK SMILES C=C1C(=O)N[C@H](C)C(=O)N[C@@H](CC(C)C)C(=O)N[C@@H](C(=O)O)[C@H](C)C(=O)N[C@@H](CCCN=C(N)N)C(=O)N[C@@H](/C=C/C(C)=C/[C@H](C)[C@H](Cc2ccccc2)OC)[C@H](C)C(=O)N[C@@H](C(=O)O)CCC(=O)N1C
REMARK SMILES IDX 39 1 38 2 37 3 36 4 28 6 27 7 25 8 26 9 23 11 24 12 19 13
REMARK SMILES IDX 18 14 16 15 17 16 11 18 10 19 8 20 9 21 12 24 13 25 14 26
REMARK SMILES IDX 15 27 20 28 21 29 22 30 29 32 30 33 31 34 32 35 33 36 34 37
REMARK SMILES IDX 35 38 57 43 58 44 59 45 60 46 61 47 62 49 66 50 67 51 68 52
REMARK SMILES IDX 69 53 70 54 71 55 2 56 1 57 3 58 4 59 5 60 6 62 7 63 63 65
REMARK SMILES IDX 64 66 65 67 40 69 41 70 42 71 44 72 43 73 45 74 46 75 47 76
REMARK SMILES IDX 55 77 56 78 48 79 49 80 50 81 54 82 51 83 53 84 52 85
REMARK H PARENT 38 5 27 10 18 17 10 22 22 31 34 39 34 40 35 41 35 42 61 48
REMARK H PARENT 5 61 65 68
REMARK Flexibility Score:  369.900
ROOT
ATOM      1  C   UNL     1       4.687   3.187  -1.994  1.00  0.00     0.117 C 
ENDROOT
BRANCH   1   2
ATOM      2  N   UNL     1       3.622   3.613  -2.903  1.00  0.00    -0.347 N 
ATOM      3  O   UNL     1       3.642   5.849  -2.380  1.00  0.00    -0.273 OA
ATOM      4  C   UNL     1       3.246   4.930  -3.090  1.00  0.00     0.243 C 
ATOM      5  H   UNL     1       3.153   2.926  -3.473  1.00  0.00     0.164 HD
BRANCH   4   6
ATOM      6  C   UNL     1       2.152   5.118  -4.171  1.00  0.00     0.171 C 
BRANCH   6   7
ATOM      7  N   UNL     1       2.693   5.851  -5.327  1.00  0.00    -0.344 N 
ATOM      8  C   UNL     1       2.365   7.173  -5.536  1.00  0.00     0.226 C 
ATOM      9  O   UNL     1       1.605   7.790  -4.799  1.00  0.00    -0.275 OA
ATOM     10  H   UNL     1       3.271   5.357  -5.995  1.00  0.00     0.164 HD
BRANCH   8  11
ATOM     11  C   UNL     1       3.045   7.803  -6.739  1.00  0.00     0.109 C 
ATOM     12  C   UNL     1       3.935   6.776  -7.438  1.00  0.00     0.021 C 
BRANCH  11  13
ATOM     13  C   UNL     1       1.991   8.471  -7.644  1.00  0.00     0.204 C 
BRANCH  13  14
ATOM     14  N   UNL     1       2.594   9.098  -8.824  1.00  0.00    -0.340 N 
ATOM     15  C   UNL     1       2.138  10.284  -9.358  1.00  0.00     0.243 C 
ATOM     16  O   UNL     1       1.229  10.932  -8.843  1.00  0.00    -0.273 OA
ATOM     17  H   UNL     1       3.246   8.541  -9.384  1.00  0.00     0.164 HD
BRANCH  15  18
ATOM     18  C   UNL     1       2.789  10.642 -10.716  1.00  0.00     0.171 C 
BRANCH  18  19
ATOM     19  N   UNL     1       1.715  10.642 -11.708  1.00  0.00    -0.343 N 
ATOM     20  C   UNL     1       1.158   9.468 -12.178  1.00  0.00     0.242 CG0
ATOM     21  O   UNL     1       1.627   8.371 -11.886  1.00  0.00    -0.273 OA
ATOM     22  H   UNL     1       1.370  11.524 -12.068  1.00  0.00     0.164 HD
ATOM     23  G   UNL     1      -0.015   9.669 -13.160  1.00  0.00     0.000 G0
ENDBRANCH  18  19
BRANCH  18  24
ATOM     24  C   UNL     1       3.483  12.007 -10.640  1.00  0.00     0.038 C 
BRANCH  24  25
ATOM     25  C   UNL     1       4.932  11.965 -10.110  1.00  0.00    -0.015 C 
ATOM     26  C   UNL     1       5.641  10.654 -10.449  1.00  0.00     0.007 C 
ATOM     27  C   UNL     1       4.931  12.173  -8.593  1.00  0.00     0.007 C 
ENDBRANCH  24  25
ENDBRANCH  18  24
ENDBRANCH  15  18
ENDBRANCH  13  14
BRANCH  13  28
ATOM     28  C   UNL     1       0.921   7.496  -8.145  1.00  0.00     0.327 C 
ATOM     29  O   UNL     1      -0.088   7.160  -7.545  1.00  0.00    -0.250 OA
BRANCH  28  30
ATOM     30  O   UNL     1       1.244   6.912  -9.317  1.00  0.00    -0.480 OA
ATOM     31  H   UNL     1       1.155   5.953  -9.141  1.00  0.00     0.296 HD
ENDBRANCH  28  30
ENDBRANCH  13  28
ENDBRANCH  11  13
ENDBRANCH   8  11
ENDBRANCH   6   7
BRANCH   6  32
ATOM     32  C   UNL     1       1.621   3.744  -4.594  1.00  0.00     0.037 C 
BRANCH  32  33
ATOM     33  C   UNL     1       0.098   3.745  -4.784  1.00  0.00     0.026 C 
BRANCH  33  34
ATOM     34  C   UNL     1      -0.325   3.141  -6.124  1.00  0.00     0.146 C 
BRANCH  34  35
ATOM     35  N   UNL     1       0.799   3.212  -7.047  1.00  0.00    -0.254 NA
ATOM     36  C   UNL     1       0.621   3.761  -8.191  1.00  0.00     0.185 C 
ATOM     37  N   UNL     1       1.651   3.836  -9.047  1.00  0.00    -0.370 N 
ATOM     38  N   UNL     1      -0.497   4.307  -8.701  1.00  0.00    -0.370 N 
ATOM     39  H   UNL     1       2.534   3.454  -8.731  1.00  0.00     0.159 HD
ATOM     40  H   UNL     1       1.642   4.398  -9.881  1.00  0.00     0.159 HD
ATOM     41  H   UNL     1      -0.548   4.583  -9.668  1.00  0.00     0.159 HD
ATOM     42  H   UNL     1      -1.355   4.307  -8.172  1.00  0.00     0.159 HD
ENDBRANCH  34  35
ENDBRANCH  33  34
ENDBRANCH  32  33
ENDBRANCH   6  32
ENDBRANCH   4   6
ENDBRANCH   1   2
BRANCH   1  43
ATOM     43  C   UNL     1       5.730   2.365  -2.805  1.00  0.00     0.102 C 
ATOM     44  C   UNL     1       6.663   3.237  -3.663  1.00  0.00     0.020 C 
BRANCH  43  45
ATOM     45  C   UNL     1       5.054   1.230  -3.581  1.00  0.00     0.225 C 
ATOM     46  O   UNL     1       3.900   1.296  -3.996  1.00  0.00    -0.275 OA
ATOM     47  N   UNL     1       5.793   0.077  -3.707  1.00  0.00    -0.342 N 
ATOM     48  H   UNL     1       6.781   0.090  -3.498  1.00  0.00     0.164 HD
BRANCH  47  49
ATOM     49  C   UNL     1       5.288  -1.079  -4.455  1.00  0.00     0.192 C 
BRANCH  49  50
ATOM     50  C   UNL     1       5.406  -2.340  -3.594  1.00  0.00     0.047 C 
BRANCH  50  51
ATOM     51  C   UNL     1       4.592  -3.511  -4.163  1.00  0.00     0.103 C 
BRANCH  51  52
ATOM     52  C   UNL     1       3.474  -3.944  -3.218  1.00  0.00     0.226 C 
ATOM     53  O   UNL     1       2.354  -3.441  -3.326  1.00  0.00    -0.275 OA
BRANCH  52  54
ATOM     54  N   UNL     1       3.785  -4.973  -2.309  1.00  0.00    -0.311 N 
ATOM     55  C   UNL     1       4.002  -6.350  -2.771  1.00  0.00     0.153 C 
BRANCH  54  56
ATOM     56  C   UNL     1       3.905  -4.722  -0.932  1.00  0.00     0.102 C 
ATOM     57  C   UNL     1       5.036  -4.341  -0.316  1.00  0.00     0.043 C 
BRANCH  56  58
ATOM     58  C   UNL     1       2.707  -4.825  -0.018  1.00  0.00     0.268 C 
ATOM     59  O   UNL     1       1.615  -4.344  -0.289  1.00  0.00    -0.268 OA
ATOM     60  N   UNL     1       2.952  -5.566   1.113  1.00  0.00    -0.339 N 
ATOM     61  H   UNL     1       3.887  -5.921   1.269  1.00  0.00     0.164 HD
BRANCH  60  62
ATOM     62  C   UNL     1       1.912  -5.844   2.103  1.00  0.00     0.168 CG0
ATOM     63  C   UNL     1       1.182  -7.142   1.780  1.00  0.00     0.041 C 
ATOM     64  G   UNL     1       0.923  -4.661   2.160  1.00  0.00     0.000 G0
ENDBRANCH  60  62
ENDBRANCH  56  58
ENDBRANCH  54  56
ENDBRANCH  52  54
ENDBRANCH  51  52
ENDBRANCH  50  51
ENDBRANCH  49  50
BRANCH  49  65
ATOM     65  C   UNL     1       6.058  -1.285  -5.768  1.00  0.00     0.326 C 
ATOM     66  O   UNL     1       6.939  -2.112  -5.953  1.00  0.00    -0.250 OA
BRANCH  65  67
ATOM     67  O   UNL     1       5.736  -0.418  -6.753  1.00  0.00    -0.480 OA
ATOM     68  H   UNL     1       6.289  -0.711  -7.509  1.00  0.00     0.296 HD
ENDBRANCH  65  67
ENDBRANCH  49  65
ENDBRANCH  47  49
ENDBRANCH  43  45
ENDBRANCH   1  43
BRANCH   1  69
ATOM     69  C   UNL     1       3.998   2.532  -0.811  1.00  0.00    -0.001 C 
ATOM     70  C   UNL     1       3.657   3.107   0.356  1.00  0.00     0.001 C 
BRANCH  70  71
ATOM     71  C   UNL     1       2.972   2.470   1.483  1.00  0.00    -0.055 C 
ATOM     72  C   UNL     1       1.635   2.311   1.397  1.00  0.00    -0.018 C 
ATOM     73  C   UNL     1       3.810   2.031   2.656  1.00  0.00     0.044 C 
BRANCH  72  74
ATOM     74  C   UNL     1       0.672   1.689   2.398  1.00  0.00     0.038 C 
ATOM     75  C   UNL     1      -0.381   0.917   1.594  1.00  0.00     0.015 C 
BRANCH  74  76
ATOM     76  C   UNL     1       0.102   2.814   3.310  1.00  0.00     0.128 C 
BRANCH  76  77
ATOM     77  O   UNL     1      -1.335   2.792   3.277  1.00  0.00    -0.381 OA
ATOM     78  C   UNL     1      -1.917   4.029   2.887  1.00  0.00     0.195 C 
ENDBRANCH  76  77
BRANCH  76  79
ATOM     79  C   UNL     1       0.669   2.803   4.752  1.00  0.00     0.068 C 
BRANCH  79  80
ATOM     80  C   UNL     1       1.210   4.098   5.309  1.00  0.00    -0.045 A 
ATOM     81  C   UNL     1       2.557   4.447   5.145  1.00  0.00     0.004 A 
ATOM     82  C   UNL     1       0.372   4.963   6.029  1.00  0.00     0.004 A 
ATOM     83  C   UNL     1       3.053   5.639   5.675  1.00  0.00     0.000 A 
ATOM     84  C   UNL     1       0.870   6.155   6.560  1.00  0.00     0.000 A 
ATOM     85  C   UNL     1       2.209   6.494   6.381  1.00  0.00     0.000 A 
ENDBRANCH  79  80
ENDBRANCH  76  79
ENDBRANCH  74  76
ENDBRANCH  72  74
ENDBRANCH  70  71
ENDBRANCH   1  69
TORSDOF 17
ENDMDL
MODEL 17
REMARK VINA RESULT:    -6.434     13.289     18.058
REMARK INTER + INTRA:         -26.020
REMARK INTER:                 -18.361
REMARK INTRA:                  -7.659
REMARK UNBOUND:                -6.799
REMARK SMILES C=C1C(=O)N[C@H](C)C(=O)N[C@@H](CC(C)C)C(=O)N[C@@H](C(=O)O)[C@H](C)C(=O)N[C@@H](CCCN=C(N)N)C(=O)N[C@@H](/C=C/C(C)=C/[C@H](C)[C@H](Cc2ccccc2)OC)[C@H](C)C(=O)N[C@@H](C(=O)O)CCC(=O)N1C
REMARK SMILES IDX 39 1 38 2 37 3 36 4 28 6 27 7 25 8 26 9 23 11 24 12 19 13
REMARK SMILES IDX 18 14 16 15 17 16 11 18 10 19 8 20 9 21 12 24 13 25 14 26
REMARK SMILES IDX 15 27 20 28 21 29 22 30 29 32 30 33 31 34 32 35 33 36 34 37
REMARK SMILES IDX 35 38 57 43 58 44 59 45 60 46 61 47 62 49 66 50 67 51 68 52
REMARK SMILES IDX 69 53 70 54 71 55 2 56 1 57 3 58 4 59 5 60 6 62 7 63 63 65
REMARK SMILES IDX 64 66 65 67 40 69 41 70 42 71 44 72 43 73 45 74 46 75 47 76
REMARK SMILES IDX 55 77 56 78 48 79 49 80 50 81 54 82 51 83 53 84 52 85
REMARK H PARENT 38 5 27 10 18 17 10 22 22 31 34 39 34 40 35 41 35 42 61 48
REMARK H PARENT 5 61 65 68
REMARK Flexibility Score:  369.900
ROOT
ATOM      1  C   UNL     1       2.475   2.754  -1.669  1.00  0.00     0.117 C 
ENDROOT
BRANCH   1   2
ATOM      2  N   UNL     1       1.680   3.025  -0.470  1.00  0.00    -0.347 N 
ATOM      3  O   UNL     1       0.056   1.438  -0.807  1.00  0.00    -0.273 OA
ATOM      4  C   UNL     1       0.581   2.281  -0.087  1.00  0.00     0.243 C 
ATOM      5  H   UNL     1       1.964   3.764   0.155  1.00  0.00     0.164 HD
BRANCH   4   6
ATOM      6  C   UNL     1      -0.028   2.722   1.268  1.00  0.00     0.171 C 
BRANCH   6   7
ATOM      7  N   UNL     1      -1.498   2.664   1.215  1.00  0.00    -0.344 N 
ATOM      8  C   UNL     1      -2.245   3.820   1.147  1.00  0.00     0.226 C 
ATOM      9  O   UNL     1      -1.738   4.935   1.150  1.00  0.00    -0.275 OA
ATOM     10  H   UNL     1      -1.956   1.763   1.278  1.00  0.00     0.164 HD
BRANCH   8  11
ATOM     11  C   UNL     1      -3.743   3.591   1.042  1.00  0.00     0.109 C 
ATOM     12  C   UNL     1      -4.026   2.158   0.592  1.00  0.00     0.021 C 
BRANCH  11  13
ATOM     13  C   UNL     1      -4.426   4.003   2.361  1.00  0.00     0.204 C 
BRANCH  13  14
ATOM     14  N   UNL     1      -3.455   4.263   3.428  1.00  0.00    -0.340 N 
ATOM     15  C   UNL     1      -3.134   3.331   4.391  1.00  0.00     0.243 C 
ATOM     16  O   UNL     1      -3.597   2.191   4.387  1.00  0.00    -0.273 OA
ATOM     17  H   UNL     1      -3.152   5.229   3.578  1.00  0.00     0.164 HD
BRANCH  15  18
ATOM     18  C   UNL     1      -2.249   3.896   5.529  1.00  0.00     0.171 C 
BRANCH  18  19
ATOM     19  N   UNL     1      -2.052   2.809   6.486  1.00  0.00    -0.343 N 
ATOM     20  C   UNL     1      -2.847   2.672   7.607  1.00  0.00     0.242 CG0
ATOM     21  O   UNL     1      -3.668   3.531   7.923  1.00  0.00    -0.273 OA
ATOM     22  H   UNL     1      -1.309   2.137   6.329  1.00  0.00     0.164 HD
ATOM     23  G   UNL     1      -2.541   1.421   8.456  1.00  0.00     0.000 G0
ENDBRANCH  18  19
BRANCH  18  24
ATOM     24  C   UNL     1      -0.913   4.405   4.974  1.00  0.00     0.038 C 
BRANCH  24  25
ATOM     25  C   UNL     1       0.246   4.416   5.992  1.00  0.00    -0.015 C 
ATOM     26  C   UNL     1       0.430   5.781   6.655  1.00  0.00     0.007 C 
ATOM     27  C   UNL     1       1.546   4.001   5.298  1.00  0.00     0.007 C 
ENDBRANCH  24  25
ENDBRANCH  18  24
ENDBRANCH  15  18
ENDBRANCH  13  14
BRANCH  13  28
ATOM     28  C   UNL     1      -5.296   5.257   2.224  1.00  0.00     0.327 C 
ATOM     29  O   UNL     1      -5.403   6.156   3.044  1.00  0.00    -0.250 OA
BRANCH  28  30
ATOM     30  O   UNL     1      -6.068   5.246   1.119  1.00  0.00    -0.480 OA
ATOM     31  H   UNL     1      -5.536   4.757   0.457  1.00  0.00     0.296 HD
ENDBRANCH  28  30
ENDBRANCH  13  28
ENDBRANCH  11  13
ENDBRANCH   8  11
ENDBRANCH   6   7
BRANCH   6  32
ATOM     32  C   UNL     1       0.515   1.820   2.382  1.00  0.00     0.037 C 
BRANCH  32  33
ATOM     33  C   UNL     1      -0.581   0.945   3.005  1.00  0.00     0.026 C 
BRANCH  33  34
ATOM     34  C   UNL     1      -0.045   0.034   4.110  1.00  0.00     0.146 C 
BRANCH  34  35
ATOM     35  N   UNL     1       0.079   0.806   5.338  1.00  0.00    -0.254 NA
ATOM     36  C   UNL     1       0.430   0.202   6.412  1.00  0.00     0.185 C 
ATOM     37  N   UNL     1       0.552   0.906   7.548  1.00  0.00    -0.370 N 
ATOM     38  N   UNL     1       0.714  -1.100   6.594  1.00  0.00    -0.370 N 
ATOM     39  H   UNL     1       0.364   1.898   7.490  1.00  0.00     0.159 HD
ATOM     40  H   UNL     1       0.986   0.546   8.381  1.00  0.00     0.159 HD
ATOM     41  H   UNL     1       0.843  -1.480   7.517  1.00  0.00     0.159 HD
ATOM     42  H   UNL     1       0.648  -1.751   5.827  1.00  0.00     0.159 HD
ENDBRANCH  34  35
ENDBRANCH  33  34
ENDBRANCH  32  33
ENDBRANCH   6  32
ENDBRANCH   4   6
ENDBRANCH   1   2
BRANCH   1  43
ATOM     43  C   UNL     1       3.980   2.922  -1.314  1.00  0.00     0.102 C 
ATOM     44  C   UNL     1       4.233   3.156   0.185  1.00  0.00     0.020 C 
BRANCH  43  45
ATOM     45  C   UNL     1       4.649   3.955  -2.225  1.00  0.00     0.225 C 
ATOM     46  O   UNL     1       4.761   5.141  -1.927  1.00  0.00    -0.275 OA
ATOM     47  N   UNL     1       5.042   3.490  -3.459  1.00  0.00    -0.342 N 
ATOM     48  H   UNL     1       5.083   2.495  -3.629  1.00  0.00     0.164 HD
BRANCH  47  49
ATOM     49  C   UNL     1       5.728   4.357  -4.422  1.00  0.00     0.192 C 
BRANCH  49  50
ATOM     50  C   UNL     1       4.954   4.372  -5.743  1.00  0.00     0.047 C 
BRANCH  50  51
ATOM     51  C   UNL     1       4.479   5.780  -6.124  1.00  0.00     0.103 C 
BRANCH  51  52
ATOM     52  C   UNL     1       3.840   5.815  -7.510  1.00  0.00     0.226 C 
ATOM     53  O   UNL     1       2.812   5.169  -7.724  1.00  0.00    -0.275 OA
BRANCH  52  54
ATOM     54  N   UNL     1       4.441   6.664  -8.457  1.00  0.00    -0.311 N 
ATOM     55  C   UNL     1       5.835   6.463  -8.876  1.00  0.00     0.153 C 
BRANCH  54  56
ATOM     56  C   UNL     1       3.734   7.729  -9.040  1.00  0.00     0.102 C 
ATOM     57  C   UNL     1       2.437   8.000  -8.821  1.00  0.00     0.043 C 
BRANCH  56  58
ATOM     58  C   UNL     1       4.426   8.710  -9.956  1.00  0.00     0.268 C 
ATOM     59  O   UNL     1       4.668   8.473 -11.132  1.00  0.00    -0.268 OA
ATOM     60  N   UNL     1       4.695   9.916  -9.353  1.00  0.00    -0.339 N 
ATOM     61  H   UNL     1       4.473  10.030  -8.371  1.00  0.00     0.164 HD
BRANCH  60  62
ATOM     62  C   UNL     1       5.305  11.030 -10.077  1.00  0.00     0.168 CG0
ATOM     63  C   UNL     1       4.262  12.076 -10.451  1.00  0.00     0.041 C 
ATOM     64  G   UNL     1       6.021  10.499 -11.335  1.00  0.00     0.000 G0
ENDBRANCH  60  62
ENDBRANCH  56  58
ENDBRANCH  54  56
ENDBRANCH  52  54
ENDBRANCH  51  52
ENDBRANCH  50  51
ENDBRANCH  49  50
BRANCH  49  65
ATOM     65  C   UNL     1       7.168   3.888  -4.681  1.00  0.00     0.326 C 
ATOM     66  O   UNL     1       7.941   3.464  -3.834  1.00  0.00    -0.250 OA
BRANCH  65  67
ATOM     67  O   UNL     1       7.586   4.030  -5.958  1.00  0.00    -0.480 OA
ATOM     68  H   UNL     1       8.564   3.990  -5.887  1.00  0.00     0.296 HD
ENDBRANCH  65  67
ENDBRANCH  49  65
ENDBRANCH  47  49
ENDBRANCH  43  45
ENDBRANCH   1  43
BRANCH   1  69
ATOM     69  C   UNL     1       1.882   3.612  -2.772  1.00  0.00    -0.001 C 
ATOM     70  C   UNL     1       1.315   3.193  -3.917  1.00  0.00     0.001 C 
BRANCH  70  71
ATOM     71  C   UNL     1       0.727   4.029  -4.965  1.00  0.00    -0.055 C 
ATOM     72  C   UNL     1       0.643   5.356  -4.736  1.00  0.00    -0.018 C 
ATOM     73  C   UNL     1       0.265   3.351  -6.229  1.00  0.00     0.044 C 
BRANCH  72  74
ATOM     74  C   UNL     1       0.089   6.456  -5.631  1.00  0.00     0.038 C 
ATOM     75  C   UNL     1       1.130   7.582  -5.661  1.00  0.00     0.015 C 
BRANCH  74  76
ATOM     76  C   UNL     1      -1.313   6.876  -5.100  1.00  0.00     0.128 C 
BRANCH  76  77
ATOM     77  O   UNL     1      -1.481   8.298  -5.229  1.00  0.00    -0.381 OA
ATOM     78  C   UNL     1      -2.712   8.675  -5.830  1.00  0.00     0.195 C 
ENDBRANCH  76  77
BRANCH  76  79
ATOM     79  C   UNL     1      -2.486   6.075  -5.719  1.00  0.00     0.068 C 
BRANCH  79  80
ATOM     80  C   UNL     1      -2.899   4.790  -5.044  1.00  0.00    -0.045 A 
ATOM     81  C   UNL     1      -3.423   3.721  -5.784  1.00  0.00     0.004 A 
ATOM     82  C   UNL     1      -2.791   4.656  -3.651  1.00  0.00     0.004 A 
ATOM     83  C   UNL     1      -3.816   2.541  -5.150  1.00  0.00     0.000 A 
ATOM     84  C   UNL     1      -3.185   3.475  -3.018  1.00  0.00     0.000 A 
ATOM     85  C   UNL     1      -3.695   2.418  -3.767  1.00  0.00     0.000 A 
ENDBRANCH  79  80
ENDBRANCH  76  79
ENDBRANCH  74  76
ENDBRANCH  72  74
ENDBRANCH  70  71
ENDBRANCH   1  69
TORSDOF 17
ENDMDL
MODEL 18
REMARK VINA RESULT:    -6.412     13.345     19.260
REMARK INTER + INTRA:         -25.955
REMARK INTER:                 -18.157
REMARK INTRA:                  -7.798
REMARK UNBOUND:                -6.799
REMARK SMILES C=C1C(=O)N[C@H](C)C(=O)N[C@@H](CC(C)C)C(=O)N[C@@H](C(=O)O)[C@H](C)C(=O)N[C@@H](CCCN=C(N)N)C(=O)N[C@@H](/C=C/C(C)=C/[C@H](C)[C@H](Cc2ccccc2)OC)[C@H](C)C(=O)N[C@@H](C(=O)O)CCC(=O)N1C
REMARK SMILES IDX 39 1 38 2 37 3 36 4 28 6 27 7 25 8 26 9 23 11 24 12 19 13
REMARK SMILES IDX 18 14 16 15 17 16 11 18 10 19 8 20 9 21 12 24 13 25 14 26
REMARK SMILES IDX 15 27 20 28 21 29 22 30 29 32 30 33 31 34 32 35 33 36 34 37
REMARK SMILES IDX 35 38 57 43 58 44 59 45 60 46 61 47 62 49 66 50 67 51 68 52
REMARK SMILES IDX 69 53 70 54 71 55 2 56 1 57 3 58 4 59 5 60 6 62 7 63 63 65
REMARK SMILES IDX 64 66 65 67 40 69 41 70 42 71 44 72 43 73 45 74 46 75 47 76
REMARK SMILES IDX 55 77 56 78 48 79 49 80 50 81 54 82 51 83 53 84 52 85
REMARK H PARENT 38 5 27 10 18 17 10 22 22 31 34 39 34 40 35 41 35 42 61 48
REMARK H PARENT 5 61 65 68
REMARK Flexibility Score:  369.900
ROOT
ATOM      1  C   UNL     1       1.794   2.372  -0.649  1.00  0.00     0.117 C 
ENDROOT
BRANCH   1   2
ATOM      2  N   UNL     1       0.597   2.849   0.045  1.00  0.00    -0.347 N 
ATOM      3  O   UNL     1      -0.698   0.975  -0.239  1.00  0.00    -0.273 OA
ATOM      4  C   UNL     1      -0.524   2.075   0.274  1.00  0.00     0.243 C 
ATOM      5  H   UNL     1       0.588   3.781   0.430  1.00  0.00     0.164 HD
BRANCH   4   6
ATOM      6  C   UNL     1      -1.617   2.793   1.107  1.00  0.00     0.171 C 
BRANCH   6   7
ATOM      7  N   UNL     1      -1.208   2.890   2.517  1.00  0.00    -0.344 N 
ATOM      8  C   UNL     1      -1.814   2.113   3.480  1.00  0.00     0.226 C 
ATOM      9  O   UNL     1      -2.723   1.332   3.223  1.00  0.00    -0.275 OA
ATOM     10  H   UNL     1      -0.507   3.572   2.779  1.00  0.00     0.164 HD
BRANCH   8  11
ATOM     11  C   UNL     1      -1.244   2.289   4.876  1.00  0.00     0.109 C 
ATOM     12  C   UNL     1       0.270   2.487   4.805  1.00  0.00     0.021 C 
BRANCH  11  13
ATOM     13  C   UNL     1      -2.009   3.405   5.615  1.00  0.00     0.204 C 
BRANCH  13  14
ATOM     14  N   UNL     1      -3.367   3.584   5.090  1.00  0.00    -0.340 N 
ATOM     15  C   UNL     1      -3.708   4.606   4.232  1.00  0.00     0.243 C 
ATOM     16  O   UNL     1      -2.882   5.406   3.796  1.00  0.00    -0.273 OA
ATOM     17  H   UNL     1      -4.124   3.052   5.527  1.00  0.00     0.164 HD
BRANCH  15  18
ATOM     18  C   UNL     1      -5.232   4.718   3.978  1.00  0.00     0.171 C 
BRANCH  18  19
ATOM     19  N   UNL     1      -5.798   5.410   5.134  1.00  0.00    -0.343 N 
ATOM     20  C   UNL     1      -6.212   4.727   6.262  1.00  0.00     0.242 CG0
ATOM     21  O   UNL     1      -6.247   3.499   6.294  1.00  0.00    -0.273 OA
ATOM     22  H   UNL     1      -5.898   6.419   5.111  1.00  0.00     0.164 HD
ATOM     23  G   UNL     1      -6.709   5.632   7.408  1.00  0.00     0.000 G0
ENDBRANCH  18  19
BRANCH  18  24
ATOM     24  C   UNL     1      -5.509   5.479   2.676  1.00  0.00     0.038 C 
BRANCH  24  25
ATOM     25  C   UNL     1      -6.658   4.899   1.823  1.00  0.00    -0.015 C 
ATOM     26  C   UNL     1      -7.974   5.651   2.025  1.00  0.00     0.007 C 
ATOM     27  C   UNL     1      -6.853   3.419   2.161  1.00  0.00     0.007 C 
ENDBRANCH  24  25
ENDBRANCH  18  24
ENDBRANCH  15  18
ENDBRANCH  13  14
BRANCH  13  28
ATOM     28  C   UNL     1      -2.135   3.155   7.122  1.00  0.00     0.327 C 
ATOM     29  O   UNL     1      -1.273   2.689   7.851  1.00  0.00    -0.250 OA
BRANCH  28  30
ATOM     30  O   UNL     1      -3.373   3.396   7.596  1.00  0.00    -0.480 OA
ATOM     31  H   UNL     1      -3.293   3.256   8.563  1.00  0.00     0.296 HD
ENDBRANCH  28  30
ENDBRANCH  13  28
ENDBRANCH  11  13
ENDBRANCH   8  11
ENDBRANCH   6   7
BRANCH   6  32
ATOM     32  C   UNL     1      -1.870   4.183   0.513  1.00  0.00     0.037 C 
BRANCH  32  33
ATOM     33  C   UNL     1      -3.344   4.392   0.136  1.00  0.00     0.026 C 
BRANCH  33  34
ATOM     34  C   UNL     1      -3.943   3.178  -0.575  1.00  0.00     0.146 C 
BRANCH  34  35
ATOM     35  N   UNL     1      -3.856   3.385  -2.014  1.00  0.00    -0.254 NA
ATOM     36  C   UNL     1      -3.317   2.473  -2.734  1.00  0.00     0.185 C 
ATOM     37  N   UNL     1      -3.236   2.652  -4.062  1.00  0.00    -0.370 N 
ATOM     38  N   UNL     1      -2.789   1.297  -2.352  1.00  0.00    -0.370 N 
ATOM     39  H   UNL     1      -3.622   3.512  -4.429  1.00  0.00     0.159 HD
ATOM     40  H   UNL     1      -2.990   1.920  -4.707  1.00  0.00     0.159 HD
ATOM     41  H   UNL     1      -2.268   0.725  -2.997  1.00  0.00     0.159 HD
ATOM     42  H   UNL     1      -2.767   1.036  -1.378  1.00  0.00     0.159 HD
ENDBRANCH  34  35
ENDBRANCH  33  34
ENDBRANCH  32  33
ENDBRANCH   6  32
ENDBRANCH   4   6
ENDBRANCH   1   2
BRANCH   1  43
ATOM     43  C   UNL     1       2.999   2.450   0.332  1.00  0.00     0.102 C 
ATOM     44  C   UNL     1       2.581   2.562   1.808  1.00  0.00     0.020 C 
BRANCH  43  45
ATOM     45  C   UNL     1       4.003   3.518  -0.113  1.00  0.00     0.225 C 
ATOM     46  O   UNL     1       3.854   4.715   0.116  1.00  0.00    -0.275 OA
ATOM     47  N   UNL     1       5.052   3.063  -0.877  1.00  0.00    -0.342 N 
ATOM     48  H   UNL     1       5.242   2.072  -0.927  1.00  0.00     0.164 HD
BRANCH  47  49
ATOM     49  C   UNL     1       6.109   3.966  -1.344  1.00  0.00     0.192 C 
BRANCH  49  50
ATOM     50  C   UNL     1       6.064   4.065  -2.871  1.00  0.00     0.047 C 
BRANCH  50  51
ATOM     51  C   UNL     1       5.026   3.117  -3.485  1.00  0.00     0.103 C 
BRANCH  51  52
ATOM     52  C   UNL     1       5.671   1.865  -4.076  1.00  0.00     0.226 C 
ATOM     53  O   UNL     1       6.067   0.971  -3.325  1.00  0.00    -0.275 OA
BRANCH  52  54
ATOM     54  N   UNL     1       5.704   1.779  -5.480  1.00  0.00    -0.311 N 
ATOM     55  C   UNL     1       6.468   2.746  -6.279  1.00  0.00     0.153 C 
BRANCH  54  56
ATOM     56  C   UNL     1       5.015   0.767  -6.168  1.00  0.00     0.102 C 
ATOM     57  C   UNL     1       3.786   0.895  -6.694  1.00  0.00     0.043 C 
BRANCH  56  58
ATOM     58  C   UNL     1       5.656  -0.579  -6.412  1.00  0.00     0.268 C 
ATOM     59  O   UNL     1       5.647  -1.484  -5.589  1.00  0.00    -0.268 OA
ATOM     60  N   UNL     1       6.190  -0.702  -7.673  1.00  0.00    -0.339 N 
ATOM     61  H   UNL     1       6.167   0.099  -8.292  1.00  0.00     0.164 HD
BRANCH  60  62
ATOM     62  C   UNL     1       6.804  -1.944  -8.141  1.00  0.00     0.168 CG0
ATOM     63  C   UNL     1       5.844  -2.729  -9.026  1.00  0.00     0.041 C 
ATOM     64  G   UNL     1       7.246  -2.790  -6.929  1.00  0.00     0.000 G0
ENDBRANCH  60  62
ENDBRANCH  56  58
ENDBRANCH  54  56
ENDBRANCH  52  54
ENDBRANCH  51  52
ENDBRANCH  50  51
ENDBRANCH  49  50
BRANCH  49  65
ATOM     65  C   UNL     1       7.501   3.484  -0.906  1.00  0.00     0.326 C 
ATOM     66  O   UNL     1       8.206   4.020  -0.064  1.00  0.00    -0.250 OA
BRANCH  65  67
ATOM     67  O   UNL     1       7.961   2.405  -1.577  1.00  0.00    -0.480 OA
ATOM     68  H   UNL     1       7.833   2.647  -2.519  1.00  0.00     0.296 HD
ENDBRANCH  65  67
ENDBRANCH  49  65
ENDBRANCH  47  49
ENDBRANCH  43  45
ENDBRANCH   1  43
BRANCH   1  69
ATOM     69  C   UNL     1       1.861   3.141  -1.956  1.00  0.00    -0.001 C 
ATOM     70  C   UNL     1       0.974   3.115  -2.966  1.00  0.00     0.001 C 
BRANCH  70  71
ATOM     71  C   UNL     1       1.039   3.879  -4.214  1.00  0.00    -0.055 C 
ATOM     72  C   UNL     1       2.100   4.692  -4.398  1.00  0.00    -0.018 C 
ATOM     73  C   UNL     1      -0.079   3.697  -5.207  1.00  0.00     0.044 C 
BRANCH  72  74
ATOM     74  C   UNL     1       2.432   5.591  -5.580  1.00  0.00     0.038 C 
ATOM     75  C   UNL     1       3.387   4.809  -6.490  1.00  0.00     0.015 C 
BRANCH  74  76
ATOM     76  C   UNL     1       2.998   6.938  -5.042  1.00  0.00     0.128 C 
BRANCH  76  77
ATOM     77  O   UNL     1       4.102   7.367  -5.857  1.00  0.00    -0.381 OA
ATOM     78  C   UNL     1       4.229   8.779  -5.949  1.00  0.00     0.195 C 
ENDBRANCH  76  77
BRANCH  76  79
ATOM     79  C   UNL     1       1.926   8.041  -4.855  1.00  0.00     0.068 C 
BRANCH  79  80
ATOM     80  C   UNL     1       0.682   7.971  -5.708  1.00  0.00    -0.045 A 
ATOM     81  C   UNL     1      -0.512   7.442  -5.200  1.00  0.00     0.004 A 
ATOM     82  C   UNL     1       0.712   8.411  -7.040  1.00  0.00     0.004 A 
ATOM     83  C   UNL     1      -1.654   7.367  -5.999  1.00  0.00     0.000 A 
ATOM     84  C   UNL     1      -0.431   8.335  -7.839  1.00  0.00     0.000 A 
ATOM     85  C   UNL     1      -1.614   7.815  -7.318  1.00  0.00     0.000 A 
ENDBRANCH  79  80
ENDBRANCH  76  79
ENDBRANCH  74  76
ENDBRANCH  72  74
ENDBRANCH  70  71
ENDBRANCH   1  69
TORSDOF 17
ENDMDL
MODEL 19
REMARK VINA RESULT:    -6.410     12.661     18.604
REMARK INTER + INTRA:         -25.950
REMARK INTER:                 -17.198
REMARK INTRA:                  -8.752
REMARK UNBOUND:                -6.799
REMARK SMILES C=C1C(=O)N[C@H](C)C(=O)N[C@@H](CC(C)C)C(=O)N[C@@H](C(=O)O)[C@H](C)C(=O)N[C@@H](CCCN=C(N)N)C(=O)N[C@@H](/C=C/C(C)=C/[C@H](C)[C@H](Cc2ccccc2)OC)[C@H](C)C(=O)N[C@@H](C(=O)O)CCC(=O)N1C
REMARK SMILES IDX 39 1 38 2 37 3 36 4 28 6 27 7 25 8 26 9 23 11 24 12 19 13
REMARK SMILES IDX 18 14 16 15 17 16 11 18 10 19 8 20 9 21 12 24 13 25 14 26
REMARK SMILES IDX 15 27 20 28 21 29 22 30 29 32 30 33 31 34 32 35 33 36 34 37
REMARK SMILES IDX 35 38 57 43 58 44 59 45 60 46 61 47 62 49 66 50 67 51 68 52
REMARK SMILES IDX 69 53 70 54 71 55 2 56 1 57 3 58 4 59 5 60 6 62 7 63 63 65
REMARK SMILES IDX 64 66 65 67 40 69 41 70 42 71 44 72 43 73 45 74 46 75 47 76
REMARK SMILES IDX 55 77 56 78 48 79 49 80 50 81 54 82 51 83 53 84 52 85
REMARK H PARENT 38 5 27 10 18 17 10 22 22 31 34 39 34 40 35 41 35 42 61 48
REMARK H PARENT 5 61 65 68
REMARK Flexibility Score:  369.900
ROOT
ATOM      1  C   UNL     1       2.423   2.562  -2.618  1.00  0.00     0.117 C 
ENDROOT
BRANCH   1   2
ATOM      2  N   UNL     1       1.897   2.527  -1.253  1.00  0.00    -0.347 N 
ATOM      3  O   UNL     1       3.889   2.787  -0.143  1.00  0.00    -0.273 OA
ATOM      4  C   UNL     1       2.664   2.735  -0.123  1.00  0.00     0.243 C 
ATOM      5  H   UNL     1       0.907   2.393  -1.108  1.00  0.00     0.164 HD
BRANCH   4   6
ATOM      6  C   UNL     1       1.846   2.731   1.194  1.00  0.00     0.171 C 
BRANCH   6   7
ATOM      7  N   UNL     1       0.550   2.065   0.993  1.00  0.00    -0.344 N 
ATOM      8  C   UNL     1      -0.630   2.746   1.202  1.00  0.00     0.226 C 
ATOM      9  O   UNL     1      -0.661   3.911   1.580  1.00  0.00    -0.275 OA
ATOM     10  H   UNL     1       0.535   1.084   0.745  1.00  0.00     0.164 HD
BRANCH   8  11
ATOM     11  C   UNL     1      -1.880   1.940   0.899  1.00  0.00     0.109 C 
ATOM     12  C   UNL     1      -1.500   0.538   0.422  1.00  0.00     0.021 C 
BRANCH  11  13
ATOM     13  C   UNL     1      -2.830   1.975   2.113  1.00  0.00     0.204 C 
BRANCH  13  14
ATOM     14  N   UNL     1      -4.110   2.616   1.794  1.00  0.00    -0.340 N 
ATOM     15  C   UNL     1      -4.460   3.863   2.263  1.00  0.00     0.243 C 
ATOM     16  O   UNL     1      -3.696   4.554   2.935  1.00  0.00    -0.273 OA
ATOM     17  H   UNL     1      -4.843   2.040   1.372  1.00  0.00     0.164 HD
BRANCH  15  18
ATOM     18  C   UNL     1      -5.932   4.243   1.972  1.00  0.00     0.171 C 
BRANCH  18  19
ATOM     19  N   UNL     1      -6.215   5.450   2.747  1.00  0.00    -0.343 N 
ATOM     20  C   UNL     1      -7.084   5.439   3.821  1.00  0.00     0.242 CG0
ATOM     21  O   UNL     1      -7.760   4.449   4.092  1.00  0.00    -0.273 OA
ATOM     22  H   UNL     1      -5.768   6.322   2.490  1.00  0.00     0.164 HD
ATOM     23  G   UNL     1      -7.194   6.786   4.564  1.00  0.00     0.000 G0
ENDBRANCH  18  19
BRANCH  18  24
ATOM     24  C   UNL     1      -6.144   4.478   0.471  1.00  0.00     0.038 C 
BRANCH  24  25
ATOM     25  C   UNL     1      -4.978   5.197  -0.240  1.00  0.00    -0.015 C 
ATOM     26  C   UNL     1      -5.352   6.608  -0.696  1.00  0.00     0.007 C 
ATOM     27  C   UNL     1      -4.520   4.370  -1.444  1.00  0.00     0.007 C 
ENDBRANCH  24  25
ENDBRANCH  18  24
ENDBRANCH  15  18
ENDBRANCH  13  14
BRANCH  13  28
ATOM     28  C   UNL     1      -3.146   0.585   2.673  1.00  0.00     0.327 C 
ATOM     29  O   UNL     1      -4.152  -0.072   2.452  1.00  0.00    -0.250 OA
BRANCH  28  30
ATOM     30  O   UNL     1      -2.235   0.157   3.570  1.00  0.00    -0.480 OA
ATOM     31  H   UNL     1      -2.041  -0.764   3.296  1.00  0.00     0.296 HD
ENDBRANCH  28  30
ENDBRANCH  13  28
ENDBRANCH  11  13
ENDBRANCH   8  11
ENDBRANCH   6   7
BRANCH   6  32
ATOM     32  C   UNL     1       2.658   2.028   2.288  1.00  0.00     0.037 C 
BRANCH  32  33
ATOM     33  C   UNL     1       2.828   2.905   3.536  1.00  0.00     0.026 C 
BRANCH  33  34
ATOM     34  C   UNL     1       1.574   2.928   4.410  1.00  0.00     0.146 C 
BRANCH  34  35
ATOM     35  N   UNL     1       0.920   1.629   4.329  1.00  0.00    -0.254 NA
ATOM     36  C   UNL     1       0.762   0.953   5.406  1.00  0.00     0.185 C 
ATOM     37  N   UNL     1       0.157  -0.243   5.343  1.00  0.00    -0.370 N 
ATOM     38  N   UNL     1       1.125   1.267   6.662  1.00  0.00    -0.370 N 
ATOM     39  H   UNL     1      -0.156  -0.547   4.430  1.00  0.00     0.159 HD
ATOM     40  H   UNL     1      -0.158  -0.750   6.153  1.00  0.00     0.159 HD
ATOM     41  H   UNL     1       1.070   0.590   7.405  1.00  0.00     0.159 HD
ATOM     42  H   UNL     1       1.605   2.132   6.856  1.00  0.00     0.159 HD
ENDBRANCH  34  35
ENDBRANCH  33  34
ENDBRANCH  32  33
ENDBRANCH   6  32
ENDBRANCH   4   6
ENDBRANCH   1   2
BRANCH   1  43
ATOM     43  C   UNL     1       2.637   4.048  -3.028  1.00  0.00     0.102 C 
ATOM     44  C   UNL     1       1.669   4.527  -4.123  1.00  0.00     0.020 C 
BRANCH  43  45
ATOM     45  C   UNL     1       4.111   4.326  -3.337  1.00  0.00     0.225 C 
ATOM     46  O   UNL     1       4.478   5.108  -4.210  1.00  0.00    -0.275 OA
ATOM     47  N   UNL     1       5.018   3.567  -2.633  1.00  0.00    -0.342 N 
ATOM     48  H   UNL     1       4.712   3.047  -1.822  1.00  0.00     0.164 HD
BRANCH  47  49
ATOM     49  C   UNL     1       6.463   3.750  -2.799  1.00  0.00     0.192 C 
BRANCH  49  50
ATOM     50  C   UNL     1       7.049   2.554  -3.553  1.00  0.00     0.047 C 
BRANCH  50  51
ATOM     51  C   UNL     1       6.106   1.343  -3.548  1.00  0.00     0.103 C 
BRANCH  51  52
ATOM     52  C   UNL     1       5.675   0.946  -4.959  1.00  0.00     0.226 C 
ATOM     53  O   UNL     1       5.555   1.812  -5.827  1.00  0.00    -0.275 OA
BRANCH  52  54
ATOM     54  N   UNL     1       5.513  -0.431  -5.200  1.00  0.00    -0.311 N 
ATOM     55  C   UNL     1       5.681  -1.413  -4.120  1.00  0.00     0.153 C 
BRANCH  54  56
ATOM     56  C   UNL     1       5.179  -0.917  -6.475  1.00  0.00     0.102 C 
ATOM     57  C   UNL     1       3.941  -1.257  -6.868  1.00  0.00     0.043 C 
BRANCH  56  58
ATOM     58  C   UNL     1       6.230  -1.053  -7.552  1.00  0.00     0.268 C 
ATOM     59  O   UNL     1       6.918  -2.055  -7.694  1.00  0.00    -0.268 OA
ATOM     60  N   UNL     1       6.287   0.034  -8.391  1.00  0.00    -0.339 N 
ATOM     61  H   UNL     1       5.690   0.830  -8.199  1.00  0.00     0.164 HD
BRANCH  60  62
ATOM     62  C   UNL     1       7.191   0.085  -9.540  1.00  0.00     0.168 CG0
ATOM     63  C   UNL     1       8.305   1.099  -9.315  1.00  0.00     0.041 C 
ATOM     64  G   UNL     1       6.390   0.427 -10.813  1.00  0.00     0.000 G0
ENDBRANCH  60  62
ENDBRANCH  56  58
ENDBRANCH  54  56
ENDBRANCH  52  54
ENDBRANCH  51  52
ENDBRANCH  50  51
ENDBRANCH  49  50
BRANCH  49  65
ATOM     65  C   UNL     1       7.175   3.896  -1.445  1.00  0.00     0.326 C 
ATOM     66  O   UNL     1       8.019   3.132  -1.000  1.00  0.00    -0.250 OA
BRANCH  65  67
ATOM     67  O   UNL     1       6.758   4.943  -0.699  1.00  0.00    -0.480 OA
ATOM     68  H   UNL     1       6.255   4.521   0.031  1.00  0.00     0.296 HD
ENDBRANCH  65  67
ENDBRANCH  49  65
ENDBRANCH  47  49
ENDBRANCH  43  45
ENDBRANCH   1  43
BRANCH   1  69
ATOM     69  C   UNL     1       1.496   1.698  -3.452  1.00  0.00    -0.001 C 
ATOM     70  C   UNL     1       1.818   0.954  -4.525  1.00  0.00     0.001 C 
BRANCH  70  71
ATOM     71  C   UNL     1       0.918   0.106  -5.310  1.00  0.00    -0.055 C 
ATOM     72  C   UNL     1       0.433   0.607  -6.466  1.00  0.00    -0.018 C 
ATOM     73  C   UNL     1       0.603  -1.267  -4.777  1.00  0.00     0.044 C 
BRANCH  72  74
ATOM     74  C   UNL     1      -0.507  -0.037  -7.475  1.00  0.00     0.038 C 
ATOM     75  C   UNL     1       0.356  -0.542  -8.638  1.00  0.00     0.015 C 
BRANCH  74  76
ATOM     76  C   UNL     1      -1.599   0.998  -7.874  1.00  0.00     0.128 C 
BRANCH  76  77
ATOM     77  O   UNL     1      -2.016   0.774  -9.232  1.00  0.00    -0.381 OA
ATOM     78  C   UNL     1      -2.204   1.970  -9.976  1.00  0.00     0.195 C 
ENDBRANCH  76  77
BRANCH  76  79
ATOM     79  C   UNL     1      -2.790   1.069  -6.886  1.00  0.00     0.068 C 
BRANCH  79  80
ATOM     80  C   UNL     1      -2.502   1.469  -5.459  1.00  0.00    -0.045 A 
ATOM     81  C   UNL     1      -2.651   0.554  -4.408  1.00  0.00     0.004 A 
ATOM     82  C   UNL     1      -2.105   2.781  -5.159  1.00  0.00     0.004 A 
ATOM     83  C   UNL     1      -2.396   0.936  -3.090  1.00  0.00     0.000 A 
ATOM     84  C   UNL     1      -1.851   3.162  -3.839  1.00  0.00     0.000 A 
ATOM     85  C   UNL     1      -1.995   2.239  -2.806  1.00  0.00     0.000 A 
ENDBRANCH  79  80
ENDBRANCH  76  79
ENDBRANCH  74  76
ENDBRANCH  72  74
ENDBRANCH  70  71
ENDBRANCH   1  69
TORSDOF 17
ENDMDL
MODEL 20
REMARK VINA RESULT:    -6.393     13.515     19.427
REMARK INTER + INTRA:         -25.899
REMARK INTER:                 -18.717
REMARK INTRA:                  -7.182
REMARK UNBOUND:                -6.799
REMARK SMILES C=C1C(=O)N[C@H](C)C(=O)N[C@@H](CC(C)C)C(=O)N[C@@H](C(=O)O)[C@H](C)C(=O)N[C@@H](CCCN=C(N)N)C(=O)N[C@@H](/C=C/C(C)=C/[C@H](C)[C@H](Cc2ccccc2)OC)[C@H](C)C(=O)N[C@@H](C(=O)O)CCC(=O)N1C
REMARK SMILES IDX 39 1 38 2 37 3 36 4 28 6 27 7 25 8 26 9 23 11 24 12 19 13
REMARK SMILES IDX 18 14 16 15 17 16 11 18 10 19 8 20 9 21 12 24 13 25 14 26
REMARK SMILES IDX 15 27 20 28 21 29 22 30 29 32 30 33 31 34 32 35 33 36 34 37
REMARK SMILES IDX 35 38 57 43 58 44 59 45 60 46 61 47 62 49 66 50 67 51 68 52
REMARK SMILES IDX 69 53 70 54 71 55 2 56 1 57 3 58 4 59 5 60 6 62 7 63 63 65
REMARK SMILES IDX 64 66 65 67 40 69 41 70 42 71 44 72 43 73 45 74 46 75 47 76
REMARK SMILES IDX 55 77 56 78 48 79 49 80 50 81 54 82 51 83 53 84 52 85
REMARK H PARENT 38 5 27 10 18 17 10 22 22 31 34 39 34 40 35 41 35 42 61 48
REMARK H PARENT 5 61 65 68
REMARK Flexibility Score:  369.900
ROOT
ATOM      1  C   UNL     1      -3.948   3.515   2.621  1.00  0.00     0.117 C 
ENDROOT
BRANCH   1   2
ATOM      2  N   UNL     1      -5.139   3.910   3.374  1.00  0.00    -0.347 N 
ATOM      3  O   UNL     1      -6.278   4.914   1.653  1.00  0.00    -0.273 OA
ATOM      4  C   UNL     1      -6.252   4.499   2.807  1.00  0.00     0.243 C 
ATOM      5  H   UNL     1      -5.191   3.703   4.360  1.00  0.00     0.164 HD
BRANCH   4   6
ATOM      6  C   UNL     1      -7.410   4.736   3.809  1.00  0.00     0.171 C 
BRANCH   6   7
ATOM      7  N   UNL     1      -6.945   4.533   5.190  1.00  0.00    -0.344 N 
ATOM      8  C   UNL     1      -7.592   3.650   6.027  1.00  0.00     0.226 C 
ATOM      9  O   UNL     1      -8.582   3.017   5.680  1.00  0.00    -0.275 OA
ATOM     10  H   UNL     1      -6.172   5.089   5.534  1.00  0.00     0.164 HD
BRANCH   8  11
ATOM     11  C   UNL     1      -6.960   3.512   7.400  1.00  0.00     0.109 C 
ATOM     12  C   UNL     1      -5.436   3.537   7.283  1.00  0.00     0.021 C 
BRANCH  11  13
ATOM     13  C   UNL     1      -7.553   4.566   8.357  1.00  0.00     0.204 C 
BRANCH  13  14
ATOM     14  N   UNL     1      -9.019   4.577   8.323  1.00  0.00    -0.340 N 
ATOM     15  C   UNL     1      -9.768   5.668   8.707  1.00  0.00     0.243 C 
ATOM     16  O   UNL     1      -9.256   6.733   9.048  1.00  0.00    -0.273 OA
ATOM     17  H   UNL     1      -9.504   3.684   8.197  1.00  0.00     0.164 HD
BRANCH  15  18
ATOM     18  C   UNL     1     -11.287   5.379   8.786  1.00  0.00     0.171 C 
BRANCH  18  19
ATOM     19  N   UNL     1     -11.824   5.590   7.443  1.00  0.00    -0.343 N 
ATOM     20  C   UNL     1     -12.374   6.798   7.060  1.00  0.00     0.242 CG0
ATOM     21  O   UNL     1     -12.559   7.706   7.867  1.00  0.00    -0.273 OA
ATOM     22  H   UNL     1     -11.800   4.830   6.773  1.00  0.00     0.164 HD
ATOM     23  G   UNL     1     -12.815   6.856   5.583  1.00  0.00     0.000 G0
ENDBRANCH  18  19
BRANCH  18  24
ATOM     24  C   UNL     1     -11.541   3.948   9.275  1.00  0.00     0.038 C 
BRANCH  24  25
ATOM     25  C   UNL     1     -12.262   3.038   8.257  1.00  0.00    -0.015 C 
ATOM     26  C   UNL     1     -13.585   2.492   8.795  1.00  0.00     0.007 C 
ATOM     27  C   UNL     1     -11.346   1.876   7.866  1.00  0.00     0.007 C 
ENDBRANCH  24  25
ENDBRANCH  18  24
ENDBRANCH  15  18
ENDBRANCH  13  14
BRANCH  13  28
ATOM     28  C   UNL     1      -7.134   4.361   9.816  1.00  0.00     0.327 C 
ATOM     29  O   UNL     1      -6.320   5.029  10.434  1.00  0.00    -0.250 OA
BRANCH  28  30
ATOM     30  O   UNL     1      -7.676   3.258  10.372  1.00  0.00    -0.480 OA
ATOM     31  H   UNL     1      -7.267   2.515   9.880  1.00  0.00     0.296 HD
ENDBRANCH  28  30
ENDBRANCH  13  28
ENDBRANCH  11  13
ENDBRANCH   8  11
ENDBRANCH   6   7
BRANCH   6  32
ATOM     32  C   UNL     1      -7.957   6.155   3.618  1.00  0.00     0.037 C 
BRANCH  32  33
ATOM     33  C   UNL     1      -9.484   6.171   3.458  1.00  0.00     0.026 C 
BRANCH  33  34
ATOM     34  C   UNL     1     -10.078   4.765   3.370  1.00  0.00     0.146 C 
BRANCH  34  35
ATOM     35  N   UNL     1     -10.993   4.711   2.239  1.00  0.00    -0.254 NA
ATOM     36  C   UNL     1     -10.541   4.338   1.100  1.00  0.00     0.185 C 
ATOM     37  N   UNL     1     -11.376   4.280   0.051  1.00  0.00    -0.370 N 
ATOM     38  N   UNL     1      -9.290   3.973   0.766  1.00  0.00    -0.370 N 
ATOM     39  H   UNL     1     -12.341   4.531   0.225  1.00  0.00     0.159 HD
ATOM     40  H   UNL     1     -11.144   3.837  -0.821  1.00  0.00     0.159 HD
ATOM     41  H   UNL     1      -9.027   3.834  -0.196  1.00  0.00     0.159 HD
ATOM     42  H   UNL     1      -8.552   3.984   1.453  1.00  0.00     0.159 HD
ENDBRANCH  34  35
ENDBRANCH  33  34
ENDBRANCH  32  33
ENDBRANCH   6  32
ENDBRANCH   4   6
ENDBRANCH   1   2
BRANCH   1  43
ATOM     43  C   UNL     1      -4.256   2.191   1.865  1.00  0.00     0.102 C 
ATOM     44  C   UNL     1      -4.804   1.079   2.775  1.00  0.00     0.020 C 
BRANCH  43  45
ATOM     45  C   UNL     1      -3.064   1.759   1.005  1.00  0.00     0.225 C 
ATOM     46  O   UNL     1      -2.688   0.593   0.917  1.00  0.00    -0.275 OA
ATOM     47  N   UNL     1      -2.369   2.780   0.400  1.00  0.00    -0.342 N 
ATOM     48  H   UNL     1      -2.774   3.705   0.357  1.00  0.00     0.164 HD
BRANCH  47  49
ATOM     49  C   UNL     1      -1.227   2.514  -0.481  1.00  0.00     0.192 C 
BRANCH  49  50
ATOM     50  C   UNL     1       0.014   3.233   0.053  1.00  0.00     0.047 C 
BRANCH  50  51
ATOM     51  C   UNL     1       1.302   2.437  -0.199  1.00  0.00     0.103 C 
BRANCH  51  52
ATOM     52  C   UNL     1       2.520   3.347  -0.342  1.00  0.00     0.226 C 
ATOM     53  O   UNL     1       2.993   3.895   0.655  1.00  0.00    -0.275 OA
BRANCH  52  54
ATOM     54  N   UNL     1       3.082   3.443  -1.629  1.00  0.00    -0.311 N 
ATOM     55  C   UNL     1       2.867   2.389  -2.629  1.00  0.00     0.153 C 
BRANCH  54  56
ATOM     56  C   UNL     1       3.864   4.548  -2.006  1.00  0.00     0.102 C 
ATOM     57  C   UNL     1       3.387   5.670  -2.568  1.00  0.00     0.043 C 
BRANCH  56  58
ATOM     58  C   UNL     1       5.353   4.567  -1.752  1.00  0.00     0.268 C 
ATOM     59  O   UNL     1       5.848   4.958  -0.703  1.00  0.00    -0.268 OA
ATOM     60  N   UNL     1       6.085   4.041  -2.789  1.00  0.00    -0.339 N 
ATOM     61  H   UNL     1       5.599   3.748  -3.629  1.00  0.00     0.164 HD
BRANCH  60  62
ATOM     62  C   UNL     1       7.539   3.906  -2.727  1.00  0.00     0.168 CG0
ATOM     63  C   UNL     1       7.939   2.532  -2.203  1.00  0.00     0.041 C 
ATOM     64  G   UNL     1       8.124   5.021  -1.836  1.00  0.00     0.000 G0
ENDBRANCH  60  62
ENDBRANCH  56  58
ENDBRANCH  54  56
ENDBRANCH  52  54
ENDBRANCH  51  52
ENDBRANCH  50  51
ENDBRANCH  49  50
BRANCH  49  65
ATOM     65  C   UNL     1      -1.503   2.975  -1.921  1.00  0.00     0.326 C 
ATOM     66  O   UNL     1      -1.397   2.281  -2.922  1.00  0.00    -0.250 OA
BRANCH  65  67
ATOM     67  O   UNL     1      -1.833   4.280  -2.041  1.00  0.00    -0.480 OA
ATOM     68  H   UNL     1      -2.813   4.268  -2.082  1.00  0.00     0.296 HD
ENDBRANCH  65  67
ENDBRANCH  49  65
ENDBRANCH  47  49
ENDBRANCH  43  45
ENDBRANCH   1  43
BRANCH   1  69
ATOM     69  C   UNL     1      -2.794   3.545   3.607  1.00  0.00    -0.001 C 
ATOM     70  C   UNL     1      -2.740   4.197   4.782  1.00  0.00     0.001 C 
BRANCH  70  71
ATOM     71  C   UNL     1      -1.629   4.202   5.736  1.00  0.00    -0.055 C 
ATOM     72  C   UNL     1      -0.602   5.044   5.499  1.00  0.00    -0.018 C 
ATOM     73  C   UNL     1      -1.714   3.271   6.918  1.00  0.00     0.044 C 
BRANCH  72  74
ATOM     74  C   UNL     1       0.669   5.265   6.307  1.00  0.00     0.038 C 
ATOM     75  C   UNL     1       0.430   6.488   7.201  1.00  0.00     0.015 C 
BRANCH  74  76
ATOM     76  C   UNL     1       1.870   5.400   5.324  1.00  0.00     0.128 C 
BRANCH  76  77
ATOM     77  O   UNL     1       2.723   6.481   5.737  1.00  0.00    -0.381 OA
ATOM     78  C   UNL     1       3.889   6.056   6.430  1.00  0.00     0.195 C 
ENDBRANCH  76  77
BRANCH  76  79
ATOM     79  C   UNL     1       2.646   4.078   5.095  1.00  0.00     0.068 C 
BRANCH  79  80
ATOM     80  C   UNL     1       1.846   2.823   4.844  1.00  0.00    -0.045 A 
ATOM     81  C   UNL     1       1.359   2.520   3.566  1.00  0.00     0.004 A 
ATOM     82  C   UNL     1       1.552   1.949   5.902  1.00  0.00     0.004 A 
ATOM     83  C   UNL     1       0.608   1.364   3.345  1.00  0.00     0.000 A 
ATOM     84  C   UNL     1       0.800   0.793   5.680  1.00  0.00     0.000 A 
ATOM     85  C   UNL     1       0.330   0.500   4.402  1.00  0.00     0.000 A 
ENDBRANCH  79  80
ENDBRANCH  76  79
ENDBRANCH  74  76
ENDBRANCH  72  74
ENDBRANCH  70  71
ENDBRANCH   1  69
TORSDOF 17
ENDMDL
MODEL 21
REMARK VINA RESULT:    -6.385     10.381     16.050
REMARK INTER + INTRA:         -25.876
REMARK INTER:                 -17.356
REMARK INTRA:                  -8.520
REMARK UNBOUND:                -6.799
REMARK SMILES C=C1C(=O)N[C@H](C)C(=O)N[C@@H](CC(C)C)C(=O)N[C@@H](C(=O)O)[C@H](C)C(=O)N[C@@H](CCCN=C(N)N)C(=O)N[C@@H](/C=C/C(C)=C/[C@H](C)[C@H](Cc2ccccc2)OC)[C@H](C)C(=O)N[C@@H](C(=O)O)CCC(=O)N1C
REMARK SMILES IDX 39 1 38 2 37 3 36 4 28 6 27 7 25 8 26 9 23 11 24 12 19 13
REMARK SMILES IDX 18 14 16 15 17 16 11 18 10 19 8 20 9 21 12 24 13 25 14 26
REMARK SMILES IDX 15 27 20 28 21 29 22 30 29 32 30 33 31 34 32 35 33 36 34 37
REMARK SMILES IDX 35 38 57 43 58 44 59 45 60 46 61 47 62 49 66 50 67 51 68 52
REMARK SMILES IDX 69 53 70 54 71 55 2 56 1 57 3 58 4 59 5 60 6 62 7 63 63 65
REMARK SMILES IDX 64 66 65 67 40 69 41 70 42 71 44 72 43 73 45 74 46 75 47 76
REMARK SMILES IDX 55 77 56 78 48 79 49 80 50 81 54 82 51 83 53 84 52 85
REMARK H PARENT 38 5 27 10 18 17 10 22 22 31 34 39 34 40 35 41 35 42 61 48
REMARK H PARENT 5 61 65 68
REMARK Flexibility Score:  369.900
ROOT
ATOM      1  C   UNL     1      -9.432  -5.709  -3.344  1.00  0.00     0.117 C 
ENDROOT
BRANCH   1   2
ATOM      2  N   UNL     1      -8.515  -4.722  -3.918  1.00  0.00    -0.347 N 
ATOM      3  O   UNL     1      -8.774  -5.301  -6.124  1.00  0.00    -0.273 OA
ATOM      4  C   UNL     1      -8.329  -4.537  -5.274  1.00  0.00     0.243 C 
ATOM      5  H   UNL     1      -8.016  -4.096  -3.305  1.00  0.00     0.164 HD
BRANCH   4   6
ATOM      6  C   UNL     1      -7.369  -3.370  -5.618  1.00  0.00     0.171 C 
BRANCH   6   7
ATOM      7  N   UNL     1      -6.022  -3.882  -5.914  1.00  0.00    -0.344 N 
ATOM      8  C   UNL     1      -5.141  -4.172  -4.894  1.00  0.00     0.226 C 
ATOM      9  O   UNL     1      -5.419  -4.001  -3.713  1.00  0.00    -0.275 OA
ATOM     10  H   UNL     1      -5.732  -3.972  -6.879  1.00  0.00     0.164 HD
BRANCH   8  11
ATOM     11  C   UNL     1      -3.812  -4.742  -5.359  1.00  0.00     0.109 C 
ATOM     12  C   UNL     1      -2.967  -5.155  -4.154  1.00  0.00     0.021 C 
BRANCH  11  13
ATOM     13  C   UNL     1      -4.058  -5.860  -6.392  1.00  0.00     0.204 C 
BRANCH  13  14
ATOM     14  N   UNL     1      -2.804  -6.419  -6.908  1.00  0.00    -0.340 N 
ATOM     15  C   UNL     1      -2.737  -7.162  -8.067  1.00  0.00     0.243 C 
ATOM     16  O   UNL     1      -3.717  -7.356  -8.784  1.00  0.00    -0.273 OA
ATOM     17  H   UNL     1      -1.990  -6.424  -6.288  1.00  0.00     0.164 HD
BRANCH  15  18
ATOM     18  C   UNL     1      -1.355  -7.820  -8.301  1.00  0.00     0.171 C 
BRANCH  18  19
ATOM     19  N   UNL     1      -1.459  -9.195  -7.817  1.00  0.00    -0.343 N 
ATOM     20  C   UNL     1      -1.182  -9.528  -6.505  1.00  0.00     0.242 CG0
ATOM     21  O   UNL     1      -0.708  -8.711  -5.719  1.00  0.00    -0.273 OA
ATOM     22  H   UNL     1      -1.736  -9.929  -8.459  1.00  0.00     0.164 HD
ATOM     23  G   UNL     1      -1.423 -11.013  -6.161  1.00  0.00     0.000 G0
ENDBRANCH  18  19
BRANCH  18  24
ATOM     24  C   UNL     1      -0.978  -7.774  -9.787  1.00  0.00     0.038 C 
BRANCH  24  25
ATOM     25  C   UNL     1       0.383  -7.110 -10.086  1.00  0.00    -0.015 C 
ATOM     26  C   UNL     1       1.395  -8.092 -10.678  1.00  0.00     0.007 C 
ATOM     27  C   UNL     1       0.950  -6.497  -8.804  1.00  0.00     0.007 C 
ENDBRANCH  24  25
ENDBRANCH  18  24
ENDBRANCH  15  18
ENDBRANCH  13  14
BRANCH  13  28
ATOM     28  C   UNL     1      -4.880  -7.027  -5.835  1.00  0.00     0.327 C 
ATOM     29  O   UNL     1      -4.444  -7.991  -5.225  1.00  0.00    -0.250 OA
BRANCH  28  30
ATOM     30  O   UNL     1      -6.182  -6.969  -6.182  1.00  0.00    -0.480 OA
ATOM     31  H   UNL     1      -6.276  -7.652  -6.878  1.00  0.00     0.296 HD
ENDBRANCH  28  30
ENDBRANCH  13  28
ENDBRANCH  11  13
ENDBRANCH   8  11
ENDBRANCH   6   7
BRANCH   6  32
ATOM     32  C   UNL     1      -7.932  -2.590  -6.811  1.00  0.00     0.037 C 
BRANCH  32  33
ATOM     33  C   UNL     1      -6.830  -2.129  -7.774  1.00  0.00     0.026 C 
BRANCH  33  34
ATOM     34  C   UNL     1      -6.984  -2.731  -9.172  1.00  0.00     0.146 C 
BRANCH  34  35
ATOM     35  N   UNL     1      -7.270  -4.153  -9.041  1.00  0.00    -0.254 NA
ATOM     36  C   UNL     1      -6.332  -4.993  -9.277  1.00  0.00     0.185 C 
ATOM     37  N   UNL     1      -6.583  -6.306  -9.155  1.00  0.00    -0.370 N 
ATOM     38  N   UNL     1      -5.061  -4.757  -9.648  1.00  0.00    -0.370 N 
ATOM     39  H   UNL     1      -7.518  -6.564  -8.867  1.00  0.00     0.159 HD
ATOM     40  H   UNL     1      -5.866  -7.011  -9.151  1.00  0.00     0.159 HD
ATOM     41  H   UNL     1      -4.456  -5.508  -9.939  1.00  0.00     0.159 HD
ATOM     42  H   UNL     1      -4.736  -3.814  -9.794  1.00  0.00     0.159 HD
ENDBRANCH  34  35
ENDBRANCH  33  34
ENDBRANCH  32  33
ENDBRANCH   6  32
ENDBRANCH   4   6
ENDBRANCH   1   2
BRANCH   1  43
ATOM     43  C   UNL     1     -10.082  -5.097  -2.070  1.00  0.00     0.102 C 
ATOM     44  C   UNL     1      -9.698  -3.627  -1.832  1.00  0.00     0.020 C 
BRANCH  43  45
ATOM     45  C   UNL     1      -9.864  -6.002  -0.853  1.00  0.00     0.225 C 
ATOM     46  O   UNL     1     -10.459  -7.063  -0.691  1.00  0.00    -0.275 OA
ATOM     47  N   UNL     1      -9.017  -5.504   0.110  1.00  0.00    -0.342 N 
ATOM     48  H   UNL     1      -8.425  -4.713  -0.104  1.00  0.00     0.164 HD
BRANCH  47  49
ATOM     49  C   UNL     1      -8.686  -6.275   1.312  1.00  0.00     0.192 C 
BRANCH  49  50
ATOM     50  C   UNL     1      -9.472  -5.729   2.507  1.00  0.00     0.047 C 
BRANCH  50  51
ATOM     51  C   UNL     1     -10.797  -6.474   2.722  1.00  0.00     0.103 C 
BRANCH  51  52
ATOM     52  C   UNL     1     -11.190  -6.529   4.197  1.00  0.00     0.226 C 
ATOM     53  O   UNL     1     -10.573  -5.849   5.019  1.00  0.00    -0.275 OA
BRANCH  52  54
ATOM     54  N   UNL     1     -12.310  -7.319   4.517  1.00  0.00    -0.311 N 
ATOM     55  C   UNL     1     -13.287  -7.698   3.488  1.00  0.00     0.153 C 
BRANCH  54  56
ATOM     56  C   UNL     1     -12.533  -7.777   5.827  1.00  0.00     0.102 C 
ATOM     57  C   UNL     1     -11.951  -8.857   6.372  1.00  0.00     0.043 C 
BRANCH  56  58
ATOM     58  C   UNL     1     -13.448  -7.026   6.765  1.00  0.00     0.268 C 
ATOM     59  O   UNL     1     -14.110  -6.056   6.422  1.00  0.00    -0.268 OA
ATOM     60  N   UNL     1     -13.511  -7.584   8.020  1.00  0.00    -0.339 N 
ATOM     61  H   UNL     1     -12.922  -8.381   8.228  1.00  0.00     0.164 HD
BRANCH  60  62
ATOM     62  C   UNL     1     -14.384  -7.053   9.066  1.00  0.00     0.168 CG0
ATOM     63  C   UNL     1     -15.445  -8.072   9.462  1.00  0.00     0.041 C 
ATOM     64  G   UNL     1     -15.039  -5.744   8.577  1.00  0.00     0.000 G0
ENDBRANCH  60  62
ENDBRANCH  56  58
ENDBRANCH  54  56
ENDBRANCH  52  54
ENDBRANCH  51  52
ENDBRANCH  50  51
ENDBRANCH  49  50
BRANCH  49  65
ATOM     65  C   UNL     1      -7.183  -6.221   1.625  1.00  0.00     0.326 C 
ATOM     66  O   UNL     1      -6.692  -6.131   2.741  1.00  0.00    -0.250 OA
BRANCH  65  67
ATOM     67  O   UNL     1      -6.380  -6.221   0.538  1.00  0.00    -0.480 OA
ATOM     68  H   UNL     1      -6.232  -7.174   0.359  1.00  0.00     0.296 HD
ENDBRANCH  65  67
ENDBRANCH  49  65
ENDBRANCH  47  49
ENDBRANCH  43  45
ENDBRANCH   1  43
BRANCH   1  69
ATOM     69  C   UNL     1      -8.641  -6.998  -3.218  1.00  0.00    -0.001 C 
ATOM     70  C   UNL     1      -8.971  -8.209  -3.701  1.00  0.00     0.001 C 
BRANCH  70  71
ATOM     71  C   UNL     1      -8.190  -9.443  -3.591  1.00  0.00    -0.055 C 
ATOM     72  C   UNL     1      -8.177 -10.073  -2.397  1.00  0.00    -0.018 C 
ATOM     73  C   UNL     1      -7.463  -9.925  -4.819  1.00  0.00     0.044 C 
BRANCH  72  74
ATOM     74  C   UNL     1      -7.465 -11.357  -1.994  1.00  0.00     0.038 C 
ATOM     75  C   UNL     1      -8.436 -12.514  -2.257  1.00  0.00     0.015 C 
BRANCH  74  76
ATOM     76  C   UNL     1      -6.992 -11.224  -0.516  1.00  0.00     0.128 C 
BRANCH  76  77
ATOM     77  O   UNL     1      -5.573 -11.437  -0.435  1.00  0.00    -0.381 OA
ATOM     78  C   UNL     1      -5.138 -11.906   0.835  1.00  0.00     0.195 C 
ENDBRANCH  76  77
BRANCH  76  79
ATOM     79  C   UNL     1      -7.443  -9.912   0.173  1.00  0.00     0.068 C 
BRANCH  79  80
ATOM     80  C   UNL     1      -8.504 -10.004   1.244  1.00  0.00    -0.045 A 
ATOM     81  C   UNL     1      -9.839 -10.275   0.916  1.00  0.00     0.004 A 
ATOM     82  C   UNL     1      -8.170  -9.791   2.590  1.00  0.00     0.004 A 
ATOM     83  C   UNL     1     -10.816 -10.344   1.910  1.00  0.00     0.000 A 
ATOM     84  C   UNL     1      -9.149  -9.860   3.584  1.00  0.00     0.000 A 
ATOM     85  C   UNL     1     -10.471 -10.138   3.244  1.00  0.00     0.000 A 
ENDBRANCH  79  80
ENDBRANCH  76  79
ENDBRANCH  74  76
ENDBRANCH  72  74
ENDBRANCH  70  71
ENDBRANCH   1  69
TORSDOF 17
ENDMDL
MODEL 22
REMARK VINA RESULT:    -6.384     11.881     16.852
REMARK INTER + INTRA:         -25.873
REMARK INTER:                 -17.911
REMARK INTRA:                  -7.962
REMARK UNBOUND:                -6.799
REMARK SMILES C=C1C(=O)N[C@H](C)C(=O)N[C@@H](CC(C)C)C(=O)N[C@@H](C(=O)O)[C@H](C)C(=O)N[C@@H](CCCN=C(N)N)C(=O)N[C@@H](/C=C/C(C)=C/[C@H](C)[C@H](Cc2ccccc2)OC)[C@H](C)C(=O)N[C@@H](C(=O)O)CCC(=O)N1C
REMARK SMILES IDX 39 1 38 2 37 3 36 4 28 6 27 7 25 8 26 9 23 11 24 12 19 13
REMARK SMILES IDX 18 14 16 15 17 16 11 18 10 19 8 20 9 21 12 24 13 25 14 26
REMARK SMILES IDX 15 27 20 28 21 29 22 30 29 32 30 33 31 34 32 35 33 36 34 37
REMARK SMILES IDX 35 38 57 43 58 44 59 45 60 46 61 47 62 49 66 50 67 51 68 52
REMARK SMILES IDX 69 53 70 54 71 55 2 56 1 57 3 58 4 59 5 60 6 62 7 63 63 65
REMARK SMILES IDX 64 66 65 67 40 69 41 70 42 71 44 72 43 73 45 74 46 75 47 76
REMARK SMILES IDX 55 77 56 78 48 79 49 80 50 81 54 82 51 83 53 84 52 85
REMARK H PARENT 38 5 27 10 18 17 10 22 22 31 34 39 34 40 35 41 35 42 61 48
REMARK H PARENT 5 61 65 68
REMARK Flexibility Score:  369.900
ROOT
ATOM      1  C   UNL     1      -6.416   6.520   1.852  1.00  0.00     0.117 C 
ENDROOT
BRANCH   1   2
ATOM      2  N   UNL     1      -7.641   6.369   2.637  1.00  0.00    -0.347 N 
ATOM      3  O   UNL     1      -8.292   8.571   2.626  1.00  0.00    -0.273 OA
ATOM      4  C   UNL     1      -8.532   7.396   2.884  1.00  0.00     0.243 C 
ATOM      5  H   UNL     1      -7.896   5.458   2.987  1.00  0.00     0.164 HD
BRANCH   4   6
ATOM      6  C   UNL     1      -9.793   6.951   3.668  1.00  0.00     0.171 C 
BRANCH   6   7
ATOM      7  N   UNL     1     -10.734   8.074   3.808  1.00  0.00    -0.344 N 
ATOM      8  C   UNL     1     -11.381   8.304   5.003  1.00  0.00     0.226 C 
ATOM      9  O   UNL     1     -11.228   7.587   5.985  1.00  0.00    -0.275 OA
ATOM     10  H   UNL     1     -10.937   8.648   3.000  1.00  0.00     0.164 HD
BRANCH   8  11
ATOM     11  C   UNL     1     -12.275   9.531   5.005  1.00  0.00     0.109 C 
ATOM     12  C   UNL     1     -12.076  10.329   3.716  1.00  0.00     0.021 C 
BRANCH  11  13
ATOM     13  C   UNL     1     -13.732   9.115   5.291  1.00  0.00     0.204 C 
BRANCH  13  14
ATOM     14  N   UNL     1     -13.964   7.694   5.012  1.00  0.00    -0.340 N 
ATOM     15  C   UNL     1     -15.157   7.215   4.516  1.00  0.00     0.243 C 
ATOM     16  O   UNL     1     -16.093   7.955   4.216  1.00  0.00    -0.273 OA
ATOM     17  H   UNL     1     -13.291   7.016   5.378  1.00  0.00     0.164 HD
BRANCH  15  18
ATOM     18  C   UNL     1     -15.243   5.669   4.498  1.00  0.00     0.171 C 
BRANCH  18  19
ATOM     19  N   UNL     1     -16.308   5.298   5.429  1.00  0.00    -0.343 N 
ATOM     20  C   UNL     1     -16.150   5.405   6.797  1.00  0.00     0.242 CG0
ATOM     21  O   UNL     1     -15.065   5.689   7.299  1.00  0.00    -0.273 OA
ATOM     22  H   UNL     1     -17.186   4.947   5.065  1.00  0.00     0.164 HD
ATOM     23  G   UNL     1     -17.407   5.043   7.613  1.00  0.00     0.000 G0
ENDBRANCH  18  19
BRANCH  18  24
ATOM     24  C   UNL     1     -15.533   5.159   3.081  1.00  0.00     0.038 C 
BRANCH  24  25
ATOM     25  C   UNL     1     -14.380   4.362   2.435  1.00  0.00    -0.015 C 
ATOM     26  C   UNL     1     -14.864   3.428   1.325  1.00  0.00     0.007 C 
ATOM     27  C   UNL     1     -13.650   3.550   3.509  1.00  0.00     0.007 C 
ENDBRANCH  24  25
ENDBRANCH  18  24
ENDBRANCH  15  18
ENDBRANCH  13  14
BRANCH  13  28
ATOM     28  C   UNL     1     -14.158   9.368   6.741  1.00  0.00     0.327 C 
ATOM     29  O   UNL     1     -14.647  10.397   7.181  1.00  0.00    -0.250 OA
BRANCH  28  30
ATOM     30  O   UNL     1     -13.834   8.356   7.571  1.00  0.00    -0.480 OA
ATOM     31  H   UNL     1     -14.525   8.383   8.265  1.00  0.00     0.296 HD
ENDBRANCH  28  30
ENDBRANCH  13  28
ENDBRANCH  11  13
ENDBRANCH   8  11
ENDBRANCH   6   7
BRANCH   6  32
ATOM     32  C   UNL     1     -10.451   5.775   2.938  1.00  0.00     0.037 C 
BRANCH  32  33
ATOM     33  C   UNL     1     -11.526   6.238   1.944  1.00  0.00     0.026 C 
BRANCH  33  34
ATOM     34  C   UNL     1     -10.950   6.553   0.563  1.00  0.00     0.146 C 
BRANCH  34  35
ATOM     35  N   UNL     1     -11.024   7.990   0.340  1.00  0.00    -0.254 NA
ATOM     36  C   UNL     1     -11.492   8.415  -0.774  1.00  0.00     0.185 C 
ATOM     37  N   UNL     1     -11.570   9.738  -0.988  1.00  0.00    -0.370 N 
ATOM     38  N   UNL     1     -11.945   7.709  -1.825  1.00  0.00    -0.370 N 
ATOM     39  H   UNL     1     -11.257  10.339  -0.237  1.00  0.00     0.159 HD
ATOM     40  H   UNL     1     -12.079  10.148  -1.752  1.00  0.00     0.159 HD
ATOM     41  H   UNL     1     -12.158   8.157  -2.701  1.00  0.00     0.159 HD
ATOM     42  H   UNL     1     -11.931   6.701  -1.809  1.00  0.00     0.159 HD
ENDBRANCH  34  35
ENDBRANCH  33  34
ENDBRANCH  32  33
ENDBRANCH   6  32
ENDBRANCH   4   6
ENDBRANCH   1   2
BRANCH   1  43
ATOM     43  C   UNL     1      -6.779   6.416   0.342  1.00  0.00     0.102 C 
ATOM     44  C   UNL     1      -6.321   5.100  -0.309  1.00  0.00     0.020 C 
BRANCH  43  45
ATOM     45  C   UNL     1      -6.339   7.671  -0.417  1.00  0.00     0.225 C 
ATOM     46  O   UNL     1      -5.375   7.691  -1.178  1.00  0.00    -0.275 OA
ATOM     47  N   UNL     1      -7.040   8.818  -0.123  1.00  0.00    -0.342 N 
ATOM     48  H   UNL     1      -7.914   8.755   0.380  1.00  0.00     0.164 HD
BRANCH  47  49
ATOM     49  C   UNL     1      -6.753  10.086  -0.799  1.00  0.00     0.192 C 
BRANCH  49  50
ATOM     50  C   UNL     1      -7.072  11.253   0.139  1.00  0.00     0.047 C 
BRANCH  50  51
ATOM     51  C   UNL     1      -6.530  12.589  -0.388  1.00  0.00     0.103 C 
BRANCH  51  52
ATOM     52  C   UNL     1      -5.010  12.677  -0.271  1.00  0.00     0.226 C 
ATOM     53  O   UNL     1      -4.494  12.906   0.824  1.00  0.00    -0.275 OA
BRANCH  52  54
ATOM     54  N   UNL     1      -4.275  12.410  -1.441  1.00  0.00    -0.311 N 
ATOM     55  C   UNL     1      -3.321  11.294  -1.497  1.00  0.00     0.153 C 
BRANCH  54  56
ATOM     56  C   UNL     1      -4.429  13.193  -2.598  1.00  0.00     0.102 C 
ATOM     57  C   UNL     1      -4.935  12.753  -3.761  1.00  0.00     0.043 C 
BRANCH  56  58
ATOM     58  C   UNL     1      -4.060  14.658  -2.597  1.00  0.00     0.268 C 
ATOM     59  O   UNL     1      -4.678  15.503  -1.963  1.00  0.00    -0.268 OA
ATOM     60  N   UNL     1      -2.927  14.930  -3.325  1.00  0.00    -0.339 N 
ATOM     61  H   UNL     1      -2.479  14.175  -3.830  1.00  0.00     0.164 HD
BRANCH  60  62
ATOM     62  C   UNL     1      -2.358  16.275  -3.406  1.00  0.00     0.168 CG0
ATOM     63  C   UNL     1      -1.858  16.573  -4.814  1.00  0.00     0.041 C 
ATOM     64  G   UNL     1      -1.215  16.416  -2.379  1.00  0.00     0.000 G0
ENDBRANCH  60  62
ENDBRANCH  56  58
ENDBRANCH  54  56
ENDBRANCH  52  54
ENDBRANCH  51  52
ENDBRANCH  50  51
ENDBRANCH  49  50
BRANCH  49  65
ATOM     65  C   UNL     1      -7.567  10.236  -2.093  1.00  0.00     0.326 C 
ATOM     66  O   UNL     1      -7.119  10.159  -3.228  1.00  0.00    -0.250 OA
BRANCH  65  67
ATOM     67  O   UNL     1      -8.873  10.530  -1.907  1.00  0.00    -0.480 OA
ATOM     68  H   UNL     1      -9.199  10.722  -2.812  1.00  0.00     0.296 HD
ENDBRANCH  65  67
ENDBRANCH  49  65
ENDBRANCH  47  49
ENDBRANCH  43  45
ENDBRANCH   1  43
BRANCH   1  69
ATOM     69  C   UNL     1      -5.416   5.538   2.434  1.00  0.00    -0.001 C 
ATOM     70  C   UNL     1      -5.632   4.629   3.402  1.00  0.00     0.001 C 
BRANCH  70  71
ATOM     71  C   UNL     1      -4.664   3.672   3.941  1.00  0.00    -0.055 C 
ATOM     72  C   UNL     1      -3.842   4.097   4.924  1.00  0.00    -0.018 C 
ATOM     73  C   UNL     1      -4.659   2.279   3.367  1.00  0.00     0.044 C 
BRANCH  72  74
ATOM     74  C   UNL     1      -2.755   3.334   5.667  1.00  0.00     0.038 C 
ATOM     75  C   UNL     1      -3.233   3.158   7.113  1.00  0.00     0.015 C 
BRANCH  74  76
ATOM     76  C   UNL     1      -1.409   4.103   5.513  1.00  0.00     0.128 C 
BRANCH  76  77
ATOM     77  O   UNL     1      -0.790   4.271   6.799  1.00  0.00    -0.381 OA
ATOM     78  C   UNL     1       0.059   5.408   6.880  1.00  0.00     0.195 C 
ENDBRANCH  76  77
BRANCH  76  79
ATOM     79  C   UNL     1      -0.450   3.489   4.462  1.00  0.00     0.068 C 
BRANCH  79  80
ATOM     80  C   UNL     1      -1.000   3.205   3.085  1.00  0.00    -0.045 A 
ATOM     81  C   UNL     1      -1.051   1.897   2.584  1.00  0.00     0.004 A 
ATOM     82  C   UNL     1      -1.444   4.257   2.270  1.00  0.00     0.004 A 
ATOM     83  C   UNL     1      -1.547   1.644   1.303  1.00  0.00     0.000 A 
ATOM     84  C   UNL     1      -1.940   4.002   0.989  1.00  0.00     0.000 A 
ATOM     85  C   UNL     1      -1.993   2.697   0.507  1.00  0.00     0.000 A 
ENDBRANCH  79  80
ENDBRANCH  76  79
ENDBRANCH  74  76
ENDBRANCH  72  74
ENDBRANCH  70  71
ENDBRANCH   1  69
TORSDOF 17
ENDMDL
MODEL 23
REMARK VINA RESULT:    -6.378     15.551     20.784
REMARK INTER + INTRA:         -25.853
REMARK INTER:                 -19.851
REMARK INTRA:                  -6.003
REMARK UNBOUND:                -6.799
REMARK SMILES C=C1C(=O)N[C@H](C)C(=O)N[C@@H](CC(C)C)C(=O)N[C@@H](C(=O)O)[C@H](C)C(=O)N[C@@H](CCCN=C(N)N)C(=O)N[C@@H](/C=C/C(C)=C/[C@H](C)[C@H](Cc2ccccc2)OC)[C@H](C)C(=O)N[C@@H](C(=O)O)CCC(=O)N1C
REMARK SMILES IDX 39 1 38 2 37 3 36 4 28 6 27 7 25 8 26 9 23 11 24 12 19 13
REMARK SMILES IDX 18 14 16 15 17 16 11 18 10 19 8 20 9 21 12 24 13 25 14 26
REMARK SMILES IDX 15 27 20 28 21 29 22 30 29 32 30 33 31 34 32 35 33 36 34 37
REMARK SMILES IDX 35 38 57 43 58 44 59 45 60 46 61 47 62 49 66 50 67 51 68 52
REMARK SMILES IDX 69 53 70 54 71 55 2 56 1 57 3 58 4 59 5 60 6 62 7 63 63 65
REMARK SMILES IDX 64 66 65 67 40 69 41 70 42 71 44 72 43 73 45 74 46 75 47 76
REMARK SMILES IDX 55 77 56 78 48 79 49 80 50 81 54 82 51 83 53 84 52 85
REMARK H PARENT 38 5 27 10 18 17 10 22 22 31 34 39 34 40 35 41 35 42 61 48
REMARK H PARENT 5 61 65 68
REMARK Flexibility Score:  369.900
ROOT
ATOM      1  C   UNL     1       5.000   3.210  -2.030  1.00  0.00     0.117 C 
ENDROOT
BRANCH   1   2
ATOM      2  N   UNL     1       4.080   3.775  -3.019  1.00  0.00    -0.347 N 
ATOM      3  O   UNL     1       3.689   5.781  -1.974  1.00  0.00    -0.273 OA
ATOM      4  C   UNL     1       3.568   5.056  -2.956  1.00  0.00     0.243 C 
ATOM      5  H   UNL     1       3.830   3.229  -3.829  1.00  0.00     0.164 HD
BRANCH   4   6
ATOM      6  C   UNL     1       2.687   5.436  -4.173  1.00  0.00     0.171 C 
BRANCH   6   7
ATOM      7  N   UNL     1       3.497   5.478  -5.401  1.00  0.00    -0.344 N 
ATOM      8  C   UNL     1       4.034   6.666  -5.848  1.00  0.00     0.226 C 
ATOM      9  O   UNL     1       3.851   7.731  -5.272  1.00  0.00    -0.275 OA
ATOM     10  H   UNL     1       3.613   4.630  -5.941  1.00  0.00     0.164 HD
BRANCH   8  11
ATOM     11  C   UNL     1       4.888   6.535  -7.097  1.00  0.00     0.109 C 
ATOM     12  C   UNL     1       5.379   5.095  -7.250  1.00  0.00     0.021 C 
BRANCH  11  13
ATOM     13  C   UNL     1       4.122   7.091  -8.314  1.00  0.00     0.204 C 
BRANCH  13  14
ATOM     14  N   UNL     1       4.181   8.554  -8.381  1.00  0.00    -0.340 N 
ATOM     15  C   UNL     1       3.055   9.350  -8.372  1.00  0.00     0.243 C 
ATOM     16  O   UNL     1       1.922   8.889  -8.247  1.00  0.00    -0.273 OA
ATOM     17  H   UNL     1       5.071   8.988  -8.638  1.00  0.00     0.164 HD
BRANCH  15  18
ATOM     18  C   UNL     1       3.350  10.842  -8.661  1.00  0.00     0.171 C 
BRANCH  18  19
ATOM     19  N   UNL     1       4.792  10.951  -8.871  1.00  0.00    -0.343 N 
ATOM     20  C   UNL     1       5.459  12.154  -8.743  1.00  0.00     0.242 CG0
ATOM     21  O   UNL     1       4.853  13.211  -8.578  1.00  0.00    -0.273 OA
ATOM     22  H   UNL     1       5.322  10.124  -9.123  1.00  0.00     0.164 HD
ATOM     23  G   UNL     1       6.987  12.058  -8.923  1.00  0.00     0.000 G0
ENDBRANCH  18  19
BRANCH  18  24
ATOM     24  C   UNL     1       2.566  11.321  -9.889  1.00  0.00     0.038 C 
BRANCH  24  25
ATOM     25  C   UNL     1       2.959  10.633 -11.213  1.00  0.00    -0.015 C 
ATOM     26  C   UNL     1       3.704  11.572 -12.162  1.00  0.00     0.007 C 
ATOM     27  C   UNL     1       1.705  10.092 -11.904  1.00  0.00     0.007 C 
ENDBRANCH  24  25
ENDBRANCH  18  24
ENDBRANCH  15  18
ENDBRANCH  13  14
BRANCH  13  28
ATOM     28  C   UNL     1       4.642   6.554  -9.651  1.00  0.00     0.327 C 
ATOM     29  O   UNL     1       4.127   5.677 -10.327  1.00  0.00    -0.250 OA
BRANCH  28  30
ATOM     30  O   UNL     1       5.839   7.069  -9.998  1.00  0.00    -0.480 OA
ATOM     31  H   UNL     1       6.383   6.982  -9.188  1.00  0.00     0.296 HD
ENDBRANCH  28  30
ENDBRANCH  13  28
ENDBRANCH  11  13
ENDBRANCH   8  11
ENDBRANCH   6   7
BRANCH   6  32
ATOM     32  C   UNL     1       1.546   4.421  -4.304  1.00  0.00     0.037 C 
BRANCH  32  33
ATOM     33  C   UNL     1       1.360   3.943  -5.751  1.00  0.00     0.026 C 
BRANCH  33  34
ATOM     34  C   UNL     1       0.498   2.683  -5.844  1.00  0.00     0.146 C 
BRANCH  34  35
ATOM     35  N   UNL     1       1.358   1.515  -5.713  1.00  0.00    -0.254 NA
ATOM     36  C   UNL     1       0.977   0.552  -4.959  1.00  0.00     0.185 C 
ATOM     37  N   UNL     1       1.760  -0.531  -4.834  1.00  0.00    -0.370 N 
ATOM     38  N   UNL     1      -0.148   0.445  -4.229  1.00  0.00    -0.370 N 
ATOM     39  H   UNL     1       2.623  -0.531  -5.363  1.00  0.00     0.159 HD
ATOM     40  H   UNL     1       1.457  -1.390  -4.408  1.00  0.00     0.159 HD
ATOM     41  H   UNL     1      -0.270  -0.303  -3.566  1.00  0.00     0.159 HD
ATOM     42  H   UNL     1      -0.823   1.194  -4.215  1.00  0.00     0.159 HD
ENDBRANCH  34  35
ENDBRANCH  33  34
ENDBRANCH  32  33
ENDBRANCH   6  32
ENDBRANCH   4   6
ENDBRANCH   1   2
BRANCH   1  43
ATOM     43  C   UNL     1       6.014   2.289  -2.767  1.00  0.00     0.102 C 
ATOM     44  C   UNL     1       7.060   3.063  -3.587  1.00  0.00     0.020 C 
BRANCH  43  45
ATOM     45  C   UNL     1       5.291   1.195  -3.557  1.00  0.00     0.225 C 
ATOM     46  O   UNL     1       4.155   1.330  -4.004  1.00  0.00    -0.275 OA
ATOM     47  N   UNL     1       5.960  -0.003  -3.658  1.00  0.00    -0.342 N 
ATOM     48  H   UNL     1       6.941  -0.050  -3.422  1.00  0.00     0.164 HD
BRANCH  47  49
ATOM     49  C   UNL     1       5.405  -1.129  -4.416  1.00  0.00     0.192 C 
BRANCH  49  50
ATOM     50  C   UNL     1       5.620  -2.429  -3.636  1.00  0.00     0.047 C 
BRANCH  50  51
ATOM     51  C   UNL     1       4.779  -3.587  -4.192  1.00  0.00     0.103 C 
BRANCH  51  52
ATOM     52  C   UNL     1       3.549  -3.867  -3.330  1.00  0.00     0.226 C 
ATOM     53  O   UNL     1       2.516  -3.219  -3.511  1.00  0.00    -0.275 OA
BRANCH  52  54
ATOM     54  N   UNL     1       3.657  -4.927  -2.411  1.00  0.00    -0.311 N 
ATOM     55  C   UNL     1       3.708  -6.322  -2.868  1.00  0.00     0.153 C 
BRANCH  54  56
ATOM     56  C   UNL     1       3.725  -4.693  -1.027  1.00  0.00     0.102 C 
ATOM     57  C   UNL     1       4.837  -4.341  -0.361  1.00  0.00     0.043 C 
BRANCH  56  58
ATOM     58  C   UNL     1       2.488  -4.782  -0.164  1.00  0.00     0.268 C 
ATOM     59  O   UNL     1       1.398  -4.344  -0.509  1.00  0.00    -0.268 OA
ATOM     60  N   UNL     1       2.698  -5.461   1.012  1.00  0.00    -0.339 N 
ATOM     61  H   UNL     1       3.633  -5.783   1.229  1.00  0.00     0.164 HD
BRANCH  60  62
ATOM     62  C   UNL     1       1.620  -5.717   1.967  1.00  0.00     0.168 CG0
ATOM     63  C   UNL     1       1.182  -7.175   1.920  1.00  0.00     0.041 C 
ATOM     64  G   UNL     1       0.431  -4.780   1.668  1.00  0.00     0.000 G0
ENDBRANCH  60  62
ENDBRANCH  56  58
ENDBRANCH  54  56
ENDBRANCH  52  54
ENDBRANCH  51  52
ENDBRANCH  50  51
ENDBRANCH  49  50
BRANCH  49  65
ATOM     65  C   UNL     1       6.054  -1.254  -5.803  1.00  0.00     0.326 C 
ATOM     66  O   UNL     1       6.966  -2.014  -6.095  1.00  0.00    -0.250 OA
BRANCH  65  67
ATOM     67  O   UNL     1       5.578  -0.392  -6.728  1.00  0.00    -0.480 OA
ATOM     68  H   UNL     1       6.380   0.081  -7.038  1.00  0.00     0.296 HD
ENDBRANCH  65  67
ENDBRANCH  49  65
ENDBRANCH  47  49
ENDBRANCH  43  45
ENDBRANCH   1  43
BRANCH   1  69
ATOM     69  C   UNL     1       4.133   2.618  -0.934  1.00  0.00    -0.001 C 
ATOM     70  C   UNL     1       4.005   3.054   0.332  1.00  0.00     0.001 C 
BRANCH  70  71
ATOM     71  C   UNL     1       3.148   2.486   1.375  1.00  0.00    -0.055 C 
ATOM     72  C   UNL     1       1.825   2.400   1.123  1.00  0.00    -0.018 C 
ATOM     73  C   UNL     1       3.805   2.031   2.652  1.00  0.00     0.044 C 
BRANCH  72  74
ATOM     74  C   UNL     1       0.709   1.859   2.005  1.00  0.00     0.038 C 
ATOM     75  C   UNL     1      -0.320   1.198   1.080  1.00  0.00     0.015 C 
BRANCH  74  76
ATOM     76  C   UNL     1       0.152   3.023   2.877  1.00  0.00     0.128 C 
BRANCH  76  77
ATOM     77  O   UNL     1      -1.253   3.196   2.624  1.00  0.00    -0.381 OA
ATOM     78  C   UNL     1      -1.583   4.466   2.079  1.00  0.00     0.195 C 
ENDBRANCH  76  77
BRANCH  76  79
ATOM     79  C   UNL     1       0.478   2.891   4.386  1.00  0.00     0.068 C 
BRANCH  79  80
ATOM     80  C   UNL     1       1.103   4.077   5.080  1.00  0.00    -0.045 A 
ATOM     81  C   UNL     1       2.484   4.305   5.016  1.00  0.00     0.004 A 
ATOM     82  C   UNL     1       0.308   4.958   5.829  1.00  0.00     0.004 A 
ATOM     83  C   UNL     1       3.057   5.396   5.673  1.00  0.00     0.000 A 
ATOM     84  C   UNL     1       0.882   6.048   6.486  1.00  0.00     0.000 A 
ATOM     85  C   UNL     1       2.255   6.268   6.407  1.00  0.00     0.000 A 
ENDBRANCH  79  80
ENDBRANCH  76  79
ENDBRANCH  74  76
ENDBRANCH  72  74
ENDBRANCH  70  71
ENDBRANCH   1  69
TORSDOF 17
ENDMDL
MODEL 24
REMARK VINA RESULT:    -6.377     12.432     15.807
REMARK INTER + INTRA:         -25.851
REMARK INTER:                 -18.341
REMARK INTRA:                  -7.510
REMARK UNBOUND:                -6.799
REMARK SMILES C=C1C(=O)N[C@H](C)C(=O)N[C@@H](CC(C)C)C(=O)N[C@@H](C(=O)O)[C@H](C)C(=O)N[C@@H](CCCN=C(N)N)C(=O)N[C@@H](/C=C/C(C)=C/[C@H](C)[C@H](Cc2ccccc2)OC)[C@H](C)C(=O)N[C@@H](C(=O)O)CCC(=O)N1C
REMARK SMILES IDX 39 1 38 2 37 3 36 4 28 6 27 7 25 8 26 9 23 11 24 12 19 13
REMARK SMILES IDX 18 14 16 15 17 16 11 18 10 19 8 20 9 21 12 24 13 25 14 26
REMARK SMILES IDX 15 27 20 28 21 29 22 30 29 32 30 33 31 34 32 35 33 36 34 37
REMARK SMILES IDX 35 38 57 43 58 44 59 45 60 46 61 47 62 49 66 50 67 51 68 52
REMARK SMILES IDX 69 53 70 54 71 55 2 56 1 57 3 58 4 59 5 60 6 62 7 63 63 65
REMARK SMILES IDX 64 66 65 67 40 69 41 70 42 71 44 72 43 73 45 74 46 75 47 76
REMARK SMILES IDX 55 77 56 78 48 79 49 80 50 81 54 82 51 83 53 84 52 85
REMARK H PARENT 38 5 27 10 18 17 10 22 22 31 34 39 34 40 35 41 35 42 61 48
REMARK H PARENT 5 61 65 68
REMARK Flexibility Score:  369.900
ROOT
ATOM      1  C   UNL     1      -7.441   4.563   3.335  1.00  0.00     0.117 C 
ENDROOT
BRANCH   1   2
ATOM      2  N   UNL     1      -6.016   4.229   3.316  1.00  0.00    -0.347 N 
ATOM      3  O   UNL     1      -6.189   2.077   4.096  1.00  0.00    -0.273 OA
ATOM      4  C   UNL     1      -5.511   2.978   3.613  1.00  0.00     0.243 C 
ATOM      5  H   UNL     1      -5.348   4.927   3.025  1.00  0.00     0.164 HD
BRANCH   4   6
ATOM      6  C   UNL     1      -3.976   2.867   3.434  1.00  0.00     0.171 C 
BRANCH   6   7
ATOM      7  N   UNL     1      -3.297   2.984   4.734  1.00  0.00    -0.344 N 
ATOM      8  C   UNL     1      -2.504   4.075   5.017  1.00  0.00     0.226 C 
ATOM      9  O   UNL     1      -2.308   4.976   4.210  1.00  0.00    -0.275 OA
ATOM     10  H   UNL     1      -3.380   2.227   5.402  1.00  0.00     0.164 HD
BRANCH   8  11
ATOM     11  C   UNL     1      -1.918   4.076   6.418  1.00  0.00     0.109 C 
ATOM     12  C   UNL     1      -2.548   2.961   7.253  1.00  0.00     0.021 C 
BRANCH  11  13
ATOM     13  C   UNL     1      -0.379   4.037   6.340  1.00  0.00     0.204 C 
BRANCH  13  14
ATOM     14  N   UNL     1       0.096   3.632   5.013  1.00  0.00    -0.340 N 
ATOM     15  C   UNL     1       1.234   2.880   4.823  1.00  0.00     0.243 C 
ATOM     16  O   UNL     1       1.900   2.442   5.760  1.00  0.00    -0.273 OA
ATOM     17  H   UNL     1      -0.321   4.085   4.195  1.00  0.00     0.164 HD
BRANCH  15  18
ATOM     18  C   UNL     1       1.651   2.753   3.337  1.00  0.00     0.171 C 
BRANCH  18  19
ATOM     19  N   UNL     1       2.804   1.855   3.301  1.00  0.00    -0.343 N 
ATOM     20  C   UNL     1       3.837   2.031   2.400  1.00  0.00     0.242 CG0
ATOM     21  O   UNL     1       3.772   2.867   1.502  1.00  0.00    -0.273 OA
ATOM     22  H   UNL     1       2.849   1.077   3.949  1.00  0.00     0.164 HD
ATOM     23  G   UNL     1       5.002   1.033   2.565  1.00  0.00     0.000 G0
ENDBRANCH  18  19
BRANCH  18  24
ATOM     24  C   UNL     1       0.491   2.212   2.493  1.00  0.00     0.038 C 
BRANCH  24  25
ATOM     25  C   UNL     1       0.330   0.677   2.528  1.00  0.00    -0.015 C 
ATOM     26  C   UNL     1      -0.466   0.145   1.336  1.00  0.00     0.007 C 
ATOM     27  C   UNL     1      -0.356   0.261   3.832  1.00  0.00     0.007 C 
ENDBRANCH  24  25
ENDBRANCH  18  24
ENDBRANCH  15  18
ENDBRANCH  13  14
BRANCH  13  28
ATOM     28  C   UNL     1       0.276   5.383   6.666  1.00  0.00     0.327 C 
ATOM     29  O   UNL     1       1.018   6.021   5.935  1.00  0.00    -0.250 OA
BRANCH  28  30
ATOM     30  O   UNL     1       0.054   5.786   7.933  1.00  0.00    -0.480 OA
ATOM     31  H   UNL     1      -0.616   5.157   8.272  1.00  0.00     0.296 HD
ENDBRANCH  28  30
ENDBRANCH  13  28
ENDBRANCH  11  13
ENDBRANCH   8  11
ENDBRANCH   6   7
BRANCH   6  32
ATOM     32  C   UNL     1      -3.643   1.530   2.761  1.00  0.00     0.037 C 
BRANCH  32  33
ATOM     33  C   UNL     1      -4.117   1.483   1.302  1.00  0.00     0.026 C 
BRANCH  33  34
ATOM     34  C   UNL     1      -3.971   2.831   0.595  1.00  0.00     0.146 C 
BRANCH  34  35
ATOM     35  N   UNL     1      -2.584   2.999   0.185  1.00  0.00    -0.254 NA
ATOM     36  C   UNL     1      -2.005   4.117   0.420  1.00  0.00     0.185 C 
ATOM     37  N   UNL     1      -0.725   4.281   0.050  1.00  0.00    -0.370 N 
ATOM     38  N   UNL     1      -2.501   5.217   1.012  1.00  0.00    -0.370 N 
ATOM     39  H   UNL     1      -0.276   3.491  -0.395  1.00  0.00     0.159 HD
ATOM     40  H   UNL     1      -0.154   5.052   0.350  1.00  0.00     0.159 HD
ATOM     41  H   UNL     1      -1.989   6.084   1.014  1.00  0.00     0.159 HD
ATOM     42  H   UNL     1      -3.459   5.242   1.327  1.00  0.00     0.159 HD
ENDBRANCH  34  35
ENDBRANCH  33  34
ENDBRANCH  32  33
ENDBRANCH   6  32
ENDBRANCH   4   6
ENDBRANCH   1   2
BRANCH   1  43
ATOM     43  C   UNL     1      -7.755   5.461   2.104  1.00  0.00     0.102 C 
ATOM     44  C   UNL     1      -7.166   6.878   2.214  1.00  0.00     0.020 C 
BRANCH  43  45
ATOM     45  C   UNL     1      -9.249   5.434   1.769  1.00  0.00     0.225 C 
ATOM     46  O   UNL     1      -9.841   6.382   1.263  1.00  0.00    -0.275 OA
ATOM     47  N   UNL     1      -9.923   4.299   2.161  1.00  0.00    -0.342 N 
ATOM     48  H   UNL     1      -9.403   3.477   2.434  1.00  0.00     0.164 HD
BRANCH  47  49
ATOM     49  C   UNL     1     -11.350   4.119   1.876  1.00  0.00     0.192 C 
BRANCH  49  50
ATOM     50  C   UNL     1     -12.154   4.252   3.171  1.00  0.00     0.047 C 
BRANCH  50  51
ATOM     51  C   UNL     1     -13.098   5.462   3.148  1.00  0.00     0.103 C 
BRANCH  51  52
ATOM     52  C   UNL     1     -14.565   5.044   3.074  1.00  0.00     0.226 C 
ATOM     53  O   UNL     1     -15.004   4.538   2.039  1.00  0.00    -0.275 OA
BRANCH  52  54
ATOM     54  N   UNL     1     -15.321   5.199   4.251  1.00  0.00    -0.311 N 
ATOM     55  C   UNL     1     -14.991   4.445   5.467  1.00  0.00     0.153 C 
BRANCH  54  56
ATOM     56  C   UNL     1     -16.413   6.082   4.309  1.00  0.00     0.102 C 
ATOM     57  C   UNL     1     -16.318   7.410   4.487  1.00  0.00     0.043 C 
BRANCH  56  58
ATOM     58  C   UNL     1     -17.825   5.582   4.121  1.00  0.00     0.268 C 
ATOM     59  O   UNL     1     -18.719   5.780   4.933  1.00  0.00    -0.268 OA
ATOM     60  N   UNL     1     -18.017   4.941   2.920  1.00  0.00    -0.339 N 
ATOM     61  H   UNL     1     -17.222   4.808   2.307  1.00  0.00     0.164 HD
BRANCH  60  62
ATOM     62  C   UNL     1     -19.325   4.433   2.509  1.00  0.00     0.168 CG0
ATOM     63  C   UNL     1     -19.748   5.030   1.172  1.00  0.00     0.041 C 
ATOM     64  G   UNL     1     -20.368   4.746   3.601  1.00  0.00     0.000 G0
ENDBRANCH  60  62
ENDBRANCH  56  58
ENDBRANCH  54  56
ENDBRANCH  52  54
ENDBRANCH  51  52
ENDBRANCH  50  51
ENDBRANCH  49  50
BRANCH  49  65
ATOM     65  C   UNL     1     -11.631   2.748   1.240  1.00  0.00     0.326 C 
ATOM     66  O   UNL     1     -12.721   2.197   1.193  1.00  0.00    -0.250 OA
BRANCH  65  67
ATOM     67  O   UNL     1     -10.539   2.116   0.757  1.00  0.00    -0.480 OA
ATOM     68  H   UNL     1     -10.186   2.743   0.089  1.00  0.00     0.296 HD
ENDBRANCH  65  67
ENDBRANCH  49  65
ENDBRANCH  47  49
ENDBRANCH  43  45
ENDBRANCH   1  43
BRANCH   1  69
ATOM     69  C   UNL     1      -7.733   5.096   4.725  1.00  0.00    -0.001 C 
ATOM     70  C   UNL     1      -8.227   4.415   5.774  1.00  0.00     0.001 C 
BRANCH  70  71
ATOM     71  C   UNL     1      -8.485   4.936   7.118  1.00  0.00    -0.055 C 
ATOM     72  C   UNL     1      -9.739   5.347   7.402  1.00  0.00    -0.018 C 
ATOM     73  C   UNL     1      -7.336   4.968   8.092  1.00  0.00     0.044 C 
BRANCH  72  74
ATOM     74  C   UNL     1     -10.294   5.922   8.697  1.00  0.00     0.038 C 
ATOM     75  C   UNL     1     -10.796   4.742   9.538  1.00  0.00     0.015 C 
BRANCH  74  76
ATOM     76  C   UNL     1     -11.379   6.984   8.349  1.00  0.00     0.128 C 
BRANCH  76  77
ATOM     77  O   UNL     1     -10.823   8.306   8.455  1.00  0.00    -0.381 OA
ATOM     78  C   UNL     1     -11.540   9.157   9.340  1.00  0.00     0.195 C 
ENDBRANCH  76  77
BRANCH  76  79
ATOM     79  C   UNL     1     -12.088   6.738   6.994  1.00  0.00     0.068 C 
BRANCH  79  80
ATOM     80  C   UNL     1     -11.813   7.704   5.867  1.00  0.00    -0.045 A 
ATOM     81  C   UNL     1     -10.700   7.540   5.031  1.00  0.00     0.004 A 
ATOM     82  C   UNL     1     -12.658   8.804   5.656  1.00  0.00     0.004 A 
ATOM     83  C   UNL     1     -10.445   8.446   3.999  1.00  0.00     0.000 A 
ATOM     84  C   UNL     1     -12.401   9.710   4.624  1.00  0.00     0.000 A 
ATOM     85  C   UNL     1     -11.296   9.530   3.796  1.00  0.00     0.000 A 
ENDBRANCH  79  80
ENDBRANCH  76  79
ENDBRANCH  74  76
ENDBRANCH  72  74
ENDBRANCH  70  71
ENDBRANCH   1  69
TORSDOF 17
ENDMDL
MODEL 25
REMARK VINA RESULT:    -6.368      9.045     13.659
REMARK INTER + INTRA:         -25.825
REMARK INTER:                 -18.864
REMARK INTRA:                  -6.961
REMARK UNBOUND:                -6.799
REMARK SMILES C=C1C(=O)N[C@H](C)C(=O)N[C@@H](CC(C)C)C(=O)N[C@@H](C(=O)O)[C@H](C)C(=O)N[C@@H](CCCN=C(N)N)C(=O)N[C@@H](/C=C/C(C)=C/[C@H](C)[C@H](Cc2ccccc2)OC)[C@H](C)C(=O)N[C@@H](C(=O)O)CCC(=O)N1C
REMARK SMILES IDX 39 1 38 2 37 3 36 4 28 6 27 7 25 8 26 9 23 11 24 12 19 13
REMARK SMILES IDX 18 14 16 15 17 16 11 18 10 19 8 20 9 21 12 24 13 25 14 26
REMARK SMILES IDX 15 27 20 28 21 29 22 30 29 32 30 33 31 34 32 35 33 36 34 37
REMARK SMILES IDX 35 38 57 43 58 44 59 45 60 46 61 47 62 49 66 50 67 51 68 52
REMARK SMILES IDX 69 53 70 54 71 55 2 56 1 57 3 58 4 59 5 60 6 62 7 63 63 65
REMARK SMILES IDX 64 66 65 67 40 69 41 70 42 71 44 72 43 73 45 74 46 75 47 76
REMARK SMILES IDX 55 77 56 78 48 79 49 80 50 81 54 82 51 83 53 84 52 85
REMARK H PARENT 38 5 27 10 18 17 10 22 22 31 34 39 34 40 35 41 35 42 61 48
REMARK H PARENT 5 61 65 68
REMARK Flexibility Score:  369.900
ROOT
ATOM      1  C   UNL     1      -8.583  -6.018  -2.968  1.00  0.00     0.117 C 
ENDROOT
BRANCH   1   2
ATOM      2  N   UNL     1      -7.764  -5.122  -3.786  1.00  0.00    -0.347 N 
ATOM      3  O   UNL     1      -9.195  -4.933  -5.571  1.00  0.00    -0.273 OA
ATOM      4  C   UNL     1      -8.178  -4.577  -4.986  1.00  0.00     0.243 C 
ATOM      5  H   UNL     1      -6.859  -4.833  -3.447  1.00  0.00     0.164 HD
BRANCH   4   6
ATOM      6  C   UNL     1      -7.155  -3.592  -5.608  1.00  0.00     0.171 C 
BRANCH   6   7
ATOM      7  N   UNL     1      -5.841  -4.238  -5.754  1.00  0.00    -0.344 N 
ATOM      8  C   UNL     1      -4.756  -3.794  -5.031  1.00  0.00     0.226 C 
ATOM      9  O   UNL     1      -4.819  -2.842  -4.261  1.00  0.00    -0.275 OA
ATOM     10  H   UNL     1      -5.734  -4.984  -6.430  1.00  0.00     0.164 HD
BRANCH   8  11
ATOM     11  C   UNL     1      -3.486  -4.598  -5.250  1.00  0.00     0.109 C 
ATOM     12  C   UNL     1      -2.268  -3.790  -4.804  1.00  0.00     0.021 C 
BRANCH  11  13
ATOM     13  C   UNL     1      -3.624  -5.983  -4.587  1.00  0.00     0.204 C 
BRANCH  13  14
ATOM     14  N   UNL     1      -2.464  -6.839  -4.850  1.00  0.00    -0.340 N 
ATOM     15  C   UNL     1      -2.432  -7.761  -5.874  1.00  0.00     0.243 C 
ATOM     16  O   UNL     1      -3.354  -7.889  -6.678  1.00  0.00    -0.273 OA
ATOM     17  H   UNL     1      -1.733  -6.891  -4.136  1.00  0.00     0.164 HD
BRANCH  15  18
ATOM     18  C   UNL     1      -1.194  -8.691  -5.830  1.00  0.00     0.171 C 
BRANCH  18  19
ATOM     19  N   UNL     1      -0.808  -8.940  -7.217  1.00  0.00    -0.343 N 
ATOM     20  C   UNL     1      -1.025 -10.161  -7.826  1.00  0.00     0.242 CG0
ATOM     21  O   UNL     1      -1.430 -11.133  -7.193  1.00  0.00    -0.273 OA
ATOM     22  H   UNL     1      -0.363  -8.201  -7.750  1.00  0.00     0.164 HD
ATOM     23  G   UNL     1      -0.625 -10.210  -9.315  1.00  0.00     0.000 G0
ENDBRANCH  18  19
BRANCH  18  24
ATOM     24  C   UNL     1      -0.055  -8.039  -5.038  1.00  0.00     0.038 C 
BRANCH  24  25
ATOM     25  C   UNL     1       0.583  -8.943  -3.962  1.00  0.00    -0.015 C 
ATOM     26  C   UNL     1      -0.343 -10.081  -3.531  1.00  0.00     0.007 C 
ATOM     27  C   UNL     1       0.965  -8.100  -2.742  1.00  0.00     0.007 C 
ENDBRANCH  24  25
ENDBRANCH  18  24
ENDBRANCH  15  18
ENDBRANCH  13  14
BRANCH  13  28
ATOM     28  C   UNL     1      -3.798  -5.909  -3.067  1.00  0.00     0.327 C 
ATOM     29  O   UNL     1      -4.856  -5.810  -2.464  1.00  0.00    -0.250 OA
BRANCH  28  30
ATOM     30  O   UNL     1      -2.626  -5.844  -2.403  1.00  0.00    -0.480 OA
ATOM     31  H   UNL     1      -2.228  -6.730  -2.529  1.00  0.00     0.296 HD
ENDBRANCH  28  30
ENDBRANCH  13  28
ENDBRANCH  11  13
ENDBRANCH   8  11
ENDBRANCH   6   7
BRANCH   6  32
ATOM     32  C   UNL     1      -7.682  -3.110  -6.964  1.00  0.00     0.037 C 
BRANCH  32  33
ATOM     33  C   UNL     1      -6.678  -3.362  -8.098  1.00  0.00     0.026 C 
BRANCH  33  34
ATOM     34  C   UNL     1      -7.143  -4.457  -9.059  1.00  0.00     0.146 C 
BRANCH  34  35
ATOM     35  N   UNL     1      -7.241  -5.713  -8.329  1.00  0.00    -0.254 NA
ATOM     36  C   UNL     1      -8.391  -6.263  -8.204  1.00  0.00     0.185 C 
ATOM     37  N   UNL     1      -8.492  -7.423  -7.537  1.00  0.00    -0.370 N 
ATOM     38  N   UNL     1      -9.584  -5.841  -8.661  1.00  0.00    -0.370 N 
ATOM     39  H   UNL     1      -7.633  -7.812  -7.170  1.00  0.00     0.159 HD
ATOM     40  H   UNL     1      -9.316  -7.999  -7.545  1.00  0.00     0.159 HD
ATOM     41  H   UNL     1     -10.439  -6.291  -8.378  1.00  0.00     0.159 HD
ATOM     42  H   UNL     1      -9.660  -4.973  -9.168  1.00  0.00     0.159 HD
ENDBRANCH  34  35
ENDBRANCH  33  34
ENDBRANCH  32  33
ENDBRANCH   6  32
ENDBRANCH   4   6
ENDBRANCH   1   2
BRANCH   1  43
ATOM     43  C   UNL     1      -8.940  -5.289  -1.641  1.00  0.00     0.102 C 
ATOM     44  C   UNL     1      -9.558  -6.216  -0.580  1.00  0.00     0.020 C 
BRANCH  43  45
ATOM     45  C   UNL     1      -9.759  -4.023  -1.911  1.00  0.00     0.225 C 
ATOM     46  O   UNL     1      -9.248  -2.926  -2.120  1.00  0.00    -0.275 OA
ATOM     47  N   UNL     1     -11.124  -4.168  -1.814  1.00  0.00    -0.342 N 
ATOM     48  H   UNL     1     -11.528  -5.093  -1.794  1.00  0.00     0.164 HD
BRANCH  47  49
ATOM     49  C   UNL     1     -12.034  -3.050  -2.082  1.00  0.00     0.192 C 
BRANCH  49  50
ATOM     50  C   UNL     1     -13.356  -3.275  -1.344  1.00  0.00     0.047 C 
BRANCH  50  51
ATOM     51  C   UNL     1     -13.440  -2.466  -0.042  1.00  0.00     0.103 C 
BRANCH  51  52
ATOM     52  C   UNL     1     -14.688  -2.812   0.768  1.00  0.00     0.226 C 
ATOM     53  O   UNL     1     -14.793  -3.928   1.280  1.00  0.00    -0.275 OA
BRANCH  52  54
ATOM     54  N   UNL     1     -15.628  -1.779   0.943  1.00  0.00    -0.311 N 
ATOM     55  C   UNL     1     -15.437  -0.750   1.974  1.00  0.00     0.153 C 
BRANCH  54  56
ATOM     56  C   UNL     1     -16.776  -1.689   0.139  1.00  0.00     0.102 C 
ATOM     57  C   UNL     1     -16.822  -1.113  -1.073  1.00  0.00     0.043 C 
BRANCH  56  58
ATOM     58  C   UNL     1     -18.084  -2.300   0.585  1.00  0.00     0.268 C 
ATOM     59  O   UNL     1     -18.185  -3.023   1.567  1.00  0.00    -0.268 OA
ATOM     60  N   UNL     1     -19.153  -1.908  -0.185  1.00  0.00    -0.339 N 
ATOM     61  H   UNL     1     -18.984  -1.315  -0.988  1.00  0.00     0.164 HD
BRANCH  60  62
ATOM     62  C   UNL     1     -20.521  -2.332   0.109  1.00  0.00     0.168 CG0
ATOM     63  C   UNL     1     -20.895  -3.569  -0.698  1.00  0.00     0.041 C 
ATOM     64  G   UNL     1     -21.496  -1.173  -0.186  1.00  0.00     0.000 G0
ENDBRANCH  60  62
ENDBRANCH  56  58
ENDBRANCH  54  56
ENDBRANCH  52  54
ENDBRANCH  51  52
ENDBRANCH  50  51
ENDBRANCH  49  50
BRANCH  49  65
ATOM     65  C   UNL     1     -12.311  -2.893  -3.586  1.00  0.00     0.326 C 
ATOM     66  O   UNL     1     -13.345  -2.466  -4.077  1.00  0.00    -0.250 OA
BRANCH  65  67
ATOM     67  O   UNL     1     -11.317  -3.329  -4.391  1.00  0.00    -0.480 OA
ATOM     68  H   UNL     1     -11.281  -2.653  -5.101  1.00  0.00     0.296 HD
ENDBRANCH  65  67
ENDBRANCH  49  65
ENDBRANCH  47  49
ENDBRANCH  43  45
ENDBRANCH   1  43
BRANCH   1  69
ATOM     69  C   UNL     1      -7.833  -7.335  -2.902  1.00  0.00    -0.001 C 
ATOM     70  C   UNL     1      -7.322  -8.037  -3.929  1.00  0.00     0.001 C 
BRANCH  70  71
ATOM     71  C   UNL     1      -6.581  -9.298  -3.851  1.00  0.00    -0.055 C 
ATOM     72  C   UNL     1      -7.267 -10.443  -4.052  1.00  0.00    -0.018 C 
ATOM     73  C   UNL     1      -5.105  -9.227  -3.561  1.00  0.00     0.044 C 
BRANCH  72  74
ATOM     74  C   UNL     1      -6.768 -11.880  -4.035  1.00  0.00     0.038 C 
ATOM     75  C   UNL     1      -7.447 -12.609  -5.201  1.00  0.00     0.015 C 
BRANCH  74  76
ATOM     76  C   UNL     1      -7.048 -12.491  -2.631  1.00  0.00     0.128 C 
BRANCH  76  77
ATOM     77  O   UNL     1      -6.324 -11.762  -1.625  1.00  0.00    -0.381 OA
ATOM     78  C   UNL     1      -4.982 -12.197  -1.458  1.00  0.00     0.195 C 
ENDBRANCH  76  77
BRANCH  76  79
ATOM     79  C   UNL     1      -8.554 -12.639  -2.297  1.00  0.00     0.068 C 
BRANCH  79  80
ATOM     80  C   UNL     1      -9.212 -11.542  -1.497  1.00  0.00    -0.045 A 
ATOM     81  C   UNL     1     -10.067 -10.616  -2.109  1.00  0.00     0.004 A 
ATOM     82  C   UNL     1      -8.953 -11.414  -0.124  1.00  0.00     0.004 A 
ATOM     83  C   UNL     1     -10.661  -9.595  -1.365  1.00  0.00     0.000 A 
ATOM     84  C   UNL     1      -9.547 -10.392   0.619  1.00  0.00     0.000 A 
ATOM     85  C   UNL     1     -10.402  -9.484  -0.001  1.00  0.00     0.000 A 
ENDBRANCH  79  80
ENDBRANCH  76  79
ENDBRANCH  74  76
ENDBRANCH  72  74
ENDBRANCH  70  71
ENDBRANCH   1  69
TORSDOF 17
ENDMDL
MODEL 26
REMARK VINA RESULT:    -6.350     12.100     15.917
REMARK INTER + INTRA:         -25.772
REMARK INTER:                 -18.698
REMARK INTRA:                  -7.073
REMARK UNBOUND:                -6.799
REMARK SMILES C=C1C(=O)N[C@H](C)C(=O)N[C@@H](CC(C)C)C(=O)N[C@@H](C(=O)O)[C@H](C)C(=O)N[C@@H](CCCN=C(N)N)C(=O)N[C@@H](/C=C/C(C)=C/[C@H](C)[C@H](Cc2ccccc2)OC)[C@H](C)C(=O)N[C@@H](C(=O)O)CCC(=O)N1C
REMARK SMILES IDX 39 1 38 2 37 3 36 4 28 6 27 7 25 8 26 9 23 11 24 12 19 13
REMARK SMILES IDX 18 14 16 15 17 16 11 18 10 19 8 20 9 21 12 24 13 25 14 26
REMARK SMILES IDX 15 27 20 28 21 29 22 30 29 32 30 33 31 34 32 35 33 36 34 37
REMARK SMILES IDX 35 38 57 43 58 44 59 45 60 46 61 47 62 49 66 50 67 51 68 52
REMARK SMILES IDX 69 53 70 54 71 55 2 56 1 57 3 58 4 59 5 60 6 62 7 63 63 65
REMARK SMILES IDX 64 66 65 67 40 69 41 70 42 71 44 72 43 73 45 74 46 75 47 76
REMARK SMILES IDX 55 77 56 78 48 79 49 80 50 81 54 82 51 83 53 84 52 85
REMARK H PARENT 38 5 27 10 18 17 10 22 22 31 34 39 34 40 35 41 35 42 61 48
REMARK H PARENT 5 61 65 68
REMARK Flexibility Score:  369.900
ROOT
ATOM      1  C   UNL     1      -2.684   6.107  -5.196  1.00  0.00     0.117 C 
ENDROOT
BRANCH   1   2
ATOM      2  N   UNL     1      -2.116   5.348  -4.082  1.00  0.00    -0.347 N 
ATOM      3  O   UNL     1      -3.710   3.699  -3.980  1.00  0.00    -0.273 OA
ATOM      4  C   UNL     1      -2.627   4.150  -3.621  1.00  0.00     0.243 C 
ATOM      5  H   UNL     1      -1.270   5.676  -3.641  1.00  0.00     0.164 HD
BRANCH   4   6
ATOM      6  C   UNL     1      -1.787   3.508  -2.488  1.00  0.00     0.171 C 
BRANCH   6   7
ATOM      7  N   UNL     1      -2.640   3.194  -1.330  1.00  0.00    -0.344 N 
ATOM      8  C   UNL     1      -2.091   2.701  -0.166  1.00  0.00     0.226 C 
ATOM      9  O   UNL     1      -0.892   2.481  -0.043  1.00  0.00    -0.275 OA
ATOM     10  H   UNL     1      -3.643   3.299  -1.417  1.00  0.00     0.164 HD
BRANCH   8  11
ATOM     11  C   UNL     1      -3.093   2.480   0.953  1.00  0.00     0.109 C 
ATOM     12  C   UNL     1      -3.351   0.985   1.140  1.00  0.00     0.021 C 
BRANCH  11  13
ATOM     13  C   UNL     1      -2.629   3.221   2.223  1.00  0.00     0.204 C 
BRANCH  13  14
ATOM     14  N   UNL     1      -1.319   2.754   2.687  1.00  0.00    -0.340 N 
ATOM     15  C   UNL     1      -1.150   2.031   3.848  1.00  0.00     0.243 C 
ATOM     16  O   UNL     1      -2.097   1.675   4.547  1.00  0.00    -0.273 OA
ATOM     17  H   UNL     1      -0.484   3.142   2.239  1.00  0.00     0.164 HD
BRANCH  15  18
ATOM     18  C   UNL     1       0.334   1.830   4.242  1.00  0.00     0.171 C 
BRANCH  18  19
ATOM     19  N   UNL     1       0.416   0.534   4.912  1.00  0.00    -0.343 N 
ATOM     20  C   UNL     1       0.477   0.428   6.288  1.00  0.00     0.242 CG0
ATOM     21  O   UNL     1       0.598   1.419   7.005  1.00  0.00    -0.273 OA
ATOM     22  H   UNL     1       0.436  -0.313   4.356  1.00  0.00     0.164 HD
ATOM     23  G   UNL     1       0.480  -1.022   6.816  1.00  0.00     0.000 G0
ENDBRANCH  18  19
BRANCH  18  24
ATOM     24  C   UNL     1       1.234   1.880   3.001  1.00  0.00     0.038 C 
BRANCH  24  25
ATOM     25  C   UNL     1       2.502   2.745   3.160  1.00  0.00    -0.015 C 
ATOM     26  C   UNL     1       3.763   2.031   2.673  1.00  0.00     0.007 C 
ATOM     27  C   UNL     1       2.671   3.146   4.628  1.00  0.00     0.007 C 
ENDBRANCH  24  25
ENDBRANCH  18  24
ENDBRANCH  15  18
ENDBRANCH  13  14
BRANCH  13  28
ATOM     28  C   UNL     1      -2.529   4.738   2.033  1.00  0.00     0.327 C 
ATOM     29  O   UNL     1      -3.190   5.584   2.615  1.00  0.00    -0.250 OA
BRANCH  28  30
ATOM     30  O   UNL     1      -1.688   5.093   1.040  1.00  0.00    -0.480 OA
ATOM     31  H   UNL     1      -1.136   5.801   1.433  1.00  0.00     0.296 HD
ENDBRANCH  28  30
ENDBRANCH  13  28
ENDBRANCH  11  13
ENDBRANCH   8  11
ENDBRANCH   6   7
BRANCH   6  32
ATOM     32  C   UNL     1      -1.103   2.245  -3.022  1.00  0.00     0.037 C 
BRANCH  32  33
ATOM     33  C   UNL     1       0.140   2.571  -3.862  1.00  0.00     0.026 C 
BRANCH  33  34
ATOM     34  C   UNL     1       1.439   2.149  -3.173  1.00  0.00     0.146 C 
BRANCH  34  35
ATOM     35  N   UNL     1       2.074   3.330  -2.604  1.00  0.00    -0.254 NA
ATOM     36  C   UNL     1       2.261   3.378  -1.338  1.00  0.00     0.185 C 
ATOM     37  N   UNL     1       2.849   4.460  -0.804  1.00  0.00    -0.370 N 
ATOM     38  N   UNL     1       1.945   2.465  -0.402  1.00  0.00    -0.370 N 
ATOM     39  H   UNL     1       3.127   5.190  -1.448  1.00  0.00     0.159 HD
ATOM     40  H   UNL     1       3.186   4.499   0.143  1.00  0.00     0.159 HD
ATOM     41  H   UNL     1       2.017   2.679   0.579  1.00  0.00     0.159 HD
ATOM     42  H   UNL     1       1.482   1.608  -0.659  1.00  0.00     0.159 HD
ENDBRANCH  34  35
ENDBRANCH  33  34
ENDBRANCH  32  33
ENDBRANCH   6  32
ENDBRANCH   4   6
ENDBRANCH   1   2
BRANCH   1  43
ATOM     43  C   UNL     1      -1.527   6.546  -6.138  1.00  0.00     0.102 C 
ATOM     44  C   UNL     1      -0.967   5.398  -6.996  1.00  0.00     0.020 C 
BRANCH  43  45
ATOM     45  C   UNL     1      -0.456   7.325  -5.369  1.00  0.00     0.225 C 
ATOM     46  O   UNL     1      -0.675   8.401  -4.819  1.00  0.00    -0.275 OA
ATOM     47  N   UNL     1       0.810   6.789  -5.407  1.00  0.00    -0.342 N 
ATOM     48  H   UNL     1       0.942   5.840  -5.728  1.00  0.00     0.164 HD
BRANCH  47  49
ATOM     49  C   UNL     1       1.927   7.407  -4.687  1.00  0.00     0.192 C 
BRANCH  49  50
ATOM     50  C   UNL     1       2.788   8.211  -5.664  1.00  0.00     0.047 C 
BRANCH  50  51
ATOM     51  C   UNL     1       2.852   7.561  -7.053  1.00  0.00     0.103 C 
BRANCH  51  52
ATOM     52  C   UNL     1       4.243   7.014  -7.367  1.00  0.00     0.226 C 
ATOM     53  O   UNL     1       4.963   6.616  -6.449  1.00  0.00    -0.275 OA
BRANCH  52  54
ATOM     54  N   UNL     1       4.591   6.929  -8.727  1.00  0.00    -0.311 N 
ATOM     55  C   UNL     1       5.709   6.085  -9.171  1.00  0.00     0.153 C 
BRANCH  54  56
ATOM     56  C   UNL     1       3.883   7.639  -9.710  1.00  0.00     0.102 C 
ATOM     57  C   UNL     1       2.823   7.167 -10.386  1.00  0.00     0.043 C 
BRANCH  56  58
ATOM     58  C   UNL     1       4.254   9.062 -10.057  1.00  0.00     0.268 C 
ATOM     59  O   UNL     1       5.284   9.360 -10.648  1.00  0.00    -0.268 OA
ATOM     60  N   UNL     1       3.290   9.974  -9.702  1.00  0.00    -0.339 N 
ATOM     61  H   UNL     1       2.469   9.647  -9.206  1.00  0.00     0.164 HD
BRANCH  60  62
ATOM     62  C   UNL     1       3.418  11.400 -10.001  1.00  0.00     0.168 CG0
ATOM     63  C   UNL     1       2.572  11.783 -11.209  1.00  0.00     0.041 C 
ATOM     64  G   UNL     1       4.902  11.746 -10.242  1.00  0.00     0.000 G0
ENDBRANCH  60  62
ENDBRANCH  56  58
ENDBRANCH  54  56
ENDBRANCH  52  54
ENDBRANCH  51  52
ENDBRANCH  50  51
ENDBRANCH  49  50
BRANCH  49  65
ATOM     65  C   UNL     1       2.800   6.356  -3.985  1.00  0.00     0.326 C 
ATOM     66  O   UNL     1       3.411   6.523  -2.939  1.00  0.00    -0.250 OA
BRANCH  65  67
ATOM     67  O   UNL     1       2.914   5.184  -4.648  1.00  0.00    -0.480 OA
ATOM     68  H   UNL     1       2.038   4.761  -4.522  1.00  0.00     0.296 HD
ENDBRANCH  65  67
ENDBRANCH  49  65
ENDBRANCH  47  49
ENDBRANCH  43  45
ENDBRANCH   1  43
BRANCH   1  69
ATOM     69  C   UNL     1      -3.569   7.173  -4.575  1.00  0.00    -0.001 C 
ATOM     70  C   UNL     1      -4.381   8.034  -5.213  1.00  0.00     0.001 C 
BRANCH  70  71
ATOM     71  C   UNL     1      -5.246   9.044  -4.602  1.00  0.00    -0.055 C 
ATOM     72  C   UNL     1      -4.766   9.720  -3.537  1.00  0.00    -0.018 C 
ATOM     73  C   UNL     1      -6.608   9.264  -5.209  1.00  0.00     0.044 C 
BRANCH  72  74
ATOM     74  C   UNL     1      -5.429  10.814  -2.711  1.00  0.00     0.038 C 
ATOM     75  C   UNL     1      -4.549  12.064  -2.826  1.00  0.00     0.015 C 
BRANCH  74  76
ATOM     76  C   UNL     1      -5.634  10.290  -1.259  1.00  0.00     0.128 C 
BRANCH  76  77
ATOM     77  O   UNL     1      -5.761  11.398  -0.351  1.00  0.00    -0.381 OA
ATOM     78  C   UNL     1      -7.084  11.594   0.129  1.00  0.00     0.195 C 
ENDBRANCH  76  77
BRANCH  76  79
ATOM     79  C   UNL     1      -6.786   9.264  -1.117  1.00  0.00     0.068 C 
BRANCH  79  80
ATOM     80  C   UNL     1      -6.431   7.853  -0.713  1.00  0.00    -0.045 A 
ATOM     81  C   UNL     1      -7.313   7.077   0.049  1.00  0.00     0.004 A 
ATOM     82  C   UNL     1      -5.191   7.305  -1.075  1.00  0.00     0.004 A 
ATOM     83  C   UNL     1      -6.971   5.778   0.431  1.00  0.00     0.000 A 
ATOM     84  C   UNL     1      -4.849   6.006  -0.692  1.00  0.00     0.000 A 
ATOM     85  C   UNL     1      -5.740   5.242   0.059  1.00  0.00     0.000 A 
ENDBRANCH  79  80
ENDBRANCH  76  79
ENDBRANCH  74  76
ENDBRANCH  72  74
ENDBRANCH  70  71
ENDBRANCH   1  69
TORSDOF 17
ENDMDL
MODEL 27
REMARK VINA RESULT:    -6.335      5.548     10.796
REMARK INTER + INTRA:         -25.725
REMARK INTER:                 -18.382
REMARK INTRA:                  -7.342
REMARK UNBOUND:                -6.799
REMARK SMILES C=C1C(=O)N[C@H](C)C(=O)N[C@@H](CC(C)C)C(=O)N[C@@H](C(=O)O)[C@H](C)C(=O)N[C@@H](CCCN=C(N)N)C(=O)N[C@@H](/C=C/C(C)=C/[C@H](C)[C@H](Cc2ccccc2)OC)[C@H](C)C(=O)N[C@@H](C(=O)O)CCC(=O)N1C
REMARK SMILES IDX 39 1 38 2 37 3 36 4 28 6 27 7 25 8 26 9 23 11 24 12 19 13
REMARK SMILES IDX 18 14 16 15 17 16 11 18 10 19 8 20 9 21 12 24 13 25 14 26
REMARK SMILES IDX 15 27 20 28 21 29 22 30 29 32 30 33 31 34 32 35 33 36 34 37
REMARK SMILES IDX 35 38 57 43 58 44 59 45 60 46 61 47 62 49 66 50 67 51 68 52
REMARK SMILES IDX 69 53 70 54 71 55 2 56 1 57 3 58 4 59 5 60 6 62 7 63 63 65
REMARK SMILES IDX 64 66 65 67 40 69 41 70 42 71 44 72 43 73 45 74 46 75 47 76
REMARK SMILES IDX 55 77 56 78 48 79 49 80 50 81 54 82 51 83 53 84 52 85
REMARK H PARENT 38 5 27 10 18 17 10 22 22 31 34 39 34 40 35 41 35 42 61 48
REMARK H PARENT 5 61 65 68
REMARK Flexibility Score:  369.900
ROOT
ATOM      1  C   UNL     1      -9.987   6.885  -8.148  1.00  0.00     0.117 C 
ENDROOT
BRANCH   1   2
ATOM      2  N   UNL     1     -10.444   5.597  -7.626  1.00  0.00    -0.347 N 
ATOM      3  O   UNL     1      -9.644   4.271  -9.320  1.00  0.00    -0.273 OA
ATOM      4  C   UNL     1     -10.155   4.379  -8.211  1.00  0.00     0.243 C 
ATOM      5  H   UNL     1     -10.962   5.570  -6.761  1.00  0.00     0.164 HD
BRANCH   4   6
ATOM      6  C   UNL     1     -10.684   3.162  -7.411  1.00  0.00     0.171 C 
BRANCH   6   7
ATOM      7  N   UNL     1     -11.598   2.360  -8.239  1.00  0.00    -0.344 N 
ATOM      8  C   UNL     1     -12.959   2.576  -8.196  1.00  0.00     0.226 C 
ATOM      9  O   UNL     1     -13.471   3.414  -7.464  1.00  0.00    -0.275 OA
ATOM     10  H   UNL     1     -11.218   1.612  -8.806  1.00  0.00     0.164 HD
BRANCH   8  11
ATOM     11  C   UNL     1     -13.761   1.706  -9.149  1.00  0.00     0.109 C 
ATOM     12  C   UNL     1     -12.886   0.577  -9.693  1.00  0.00     0.021 C 
BRANCH  11  13
ATOM     13  C   UNL     1     -15.062   1.245  -8.463  1.00  0.00     0.204 C 
BRANCH  13  14
ATOM     14  N   UNL     1     -16.193   2.124  -8.779  1.00  0.00    -0.340 N 
ATOM     15  C   UNL     1     -17.060   2.602  -7.820  1.00  0.00     0.243 C 
ATOM     16  O   UNL     1     -16.909   2.375  -6.621  1.00  0.00    -0.273 OA
ATOM     17  H   UNL     1     -16.462   2.226  -9.761  1.00  0.00     0.164 HD
BRANCH  15  18
ATOM     18  C   UNL     1     -18.291   3.334  -8.409  1.00  0.00     0.171 C 
BRANCH  18  19
ATOM     19  N   UNL     1     -19.359   3.220  -7.418  1.00  0.00    -0.343 N 
ATOM     20  C   UNL     1     -20.367   2.283  -7.539  1.00  0.00     0.242 CG0
ATOM     21  O   UNL     1     -20.488   1.594  -8.548  1.00  0.00    -0.273 OA
ATOM     22  H   UNL     1     -19.368   3.848  -6.622  1.00  0.00     0.164 HD
ATOM     23  G   UNL     1     -21.359   2.261  -6.357  1.00  0.00     0.000 G0
ENDBRANCH  18  19
BRANCH  18  24
ATOM     24  C   UNL     1     -17.956   4.801  -8.709  1.00  0.00     0.038 C 
BRANCH  24  25
ATOM     25  C   UNL     1     -18.402   5.291 -10.103  1.00  0.00    -0.015 C 
ATOM     26  C   UNL     1     -19.522   6.329 -10.027  1.00  0.00     0.007 C 
ATOM     27  C   UNL     1     -18.861   4.099 -10.946  1.00  0.00     0.007 C 
ENDBRANCH  24  25
ENDBRANCH  18  24
ENDBRANCH  15  18
ENDBRANCH  13  14
BRANCH  13  28
ATOM     28  C   UNL     1     -15.474  -0.180  -8.845  1.00  0.00     0.327 C 
ATOM     29  O   UNL     1     -15.697  -0.589  -9.974  1.00  0.00    -0.250 OA
BRANCH  28  30
ATOM     30  O   UNL     1     -15.696  -0.971  -7.776  1.00  0.00    -0.480 OA
ATOM     31  H   UNL     1     -16.657  -0.883  -7.606  1.00  0.00     0.296 HD
ENDBRANCH  28  30
ENDBRANCH  13  28
ENDBRANCH  11  13
ENDBRANCH   8  11
ENDBRANCH   6   7
BRANCH   6  32
ATOM     32  C   UNL     1      -9.497   2.319  -6.932  1.00  0.00     0.037 C 
BRANCH  32  33
ATOM     33  C   UNL     1      -9.538   0.891  -7.492  1.00  0.00     0.026 C 
BRANCH  33  34
ATOM     34  C   UNL     1      -8.556   0.687  -8.646  1.00  0.00     0.146 C 
BRANCH  34  35
ATOM     35  N   UNL     1      -7.223   1.074  -8.204  1.00  0.00    -0.254 NA
ATOM     36  C   UNL     1      -6.632   2.038  -8.804  1.00  0.00     0.185 C 
ATOM     37  N   UNL     1      -5.406   2.407  -8.401  1.00  0.00    -0.370 N 
ATOM     38  N   UNL     1      -7.068   2.786  -9.834  1.00  0.00    -0.370 N 
ATOM     39  H   UNL     1      -5.012   1.896  -7.621  1.00  0.00     0.159 HD
ATOM     40  H   UNL     1      -4.954   3.254  -8.700  1.00  0.00     0.159 HD
ATOM     41  H   UNL     1      -6.453   3.425 -10.310  1.00  0.00     0.159 HD
ATOM     42  H   UNL     1      -7.969   2.610 -10.250  1.00  0.00     0.159 HD
ENDBRANCH  34  35
ENDBRANCH  33  34
ENDBRANCH  32  33
ENDBRANCH   6  32
ENDBRANCH   4   6
ENDBRANCH   1   2
BRANCH   1  43
ATOM     43  C   UNL     1      -9.155   7.600  -7.045  1.00  0.00     0.102 C 
ATOM     44  C   UNL     1      -9.330   9.128  -7.039  1.00  0.00     0.020 C 
BRANCH  43  45
ATOM     45  C   UNL     1      -7.694   7.142  -7.074  1.00  0.00     0.225 C 
ATOM     46  O   UNL     1      -7.348   6.026  -7.450  1.00  0.00    -0.275 OA
ATOM     47  N   UNL     1      -6.783   8.036  -6.560  1.00  0.00    -0.342 N 
ATOM     48  H   UNL     1      -7.058   8.994  -6.399  1.00  0.00     0.164 HD
BRANCH  47  49
ATOM     49  C   UNL     1      -5.345   7.748  -6.556  1.00  0.00     0.192 C 
BRANCH  49  50
ATOM     50  C   UNL     1      -4.664   8.543  -5.439  1.00  0.00     0.047 C 
BRANCH  50  51
ATOM     51  C   UNL     1      -5.675   9.138  -4.448  1.00  0.00     0.103 C 
BRANCH  51  52
ATOM     52  C   UNL     1      -5.203   9.008  -3.001  1.00  0.00     0.226 C 
ATOM     53  O   UNL     1      -4.802   7.920  -2.585  1.00  0.00    -0.275 OA
BRANCH  52  54
ATOM     54  N   UNL     1      -5.187  10.191  -2.239  1.00  0.00    -0.311 N 
ATOM     55  C   UNL     1      -6.370  10.617  -1.480  1.00  0.00     0.153 C 
BRANCH  54  56
ATOM     56  C   UNL     1      -4.043  11.004  -2.171  1.00  0.00     0.102 C 
ATOM     57  C   UNL     1      -2.946  10.727  -1.448  1.00  0.00     0.043 C 
BRANCH  56  58
ATOM     58  C   UNL     1      -3.948  12.278  -2.978  1.00  0.00     0.268 C 
ATOM     59  O   UNL     1      -4.085  12.312  -4.193  1.00  0.00    -0.268 OA
ATOM     60  N   UNL     1      -3.758  13.396  -2.201  1.00  0.00    -0.339 N 
ATOM     61  H   UNL     1      -3.644  13.281  -1.201  1.00  0.00     0.164 HD
BRANCH  60  62
ATOM     62  C   UNL     1      -3.700  14.740  -2.773  1.00  0.00     0.168 CG0
ATOM     63  C   UNL     1      -4.848  15.602  -2.261  1.00  0.00     0.041 C 
ATOM     64  G   UNL     1      -3.731  14.649  -4.312  1.00  0.00     0.000 G0
ENDBRANCH  60  62
ENDBRANCH  56  58
ENDBRANCH  54  56
ENDBRANCH  52  54
ENDBRANCH  51  52
ENDBRANCH  50  51
ENDBRANCH  49  50
BRANCH  49  65
ATOM     65  C   UNL     1      -4.693   8.100  -7.902  1.00  0.00     0.326 C 
ATOM     66  O   UNL     1      -3.515   8.382  -8.069  1.00  0.00    -0.250 OA
BRANCH  65  67
ATOM     67  O   UNL     1      -5.547   8.141  -8.948  1.00  0.00    -0.480 OA
ATOM     68  H   UNL     1      -6.129   8.904  -8.743  1.00  0.00     0.296 HD
ENDBRANCH  65  67
ENDBRANCH  49  65
ENDBRANCH  47  49
ENDBRANCH  43  45
ENDBRANCH   1  43
BRANCH   1  69
ATOM     69  C   UNL     1     -11.218   7.579  -8.703  1.00  0.00    -0.001 C 
ATOM     70  C   UNL     1     -12.188   8.201  -8.010  1.00  0.00     0.001 C 
BRANCH  70  71
ATOM     71  C   UNL     1     -13.360   8.885  -8.558  1.00  0.00    -0.055 C 
ATOM     72  C   UNL     1     -14.515   8.190  -8.632  1.00  0.00    -0.018 C 
ATOM     73  C   UNL     1     -13.198  10.318  -8.993  1.00  0.00     0.044 C 
BRANCH  72  74
ATOM     74  C   UNL     1     -15.876   8.636  -9.146  1.00  0.00     0.038 C 
ATOM     75  C   UNL     1     -16.918   8.196  -8.110  1.00  0.00     0.015 C 
BRANCH  74  76
ATOM     76  C   UNL     1     -16.088   8.052 -10.574  1.00  0.00     0.128 C 
BRANCH  76  77
ATOM     77  O   UNL     1     -16.531   9.088 -11.467  1.00  0.00    -0.381 OA
ATOM     78  C   UNL     1     -17.743   8.779 -12.143  1.00  0.00     0.195 C 
ENDBRANCH  76  77
BRANCH  76  79
ATOM     79  C   UNL     1     -14.868   7.269 -11.121  1.00  0.00     0.068 C 
BRANCH  79  80
ATOM     80  C   UNL     1     -15.126   5.954 -11.815  1.00  0.00    -0.045 A 
ATOM     81  C   UNL     1     -14.997   4.739 -11.130  1.00  0.00     0.004 A 
ATOM     82  C   UNL     1     -15.473   5.927 -13.175  1.00  0.00     0.004 A 
ATOM     83  C   UNL     1     -15.224   3.525 -11.783  1.00  0.00     0.000 A 
ATOM     84  C   UNL     1     -15.698   4.713 -13.827  1.00  0.00     0.000 A 
ATOM     85  C   UNL     1     -15.575   3.513 -13.131  1.00  0.00     0.000 A 
ENDBRANCH  79  80
ENDBRANCH  76  79
ENDBRANCH  74  76
ENDBRANCH  72  74
ENDBRANCH  70  71
ENDBRANCH   1  69
TORSDOF 17
ENDMDL
MODEL 28
REMARK VINA RESULT:    -6.329     10.426     17.246
REMARK INTER + INTRA:         -25.706
REMARK INTER:                 -17.867
REMARK INTRA:                  -7.839
REMARK UNBOUND:                -6.799
REMARK SMILES C=C1C(=O)N[C@H](C)C(=O)N[C@@H](CC(C)C)C(=O)N[C@@H](C(=O)O)[C@H](C)C(=O)N[C@@H](CCCN=C(N)N)C(=O)N[C@@H](/C=C/C(C)=C/[C@H](C)[C@H](Cc2ccccc2)OC)[C@H](C)C(=O)N[C@@H](C(=O)O)CCC(=O)N1C
REMARK SMILES IDX 39 1 38 2 37 3 36 4 28 6 27 7 25 8 26 9 23 11 24 12 19 13
REMARK SMILES IDX 18 14 16 15 17 16 11 18 10 19 8 20 9 21 12 24 13 25 14 26
REMARK SMILES IDX 15 27 20 28 21 29 22 30 29 32 30 33 31 34 32 35 33 36 34 37
REMARK SMILES IDX 35 38 57 43 58 44 59 45 60 46 61 47 62 49 66 50 67 51 68 52
REMARK SMILES IDX 69 53 70 54 71 55 2 56 1 57 3 58 4 59 5 60 6 62 7 63 63 65
REMARK SMILES IDX 64 66 65 67 40 69 41 70 42 71 44 72 43 73 45 74 46 75 47 76
REMARK SMILES IDX 55 77 56 78 48 79 49 80 50 81 54 82 51 83 53 84 52 85
REMARK H PARENT 38 5 27 10 18 17 10 22 22 31 34 39 34 40 35 41 35 42 61 48
REMARK H PARENT 5 61 65 68
REMARK Flexibility Score:  369.900
ROOT
ATOM      1  C   UNL     1       0.484   0.767  -4.502  1.00  0.00     0.117 C 
ENDROOT
BRANCH   1   2
ATOM      2  N   UNL     1       0.483   1.324  -3.149  1.00  0.00    -0.347 N 
ATOM      3  O   UNL     1      -0.237   3.437  -3.680  1.00  0.00    -0.273 OA
ATOM      4  C   UNL     1       0.033   2.591  -2.834  1.00  0.00     0.243 C 
ATOM      5  H   UNL     1       0.779   0.746  -2.376  1.00  0.00     0.164 HD
BRANCH   4   6
ATOM      6  C   UNL     1       0.059   2.903  -1.316  1.00  0.00     0.171 C 
BRANCH   6   7
ATOM      7  N   UNL     1      -1.127   2.335  -0.655  1.00  0.00    -0.344 N 
ATOM      8  C   UNL     1      -1.920   3.117   0.158  1.00  0.00     0.226 C 
ATOM      9  O   UNL     1      -1.672   4.295   0.386  1.00  0.00    -0.275 OA
ATOM     10  H   UNL     1      -1.326   1.349  -0.765  1.00  0.00     0.164 HD
BRANCH   8  11
ATOM     11  C   UNL     1      -3.135   2.401   0.722  1.00  0.00     0.109 C 
ATOM     12  C   UNL     1      -3.049   0.905   0.423  1.00  0.00     0.021 C 
BRANCH  11  13
ATOM     13  C   UNL     1      -3.303   2.756   2.213  1.00  0.00     0.204 C 
BRANCH  13  14
ATOM     14  N   UNL     1      -2.018   3.028   2.864  1.00  0.00    -0.340 N 
ATOM     15  C   UNL     1      -1.480   2.207   3.831  1.00  0.00     0.243 C 
ATOM     16  O   UNL     1      -2.013   1.153   4.173  1.00  0.00    -0.273 OA
ATOM     17  H   UNL     1      -1.602   3.955   2.737  1.00  0.00     0.164 HD
BRANCH  15  18
ATOM     18  C   UNL     1      -0.227   2.800   4.519  1.00  0.00     0.171 C 
BRANCH  18  19
ATOM     19  N   UNL     1      -0.476   2.749   5.959  1.00  0.00    -0.343 N 
ATOM     20  C   UNL     1      -0.573   3.897   6.723  1.00  0.00     0.242 CG0
ATOM     21  O   UNL     1      -0.322   5.004   6.254  1.00  0.00    -0.273 OA
ATOM     22  H   UNL     1      -0.576   1.850   6.415  1.00  0.00     0.164 HD
ATOM     23  G   UNL     1      -0.917   3.647   8.205  1.00  0.00     0.000 G0
ENDBRANCH  18  19
BRANCH  18  24
ATOM     24  C   UNL     1       1.028   2.006   4.138  1.00  0.00     0.038 C 
BRANCH  24  25
ATOM     25  C   UNL     1       2.229   2.869   3.698  1.00  0.00    -0.015 C 
ATOM     26  C   UNL     1       3.376   2.032   3.131  1.00  0.00     0.007 C 
ATOM     27  C   UNL     1       2.732   3.695   4.885  1.00  0.00     0.007 C 
ENDBRANCH  24  25
ENDBRANCH  18  24
ENDBRANCH  15  18
ENDBRANCH  13  14
BRANCH  13  28
ATOM     28  C   UNL     1      -4.197   3.977   2.445  1.00  0.00     0.327 C 
ATOM     29  O   UNL     1      -4.590   4.391   3.526  1.00  0.00    -0.250 OA
BRANCH  28  30
ATOM     30  O   UNL     1      -4.640   4.534   1.300  1.00  0.00    -0.480 OA
ATOM     31  H   UNL     1      -5.422   5.058   1.573  1.00  0.00     0.296 HD
ENDBRANCH  28  30
ENDBRANCH  13  28
ENDBRANCH  11  13
ENDBRANCH   8  11
ENDBRANCH   6   7
BRANCH   6  32
ATOM     32  C   UNL     1       1.347   2.338  -0.708  1.00  0.00     0.037 C 
BRANCH  32  33
ATOM     33  C   UNL     1       2.229   3.436  -0.097  1.00  0.00     0.026 C 
BRANCH  33  34
ATOM     34  C   UNL     1       3.699   3.295  -0.494  1.00  0.00     0.146 C 
BRANCH  34  35
ATOM     35  N   UNL     1       3.811   3.442  -1.939  1.00  0.00    -0.254 NA
ATOM     36  C   UNL     1       3.676   4.608  -2.451  1.00  0.00     0.185 C 
ATOM     37  N   UNL     1       3.782   4.756  -3.780  1.00  0.00    -0.370 N 
ATOM     38  N   UNL     1       3.432   5.778  -1.834  1.00  0.00    -0.370 N 
ATOM     39  H   UNL     1       3.976   3.919  -4.316  1.00  0.00     0.159 HD
ATOM     40  H   UNL     1       3.862   5.648  -4.237  1.00  0.00     0.159 HD
ATOM     41  H   UNL     1       3.208   6.608  -2.359  1.00  0.00     0.159 HD
ATOM     42  H   UNL     1       3.313   5.815  -0.834  1.00  0.00     0.159 HD
ENDBRANCH  34  35
ENDBRANCH  33  34
ENDBRANCH  32  33
ENDBRANCH   6  32
ENDBRANCH   4   6
ENDBRANCH   1   2
BRANCH   1  43
ATOM     43  C   UNL     1      -0.526  -0.415  -4.552  1.00  0.00     0.102 C 
ATOM     44  C   UNL     1      -0.239  -1.418  -5.683  1.00  0.00     0.020 C 
BRANCH  43  45
ATOM     45  C   UNL     1      -1.971   0.094  -4.525  1.00  0.00     0.225 C 
ATOM     46  O   UNL     1      -2.894  -0.535  -4.017  1.00  0.00    -0.275 OA
ATOM     47  N   UNL     1      -2.195   1.274  -5.196  1.00  0.00    -0.342 N 
ATOM     48  H   UNL     1      -1.412   1.849  -5.473  1.00  0.00     0.164 HD
BRANCH  47  49
ATOM     49  C   UNL     1      -3.521   1.899  -5.224  1.00  0.00     0.192 C 
BRANCH  49  50
ATOM     50  C   UNL     1      -3.740   2.582  -6.576  1.00  0.00     0.047 C 
BRANCH  50  51
ATOM     51  C   UNL     1      -5.122   2.273  -7.168  1.00  0.00     0.103 C 
BRANCH  51  52
ATOM     52  C   UNL     1      -5.034   1.349  -8.380  1.00  0.00     0.226 C 
ATOM     53  O   UNL     1      -4.315   1.659  -9.332  1.00  0.00    -0.275 OA
BRANCH  52  54
ATOM     54  N   UNL     1      -5.741   0.135  -8.296  1.00  0.00    -0.311 N 
ATOM     55  C   UNL     1      -7.206   0.119  -8.198  1.00  0.00     0.153 C 
BRANCH  54  56
ATOM     56  C   UNL     1      -5.076  -1.102  -8.309  1.00  0.00     0.102 C 
ATOM     57  C   UNL     1      -4.173  -1.498  -7.397  1.00  0.00     0.043 C 
BRANCH  56  58
ATOM     58  C   UNL     1      -5.377  -2.133  -9.371  1.00  0.00     0.268 C 
ATOM     59  O   UNL     1      -5.186  -1.941 -10.564  1.00  0.00    -0.268 OA
ATOM     60  N   UNL     1      -5.823  -3.326  -8.854  1.00  0.00    -0.339 N 
ATOM     61  H   UNL     1      -5.964  -3.402  -7.854  1.00  0.00     0.164 HD
BRANCH  60  62
ATOM     62  C   UNL     1      -6.114  -4.482  -9.701  1.00  0.00     0.168 CG0
ATOM     63  C   UNL     1      -5.200  -5.653  -9.362  1.00  0.00     0.041 C 
ATOM     64  G   UNL     1      -5.966  -4.086 -11.185  1.00  0.00     0.000 G0
ENDBRANCH  60  62
ENDBRANCH  56  58
ENDBRANCH  54  56
ENDBRANCH  52  54
ENDBRANCH  51  52
ENDBRANCH  50  51
ENDBRANCH  49  50
BRANCH  49  65
ATOM     65  C   UNL     1      -3.684   2.934  -4.099  1.00  0.00     0.326 C 
ATOM     66  O   UNL     1      -3.736   4.146  -4.251  1.00  0.00    -0.250 OA
BRANCH  65  67
ATOM     67  O   UNL     1      -3.712   2.412  -2.853  1.00  0.00    -0.480 OA
ATOM     68  H   UNL     1      -4.635   2.094  -2.756  1.00  0.00     0.296 HD
ENDBRANCH  65  67
ENDBRANCH  49  65
ENDBRANCH  47  49
ENDBRANCH  43  45
ENDBRANCH   1  43
BRANCH   1  69
ATOM     69  C   UNL     1       1.938   0.505  -4.852  1.00  0.00    -0.001 C 
ATOM     70  C   UNL     1       2.956   1.382  -4.820  1.00  0.00     0.001 C 
BRANCH  70  71
ATOM     71  C   UNL     1       4.360   1.112  -5.139  1.00  0.00    -0.055 C 
ATOM     72  C   UNL     1       4.703   1.032  -6.442  1.00  0.00    -0.018 C 
ATOM     73  C   UNL     1       5.323   0.951  -3.992  1.00  0.00     0.044 C 
BRANCH  72  74
ATOM     74  C   UNL     1       6.067   0.769  -7.065  1.00  0.00     0.038 C 
ATOM     75  C   UNL     1       6.517   2.072  -7.735  1.00  0.00     0.015 C 
BRANCH  74  76
ATOM     76  C   UNL     1       5.952  -0.453  -8.024  1.00  0.00     0.128 C 
BRANCH  76  77
ATOM     77  O   UNL     1       6.742  -0.226  -9.203  1.00  0.00    -0.381 OA
ATOM     78  C   UNL     1       6.064  -0.538 -10.413  1.00  0.00     0.195 C 
ENDBRANCH  76  77
BRANCH  76  79
ATOM     79  C   UNL     1       6.259  -1.814  -7.349  1.00  0.00     0.068 C 
BRANCH  79  80
ATOM     80  C   UNL     1       5.385  -2.244  -6.196  1.00  0.00    -0.045 A 
ATOM     81  C   UNL     1       5.916  -2.412  -4.911  1.00  0.00     0.004 A 
ATOM     82  C   UNL     1       4.023  -2.511  -6.403  1.00  0.00     0.004 A 
ATOM     83  C   UNL     1       5.103  -2.825  -3.852  1.00  0.00     0.000 A 
ATOM     84  C   UNL     1       3.211  -2.924  -5.344  1.00  0.00     0.000 A 
ATOM     85  C   UNL     1       3.751  -3.079  -4.069  1.00  0.00     0.000 A 
ENDBRANCH  79  80
ENDBRANCH  76  79
ENDBRANCH  74  76
ENDBRANCH  72  74
ENDBRANCH  70  71
ENDBRANCH   1  69
TORSDOF 17
ENDMDL
MODEL 29
REMARK VINA RESULT:    -6.323      3.361      5.070
REMARK INTER + INTRA:         -25.689
REMARK INTER:                 -17.763
REMARK INTRA:                  -7.926
REMARK UNBOUND:                -6.799
REMARK SMILES C=C1C(=O)N[C@H](C)C(=O)N[C@@H](CC(C)C)C(=O)N[C@@H](C(=O)O)[C@H](C)C(=O)N[C@@H](CCCN=C(N)N)C(=O)N[C@@H](/C=C/C(C)=C/[C@H](C)[C@H](Cc2ccccc2)OC)[C@H](C)C(=O)N[C@@H](C(=O)O)CCC(=O)N1C
REMARK SMILES IDX 39 1 38 2 37 3 36 4 28 6 27 7 25 8 26 9 23 11 24 12 19 13
REMARK SMILES IDX 18 14 16 15 17 16 11 18 10 19 8 20 9 21 12 24 13 25 14 26
REMARK SMILES IDX 15 27 20 28 21 29 22 30 29 32 30 33 31 34 32 35 33 36 34 37
REMARK SMILES IDX 35 38 57 43 58 44 59 45 60 46 61 47 62 49 66 50 67 51 68 52
REMARK SMILES IDX 69 53 70 54 71 55 2 56 1 57 3 58 4 59 5 60 6 62 7 63 63 65
REMARK SMILES IDX 64 66 65 67 40 69 41 70 42 71 44 72 43 73 45 74 46 75 47 76
REMARK SMILES IDX 55 77 56 78 48 79 49 80 50 81 54 82 51 83 53 84 52 85
REMARK H PARENT 38 5 27 10 18 17 10 22 22 31 34 39 34 40 35 41 35 42 61 48
REMARK H PARENT 5 61 65 68
REMARK Flexibility Score:  369.900
ROOT
ATOM      1  C   UNL     1     -15.346   0.631  -8.392  1.00  0.00     0.117 C 
ENDROOT
BRANCH   1   2
ATOM      2  N   UNL     1     -14.272   1.618  -8.272  1.00  0.00    -0.347 N 
ATOM      3  O   UNL     1     -13.024   0.529  -6.682  1.00  0.00    -0.273 OA
ATOM      4  C   UNL     1     -13.146   1.443  -7.491  1.00  0.00     0.243 C 
ATOM      5  H   UNL     1     -14.312   2.462  -8.823  1.00  0.00     0.164 HD
BRANCH   4   6
ATOM      6  C   UNL     1     -12.121   2.600  -7.608  1.00  0.00     0.171 C 
BRANCH   6   7
ATOM      7  N   UNL     1     -10.761   2.066  -7.788  1.00  0.00    -0.344 N 
ATOM      8  C   UNL     1      -9.694   2.622  -7.117  1.00  0.00     0.226 C 
ATOM      9  O   UNL     1      -9.813   3.585  -6.369  1.00  0.00    -0.275 OA
ATOM     10  H   UNL     1     -10.613   1.314  -8.449  1.00  0.00     0.164 HD
BRANCH   8  11
ATOM     11  C   UNL     1      -8.367   1.925  -7.365  1.00  0.00     0.109 C 
ATOM     12  C   UNL     1      -8.555   0.775  -8.355  1.00  0.00     0.021 C 
BRANCH  11  13
ATOM     13  C   UNL     1      -7.301   2.962  -7.770  1.00  0.00     0.204 C 
BRANCH  13  14
ATOM     14  N   UNL     1      -6.060   2.329  -8.227  1.00  0.00    -0.340 N 
ATOM     15  C   UNL     1      -4.907   2.313  -7.473  1.00  0.00     0.243 C 
ATOM     16  O   UNL     1      -4.855   2.778  -6.336  1.00  0.00    -0.273 OA
ATOM     17  H   UNL     1      -5.992   2.061  -9.212  1.00  0.00     0.164 HD
BRANCH  15  18
ATOM     18  C   UNL     1      -3.674   1.776  -8.240  1.00  0.00     0.171 C 
BRANCH  18  19
ATOM     19  N   UNL     1      -2.881   1.015  -7.277  1.00  0.00    -0.343 N 
ATOM     20  C   UNL     1      -1.615   1.417  -6.895  1.00  0.00     0.242 CG0
ATOM     21  O   UNL     1      -1.046   2.356  -7.445  1.00  0.00    -0.273 OA
ATOM     22  H   UNL     1      -3.263   0.164  -6.879  1.00  0.00     0.164 HD
ATOM     23  G   UNL     1      -0.965   0.532  -5.812  1.00  0.00     0.000 G0
ENDBRANCH  18  19
BRANCH  18  24
ATOM     24  C   UNL     1      -4.110   0.903  -9.423  1.00  0.00     0.038 C 
BRANCH  24  25
ATOM     25  C   UNL     1      -3.396   1.217 -10.754  1.00  0.00    -0.015 C 
ATOM     26  C   UNL     1      -4.067   0.545 -11.952  1.00  0.00     0.007 C 
ATOM     27  C   UNL     1      -1.932   0.776 -10.669  1.00  0.00     0.007 C 
ENDBRANCH  24  25
ENDBRANCH  18  24
ENDBRANCH  15  18
ENDBRANCH  13  14
BRANCH  13  28
ATOM     28  C   UNL     1      -7.768   3.903  -8.886  1.00  0.00     0.327 C 
ATOM     29  O   UNL     1      -7.817   3.641 -10.078  1.00  0.00    -0.250 OA
BRANCH  28  30
ATOM     30  O   UNL     1      -8.030   5.152  -8.450  1.00  0.00    -0.480 OA
ATOM     31  H   UNL     1      -7.275   5.684  -8.776  1.00  0.00     0.296 HD
ENDBRANCH  28  30
ENDBRANCH  13  28
ENDBRANCH  11  13
ENDBRANCH   8  11
ENDBRANCH   6   7
BRANCH   6  32
ATOM     32  C   UNL     1     -12.514   3.503  -8.783  1.00  0.00     0.037 C 
BRANCH  32  33
ATOM     33  C   UNL     1     -12.141   4.971  -8.534  1.00  0.00     0.026 C 
BRANCH  33  34
ATOM     34  C   UNL     1     -11.804   5.716  -9.826  1.00  0.00     0.146 C 
BRANCH  34  35
ATOM     35  N   UNL     1     -10.467   6.281  -9.707  1.00  0.00    -0.254 NA
ATOM     36  C   UNL     1     -10.345   7.498  -9.327  1.00  0.00     0.185 C 
ATOM     37  N   UNL     1      -9.117   8.027  -9.209  1.00  0.00    -0.370 N 
ATOM     38  N   UNL     1     -11.306   8.383  -9.006  1.00  0.00    -0.370 N 
ATOM     39  H   UNL     1      -8.338   7.418  -9.424  1.00  0.00     0.159 HD
ATOM     40  H   UNL     1      -8.931   8.905  -8.755  1.00  0.00     0.159 HD
ATOM     41  H   UNL     1     -11.090   9.354  -8.855  1.00  0.00     0.159 HD
ATOM     42  H   UNL     1     -12.279   8.126  -9.064  1.00  0.00     0.159 HD
ENDBRANCH  34  35
ENDBRANCH  33  34
ENDBRANCH  32  33
ENDBRANCH   6  32
ENDBRANCH   4   6
ENDBRANCH   1   2
BRANCH   1  43
ATOM     43  C   UNL     1     -15.334   0.059  -9.838  1.00  0.00     0.102 C 
ATOM     44  C   UNL     1     -13.945   0.094 -10.498  1.00  0.00     0.020 C 
BRANCH  43  45
ATOM     45  C   UNL     1     -16.442   0.687 -10.689  1.00  0.00     0.225 C 
ATOM     46  O   UNL     1     -17.488   0.107 -10.964  1.00  0.00    -0.275 OA
ATOM     47  N   UNL     1     -16.154   1.927 -11.214  1.00  0.00    -0.342 N 
ATOM     48  H   UNL     1     -15.366   2.450 -10.859  1.00  0.00     0.164 HD
BRANCH  47  49
ATOM     49  C   UNL     1     -17.134   2.664 -12.017  1.00  0.00     0.192 C 
BRANCH  49  50
ATOM     50  C   UNL     1     -16.461   3.879 -12.661  1.00  0.00     0.047 C 
BRANCH  50  51
ATOM     51  C   UNL     1     -15.510   4.598 -11.694  1.00  0.00     0.103 C 
BRANCH  51  52
ATOM     52  C   UNL     1     -14.596   5.585 -12.417  1.00  0.00     0.226 C 
ATOM     53  O   UNL     1     -13.734   5.165 -13.191  1.00  0.00    -0.275 OA
BRANCH  52  54
ATOM     54  N   UNL     1     -14.855   6.952 -12.203  1.00  0.00    -0.311 N 
ATOM     55  C   UNL     1     -13.872   7.812 -11.530  1.00  0.00     0.153 C 
BRANCH  54  56
ATOM     56  C   UNL     1     -16.056   7.545 -12.627  1.00  0.00     0.102 C 
ATOM     57  C   UNL     1     -16.432   7.689 -13.908  1.00  0.00     0.043 C 
BRANCH  56  58
ATOM     58  C   UNL     1     -17.071   8.043 -11.625  1.00  0.00     0.268 C 
ATOM     59  O   UNL     1     -16.971   9.118 -11.048  1.00  0.00    -0.268 OA
ATOM     60  N   UNL     1     -18.145   7.198 -11.478  1.00  0.00    -0.339 N 
ATOM     61  H   UNL     1     -18.147   6.320 -11.984  1.00  0.00     0.164 HD
BRANCH  60  62
ATOM     62  C   UNL     1     -19.273   7.516 -10.604  1.00  0.00     0.168 CG0
ATOM     63  C   UNL     1     -20.339   6.430 -10.669  1.00  0.00     0.041 C 
ATOM     64  G   UNL     1     -19.864   8.885 -11.002  1.00  0.00     0.000 G0
ENDBRANCH  60  62
ENDBRANCH  56  58
ENDBRANCH  54  56
ENDBRANCH  52  54
ENDBRANCH  51  52
ENDBRANCH  50  51
ENDBRANCH  49  50
BRANCH  49  65
ATOM     65  C   UNL     1     -18.326   3.133 -11.168  1.00  0.00     0.326 C 
ATOM     66  O   UNL     1     -18.305   4.051 -10.360  1.00  0.00    -0.250 OA
BRANCH  65  67
ATOM     67  O   UNL     1     -19.451   2.402 -11.323  1.00  0.00    -0.480 OA
ATOM     68  H   UNL     1     -19.674   2.520 -12.272  1.00  0.00     0.296 HD
ENDBRANCH  65  67
ENDBRANCH  49  65
ENDBRANCH  47  49
ENDBRANCH  43  45
ENDBRANCH   1  43
BRANCH   1  69
ATOM     69  C   UNL     1     -16.604   1.311  -7.883  1.00  0.00    -0.001 C 
ATOM     70  C   UNL     1     -17.382   0.927  -6.855  1.00  0.00     0.001 C 
BRANCH  70  71
ATOM     71  C   UNL     1     -18.582   1.603  -6.359  1.00  0.00    -0.055 C 
ATOM     72  C   UNL     1     -19.308   2.321  -7.243  1.00  0.00    -0.018 C 
ATOM     73  C   UNL     1     -18.927   1.444  -4.902  1.00  0.00     0.044 C 
BRANCH  72  74
ATOM     74  C   UNL     1     -20.586   3.116  -7.018  1.00  0.00     0.038 C 
ATOM     75  C   UNL     1     -21.695   2.428  -7.823  1.00  0.00     0.015 C 
BRANCH  74  76
ATOM     76  C   UNL     1     -20.325   4.602  -7.403  1.00  0.00     0.128 C 
BRANCH  76  77
ATOM     77  O   UNL     1     -21.571   5.317  -7.475  1.00  0.00    -0.381 OA
ATOM     78  C   UNL     1     -21.473   6.677  -7.076  1.00  0.00     0.195 C 
ENDBRANCH  76  77
BRANCH  76  79
ATOM     79  C   UNL     1     -19.279   5.311  -6.506  1.00  0.00     0.068 C 
BRANCH  79  80
ATOM     80  C   UNL     1     -18.021   5.829  -7.161  1.00  0.00    -0.045 A 
ATOM     81  C   UNL     1     -17.055   4.948  -7.665  1.00  0.00     0.004 A 
ATOM     82  C   UNL     1     -17.788   7.209  -7.251  1.00  0.00     0.004 A 
ATOM     83  C   UNL     1     -15.887   5.435  -8.256  1.00  0.00     0.000 A 
ATOM     84  C   UNL     1     -16.620   7.695  -7.842  1.00  0.00     0.000 A 
ATOM     85  C   UNL     1     -15.671   6.809  -8.346  1.00  0.00     0.000 A 
ENDBRANCH  79  80
ENDBRANCH  76  79
ENDBRANCH  74  76
ENDBRANCH  72  74
ENDBRANCH  70  71
ENDBRANCH   1  69
TORSDOF 17
ENDMDL
MODEL 30
REMARK VINA RESULT:    -6.272      3.464     11.413
REMARK INTER + INTRA:         -25.538
REMARK INTER:                 -18.013
REMARK INTRA:                  -7.525
REMARK UNBOUND:                -6.799
REMARK SMILES C=C1C(=O)N[C@H](C)C(=O)N[C@@H](CC(C)C)C(=O)N[C@@H](C(=O)O)[C@H](C)C(=O)N[C@@H](CCCN=C(N)N)C(=O)N[C@@H](/C=C/C(C)=C/[C@H](C)[C@H](Cc2ccccc2)OC)[C@H](C)C(=O)N[C@@H](C(=O)O)CCC(=O)N1C
REMARK SMILES IDX 39 1 38 2 37 3 36 4 28 6 27 7 25 8 26 9 23 11 24 12 19 13
REMARK SMILES IDX 18 14 16 15 17 16 11 18 10 19 8 20 9 21 12 24 13 25 14 26
REMARK SMILES IDX 15 27 20 28 21 29 22 30 29 32 30 33 31 34 32 35 33 36 34 37
REMARK SMILES IDX 35 38 57 43 58 44 59 45 60 46 61 47 62 49 66 50 67 51 68 52
REMARK SMILES IDX 69 53 70 54 71 55 2 56 1 57 3 58 4 59 5 60 6 62 7 63 63 65
REMARK SMILES IDX 64 66 65 67 40 69 41 70 42 71 44 72 43 73 45 74 46 75 47 76
REMARK SMILES IDX 55 77 56 78 48 79 49 80 50 81 54 82 51 83 53 84 52 85
REMARK H PARENT 38 5 27 10 18 17 10 22 22 31 34 39 34 40 35 41 35 42 61 48
REMARK H PARENT 5 61 65 68
REMARK Flexibility Score:  369.900
ROOT
ATOM      1  C   UNL     1     -12.349   5.100  -9.321  1.00  0.00     0.117 C 
ENDROOT
BRANCH   1   2
ATOM      2  N   UNL     1     -13.387   4.160  -8.898  1.00  0.00    -0.347 N 
ATOM      3  O   UNL     1     -12.325   2.222  -9.519  1.00  0.00    -0.273 OA
ATOM      4  C   UNL     1     -13.252   2.786  -8.948  1.00  0.00     0.243 C 
ATOM      5  H   UNL     1     -14.242   4.514  -8.498  1.00  0.00     0.164 HD
BRANCH   4   6
ATOM      6  C   UNL     1     -14.464   2.019  -8.360  1.00  0.00     0.171 C 
BRANCH   6   7
ATOM      7  N   UNL     1     -15.724   2.569  -8.884  1.00  0.00    -0.344 N 
ATOM      8  C   UNL     1     -15.912   2.727 -10.240  1.00  0.00     0.226 C 
ATOM      9  O   UNL     1     -15.050   2.444 -11.063  1.00  0.00    -0.275 OA
ATOM     10  H   UNL     1     -16.434   2.877  -8.231  1.00  0.00     0.164 HD
BRANCH   8  11
ATOM     11  C   UNL     1     -17.284   3.254 -10.624  1.00  0.00     0.109 C 
ATOM     12  C   UNL     1     -17.781   2.555 -11.889  1.00  0.00     0.021 C 
BRANCH  11  13
ATOM     13  C   UNL     1     -18.236   3.162  -9.415  1.00  0.00     0.204 C 
BRANCH  13  14
ATOM     14  N   UNL     1     -18.621   4.484  -8.914  1.00  0.00    -0.340 N 
ATOM     15  C   UNL     1     -17.916   5.148  -7.934  1.00  0.00     0.243 C 
ATOM     16  O   UNL     1     -16.875   4.703  -7.453  1.00  0.00    -0.273 OA
ATOM     17  H   UNL     1     -19.550   4.839  -9.159  1.00  0.00     0.164 HD
BRANCH  15  18
ATOM     18  C   UNL     1     -18.623   6.426  -7.420  1.00  0.00     0.171 C 
BRANCH  18  19
ATOM     19  N   UNL     1     -19.919   6.003  -6.892  1.00  0.00    -0.343 N 
ATOM     20  C   UNL     1     -21.062   6.757  -7.077  1.00  0.00     0.242 CG0
ATOM     21  O   UNL     1     -21.019   7.879  -7.576  1.00  0.00    -0.273 OA
ATOM     22  H   UNL     1     -19.985   5.137  -6.370  1.00  0.00     0.164 HD
ATOM     23  G   UNL     1     -22.347   6.112  -6.517  1.00  0.00     0.000 G0
ENDBRANCH  18  19
BRANCH  18  24
ATOM     24  C   UNL     1     -17.777   7.118  -6.344  1.00  0.00     0.038 C 
BRANCH  24  25
ATOM     25  C   UNL     1     -17.696   8.654  -6.478  1.00  0.00    -0.015 C 
ATOM     26  C   UNL     1     -16.267   9.147  -6.703  1.00  0.00     0.007 C 
ATOM     27  C   UNL     1     -18.276   9.311  -5.222  1.00  0.00     0.007 C 
ENDBRANCH  24  25
ENDBRANCH  18  24
ENDBRANCH  15  18
ENDBRANCH  13  14
BRANCH  13  28
ATOM     28  C   UNL     1     -19.528   2.398  -9.721  1.00  0.00     0.327 C 
ATOM     29  O   UNL     1     -20.573   2.880 -10.130  1.00  0.00    -0.250 OA
BRANCH  28  30
ATOM     30  O   UNL     1     -19.464   1.094  -9.382  1.00  0.00    -0.480 OA
ATOM     31  H   UNL     1     -19.267   1.104  -8.422  1.00  0.00     0.296 HD
ENDBRANCH  28  30
ENDBRANCH  13  28
ENDBRANCH  11  13
ENDBRANCH   8  11
ENDBRANCH   6   7
BRANCH   6  32
ATOM     32  C   UNL     1     -14.332   0.531  -8.703  1.00  0.00     0.037 C 
BRANCH  32  33
ATOM     33  C   UNL     1     -15.618  -0.250  -8.397  1.00  0.00     0.026 C 
BRANCH  33  34
ATOM     34  C   UNL     1     -16.070  -0.089  -6.945  1.00  0.00     0.146 C 
BRANCH  34  35
ATOM     35  N   UNL     1     -17.523  -0.004  -6.911  1.00  0.00    -0.254 NA
ATOM     36  C   UNL     1     -18.066   1.048  -6.421  1.00  0.00     0.185 C 
ATOM     37  N   UNL     1     -19.404   1.140  -6.390  1.00  0.00    -0.370 N 
ATOM     38  N   UNL     1     -17.475   2.140  -5.903  1.00  0.00    -0.370 N 
ATOM     39  H   UNL     1     -19.922   0.359  -6.773  1.00  0.00     0.159 HD
ATOM     40  H   UNL     1     -19.899   1.991  -6.186  1.00  0.00     0.159 HD
ATOM     41  H   UNL     1     -18.012   2.843  -5.421  1.00  0.00     0.159 HD
ATOM     42  H   UNL     1     -16.471   2.202  -5.848  1.00  0.00     0.159 HD
ENDBRANCH  34  35
ENDBRANCH  33  34
ENDBRANCH  32  33
ENDBRANCH   6  32
ENDBRANCH   4   6
ENDBRANCH   1   2
BRANCH   1  43
ATOM     43  C   UNL     1     -11.317   5.250  -8.166  1.00  0.00     0.102 C 
ATOM     44  C   UNL     1     -11.200   6.688  -7.632  1.00  0.00     0.020 C 
BRANCH  43  45
ATOM     45  C   UNL     1      -9.974   4.616  -8.543  1.00  0.00     0.225 C 
ATOM     46  O   UNL     1      -9.177   5.142  -9.315  1.00  0.00    -0.275 OA
ATOM     47  N   UNL     1      -9.748   3.359  -8.032  1.00  0.00    -0.342 N 
ATOM     48  H   UNL     1     -10.335   3.009  -7.287  1.00  0.00     0.164 HD
BRANCH  47  49
ATOM     49  C   UNL     1      -8.492   2.645  -8.279  1.00  0.00     0.192 C 
BRANCH  49  50
ATOM     50  C   UNL     1      -8.753   1.137  -8.306  1.00  0.00     0.047 C 
BRANCH  50  51
ATOM     51  C   UNL     1      -7.458   0.320  -8.203  1.00  0.00     0.103 C 
BRANCH  51  52
ATOM     52  C   UNL     1      -6.936  -0.102  -9.575  1.00  0.00     0.226 C 
ATOM     53  O   UNL     1      -7.316   0.497 -10.583  1.00  0.00    -0.275 OA
BRANCH  52  54
ATOM     54  N   UNL     1      -5.972  -1.127  -9.591  1.00  0.00    -0.311 N 
ATOM     55  C   UNL     1      -6.320  -2.486 -10.027  1.00  0.00     0.153 C 
BRANCH  54  56
ATOM     56  C   UNL     1      -4.645  -0.890  -9.197  1.00  0.00     0.102 C 
ATOM     57  C   UNL     1      -4.115  -1.258  -8.019  1.00  0.00     0.043 C 
BRANCH  56  58
ATOM     58  C   UNL     1      -3.668  -0.216 -10.132  1.00  0.00     0.268 C 
ATOM     59  O   UNL     1      -3.843  -0.138 -11.340  1.00  0.00    -0.268 OA
ATOM     60  N   UNL     1      -2.602   0.354  -9.478  1.00  0.00    -0.339 N 
ATOM     61  H   UNL     1      -2.524   0.235  -8.476  1.00  0.00     0.164 HD
BRANCH  60  62
ATOM     62  C   UNL     1      -1.569   1.111 -10.186  1.00  0.00     0.168 CG0
ATOM     63  C   UNL     1      -1.820   2.610 -10.079  1.00  0.00     0.041 C 
ATOM     64  G   UNL     1      -1.525   0.669 -11.663  1.00  0.00     0.000 G0
ENDBRANCH  60  62
ENDBRANCH  56  58
ENDBRANCH  54  56
ENDBRANCH  52  54
ENDBRANCH  51  52
ENDBRANCH  50  51
ENDBRANCH  49  50
BRANCH  49  65
ATOM     65  C   UNL     1      -7.440   2.960  -7.204  1.00  0.00     0.326 C 
ATOM     66  O   UNL     1      -7.576   2.781  -6.002  1.00  0.00    -0.250 OA
BRANCH  65  67
ATOM     67  O   UNL     1      -6.309   3.532  -7.672  1.00  0.00    -0.480 OA
ATOM     68  H   UNL     1      -6.190   4.317  -7.095  1.00  0.00     0.296 HD
ENDBRANCH  65  67
ENDBRANCH  49  65
ENDBRANCH  47  49
ENDBRANCH  43  45
ENDBRANCH   1  43
BRANCH   1  69
ATOM     69  C   UNL     1     -13.074   6.336  -9.821  1.00  0.00    -0.001 C 
ATOM     70  C   UNL     1     -14.350   6.688  -9.580  1.00  0.00     0.001 C 
BRANCH  70  71
ATOM     71  C   UNL     1     -15.033   7.895 -10.051  1.00  0.00    -0.055 C 
ATOM     72  C   UNL     1     -14.269   8.919 -10.486  1.00  0.00    -0.018 C 
ATOM     73  C   UNL     1     -16.539   7.905 -10.023  1.00  0.00     0.044 C 
BRANCH  72  74
ATOM     74  C   UNL     1     -14.696  10.276 -11.027  1.00  0.00     0.038 C 
ATOM     75  C   UNL     1     -15.440  11.000  -9.899  1.00  0.00     0.015 C 
BRANCH  74  76
ATOM     76  C   UNL     1     -15.529  10.058 -12.325  1.00  0.00     0.128 C 
BRANCH  76  77
ATOM     77  O   UNL     1     -16.121  11.300 -12.742  1.00  0.00    -0.381 OA
ATOM     78  C   UNL     1     -16.942  11.182 -13.896  1.00  0.00     0.195 C 
ENDBRANCH  76  77
BRANCH  76  79
ATOM     79  C   UNL     1     -14.749   9.353 -13.463  1.00  0.00     0.068 C 
BRANCH  79  80
ATOM     80  C   UNL     1     -14.693   7.845 -13.453  1.00  0.00    -0.045 A 
ATOM     81  C   UNL     1     -15.866   7.079 -13.478  1.00  0.00     0.004 A 
ATOM     82  C   UNL     1     -13.457   7.184 -13.390  1.00  0.00     0.004 A 
ATOM     83  C   UNL     1     -15.805   5.684 -13.454  1.00  0.00     0.000 A 
ATOM     84  C   UNL     1     -13.398   5.789 -13.365  1.00  0.00     0.000 A 
ATOM     85  C   UNL     1     -14.571   5.039 -13.399  1.00  0.00     0.000 A 
ENDBRANCH  79  80
ENDBRANCH  76  79
ENDBRANCH  74  76
ENDBRANCH  72  74
ENDBRANCH  70  71
ENDBRANCH   1  69
TORSDOF 17
ENDMDL
MODEL 31
REMARK VINA RESULT:    -6.270     14.785     20.174
REMARK INTER + INTRA:         -25.532
REMARK INTER:                 -17.911
REMARK INTRA:                  -7.621
REMARK UNBOUND:                -6.799
REMARK SMILES C=C1C(=O)N[C@H](C)C(=O)N[C@@H](CC(C)C)C(=O)N[C@@H](C(=O)O)[C@H](C)C(=O)N[C@@H](CCCN=C(N)N)C(=O)N[C@@H](/C=C/C(C)=C/[C@H](C)[C@H](Cc2ccccc2)OC)[C@H](C)C(=O)N[C@@H](C(=O)O)CCC(=O)N1C
REMARK SMILES IDX 39 1 38 2 37 3 36 4 28 6 27 7 25 8 26 9 23 11 24 12 19 13
REMARK SMILES IDX 18 14 16 15 17 16 11 18 10 19 8 20 9 21 12 24 13 25 14 26
REMARK SMILES IDX 15 27 20 28 21 29 22 30 29 32 30 33 31 34 32 35 33 36 34 37
REMARK SMILES IDX 35 38 57 43 58 44 59 45 60 46 61 47 62 49 66 50 67 51 68 52
REMARK SMILES IDX 69 53 70 54 71 55 2 56 1 57 3 58 4 59 5 60 6 62 7 63 63 65
REMARK SMILES IDX 64 66 65 67 40 69 41 70 42 71 44 72 43 73 45 74 46 75 47 76
REMARK SMILES IDX 55 77 56 78 48 79 49 80 50 81 54 82 51 83 53 84 52 85
REMARK H PARENT 38 5 27 10 18 17 10 22 22 31 34 39 34 40 35 41 35 42 61 48
REMARK H PARENT 5 61 65 68
REMARK Flexibility Score:  369.900
ROOT
ATOM      1  C   UNL     1       4.262   3.386  -1.756  1.00  0.00     0.117 C 
ENDROOT
BRANCH   1   2
ATOM      2  N   UNL     1       3.346   3.906  -2.771  1.00  0.00    -0.347 N 
ATOM      3  O   UNL     1       3.668   6.143  -2.367  1.00  0.00    -0.273 OA
ATOM      4  C   UNL     1       3.190   5.249  -3.058  1.00  0.00     0.243 C 
ATOM      5  H   UNL     1       2.822   3.260  -3.342  1.00  0.00     0.164 HD
BRANCH   4   6
ATOM      6  C   UNL     1       2.222   5.527  -4.235  1.00  0.00     0.171 C 
BRANCH   6   7
ATOM      7  N   UNL     1       2.939   6.164  -5.351  1.00  0.00    -0.344 N 
ATOM      8  C   UNL     1       2.914   7.533  -5.512  1.00  0.00     0.226 C 
ATOM      9  O   UNL     1       2.289   8.274  -4.764  1.00  0.00    -0.275 OA
ATOM     10  H   UNL     1       3.411   5.579  -6.029  1.00  0.00     0.164 HD
BRANCH   8  11
ATOM     11  C   UNL     1       3.746   8.040  -6.677  1.00  0.00     0.109 C 
ATOM     12  C   UNL     1       4.528   6.888  -7.307  1.00  0.00     0.021 C 
BRANCH  11  13
ATOM     13  C   UNL     1       2.850   8.827  -7.654  1.00  0.00     0.204 C 
BRANCH  13  14
ATOM     14  N   UNL     1       3.613   9.383  -8.776  1.00  0.00    -0.340 N 
ATOM     15  C   UNL     1       3.248  10.541  -9.428  1.00  0.00     0.243 C 
ATOM     16  O   UNL     1       2.288  11.224  -9.075  1.00  0.00    -0.273 OA
ATOM     17  H   UNL     1       4.325   8.791  -9.213  1.00  0.00     0.164 HD
BRANCH  15  18
ATOM     18  C   UNL     1       4.077  10.819 -10.706  1.00  0.00     0.171 C 
BRANCH  18  19
ATOM     19  N   UNL     1       3.834  12.214 -11.067  1.00  0.00    -0.343 N 
ATOM     20  C   UNL     1       3.412  12.576 -12.332  1.00  0.00     0.242 CG0
ATOM     21  O   UNL     1       3.350  11.760 -13.248  1.00  0.00    -0.273 OA
ATOM     22  H   UNL     1       3.983  12.941 -10.376  1.00  0.00     0.164 HD
ATOM     23  G   UNL     1       3.132  14.084 -12.503  1.00  0.00     0.000 G0
ENDBRANCH  18  19
BRANCH  18  24
ATOM     24  C   UNL     1       5.567  10.556 -10.452  1.00  0.00     0.038 C 
BRANCH  24  25
ATOM     25  C   UNL     1       6.196   9.483 -11.366  1.00  0.00    -0.015 C 
ATOM     26  C   UNL     1       5.640   9.526 -12.789  1.00  0.00     0.007 C 
ATOM     27  C   UNL     1       5.963   8.094 -10.764  1.00  0.00     0.007 C 
ENDBRANCH  24  25
ENDBRANCH  18  24
ENDBRANCH  15  18
ENDBRANCH  13  14
BRANCH  13  28
ATOM     28  C   UNL     1       1.719   7.982  -8.249  1.00  0.00     0.327 C 
ATOM     29  O   UNL     1       0.587   7.874  -7.803  1.00  0.00    -0.250 OA
BRANCH  28  30
ATOM     30  O   UNL     1       2.114   7.233  -9.298  1.00  0.00    -0.480 OA
ATOM     31  H   UNL     1       2.898   6.747  -8.966  1.00  0.00     0.296 HD
ENDBRANCH  28  30
ENDBRANCH  13  28
ENDBRANCH  11  13
ENDBRANCH   8  11
ENDBRANCH   6   7
BRANCH   6  32
ATOM     32  C   UNL     1       1.579   4.209  -4.680  1.00  0.00     0.037 C 
BRANCH  32  33
ATOM     33  C   UNL     1       0.050   4.312  -4.770  1.00  0.00     0.026 C 
BRANCH  33  34
ATOM     34  C   UNL     1      -0.491   3.828  -6.116  1.00  0.00     0.146 C 
BRANCH  34  35
ATOM     35  N   UNL     1       0.626   3.649  -7.034  1.00  0.00    -0.254 NA
ATOM     36  C   UNL     1       0.628   4.306  -8.134  1.00  0.00     0.185 C 
ATOM     37  N   UNL     1       1.654   4.152  -8.985  1.00  0.00    -0.370 N 
ATOM     38  N   UNL     1      -0.285   5.176  -8.600  1.00  0.00    -0.370 N 
ATOM     39  H   UNL     1       2.391   3.519  -8.699  1.00  0.00     0.159 HD
ATOM     40  H   UNL     1       1.816   4.753  -9.775  1.00  0.00     0.159 HD
ATOM     41  H   UNL     1      -0.240   5.523  -9.545  1.00  0.00     0.159 HD
ATOM     42  H   UNL     1      -1.120   5.376  -8.071  1.00  0.00     0.159 HD
ENDBRANCH  34  35
ENDBRANCH  33  34
ENDBRANCH  32  33
ENDBRANCH   6  32
ENDBRANCH   4   6
ENDBRANCH   1   2
BRANCH   1  43
ATOM     43  C   UNL     1       5.254   2.403  -2.442  1.00  0.00     0.102 C 
ATOM     44  C   UNL     1       6.645   3.011  -2.690  1.00  0.00     0.020 C 
BRANCH  43  45
ATOM     45  C   UNL     1       4.625   1.763  -3.683  1.00  0.00     0.225 C 
ATOM     46  O   UNL     1       3.576   1.126  -3.650  1.00  0.00    -0.275 OA
ATOM     47  N   UNL     1       5.362   1.865  -4.840  1.00  0.00    -0.342 N 
ATOM     48  H   UNL     1       6.136   2.513  -4.885  1.00  0.00     0.164 HD
BRANCH  47  49
ATOM     49  C   UNL     1       4.868   1.331  -6.113  1.00  0.00     0.192 C 
BRANCH  49  50
ATOM     50  C   UNL     1       6.052   0.948  -7.005  1.00  0.00     0.047 C 
BRANCH  50  51
ATOM     51  C   UNL     1       5.721  -0.222  -7.941  1.00  0.00     0.103 C 
BRANCH  51  52
ATOM     52  C   UNL     1       4.800  -1.244  -7.279  1.00  0.00     0.226 C 
ATOM     53  O   UNL     1       3.590  -1.218  -7.514  1.00  0.00    -0.275 OA
BRANCH  52  54
ATOM     54  N   UNL     1       5.421  -2.223  -6.480  1.00  0.00    -0.311 N 
ATOM     55  C   UNL     1       6.431  -3.128  -7.043  1.00  0.00     0.153 C 
BRANCH  54  56
ATOM     56  C   UNL     1       5.104  -2.366  -5.119  1.00  0.00     0.102 C 
ATOM     57  C   UNL     1       5.680  -1.678  -4.120  1.00  0.00     0.043 C 
BRANCH  56  58
ATOM     58  C   UNL     1       4.016  -3.313  -4.672  1.00  0.00     0.268 C 
ATOM     59  O   UNL     1       3.220  -3.831  -5.444  1.00  0.00    -0.268 OA
ATOM     60  N   UNL     1       4.054  -3.583  -3.325  1.00  0.00    -0.339 N 
ATOM     61  H   UNL     1       4.739  -3.105  -2.752  1.00  0.00     0.164 HD
BRANCH  60  62
ATOM     62  C   UNL     1       3.130  -4.523  -2.692  1.00  0.00     0.168 CG0
ATOM     63  C   UNL     1       3.628  -4.934  -1.312  1.00  0.00     0.041 C 
ATOM     64  G   UNL     1       2.949  -5.759  -3.598  1.00  0.00     0.000 G0
ENDBRANCH  60  62
ENDBRANCH  56  58
ENDBRANCH  54  56
ENDBRANCH  52  54
ENDBRANCH  51  52
ENDBRANCH  50  51
ENDBRANCH  49  50
BRANCH  49  65
ATOM     65  C   UNL     1       3.985   2.349  -6.850  1.00  0.00     0.326 C 
ATOM     66  O   UNL     1       4.148   3.561  -6.853  1.00  0.00    -0.250 OA
BRANCH  65  67
ATOM     67  O   UNL     1       2.920   1.815  -7.488  1.00  0.00    -0.480 OA
ATOM     68  H   UNL     1       3.003   0.853  -7.310  1.00  0.00     0.296 HD
ENDBRANCH  65  67
ENDBRANCH  49  65
ENDBRANCH  47  49
ENDBRANCH  43  45
ENDBRANCH   1  43
BRANCH   1  69
ATOM     69  C   UNL     1       3.393   2.878  -0.621  1.00  0.00    -0.001 C 
ATOM     70  C   UNL     1       3.660   2.923   0.696  1.00  0.00     0.001 C 
BRANCH  70  71
ATOM     71  C   UNL     1       2.803   2.448   1.785  1.00  0.00    -0.055 C 
ATOM     72  C   UNL     1       1.472   2.408   1.564  1.00  0.00    -0.018 C 
ATOM     73  C   UNL     1       3.468   2.032   3.071  1.00  0.00     0.044 C 
BRANCH  72  74
ATOM     74  C   UNL     1       0.354   1.963   2.496  1.00  0.00     0.038 C 
ATOM     75  C   UNL     1      -0.734   1.324   1.624  1.00  0.00     0.015 C 
BRANCH  74  76
ATOM     76  C   UNL     1      -0.116   3.188   3.334  1.00  0.00     0.128 C 
BRANCH  76  77
ATOM     77  O   UNL     1      -1.509   3.446   3.088  1.00  0.00    -0.381 OA
ATOM     78  C   UNL     1      -1.824   4.828   2.986  1.00  0.00     0.195 C 
ENDBRANCH  76  77
BRANCH  76  79
ATOM     79  C   UNL     1       0.216   3.082   4.844  1.00  0.00     0.068 C 
BRANCH  79  80
ATOM     80  C   UNL     1       0.805   4.294   5.525  1.00  0.00    -0.045 A 
ATOM     81  C   UNL     1       2.133   4.677   5.297  1.00  0.00     0.004 A 
ATOM     82  C   UNL     1       0.032   5.044   6.425  1.00  0.00     0.004 A 
ATOM     83  C   UNL     1       2.674   5.791   5.941  1.00  0.00     0.000 A 
ATOM     84  C   UNL     1       0.575   6.158   7.069  1.00  0.00     0.000 A 
ATOM     85  C   UNL     1       1.894   6.532   6.827  1.00  0.00     0.000 A 
ENDBRANCH  79  80
ENDBRANCH  76  79
ENDBRANCH  74  76
ENDBRANCH  72  74
ENDBRANCH  70  71
ENDBRANCH   1  69
TORSDOF 17
ENDMDL
MODEL 32
REMARK VINA RESULT:    -6.265      3.256     11.854
REMARK INTER + INTRA:         -25.517
REMARK INTER:                 -18.865
REMARK INTRA:                  -6.651
REMARK UNBOUND:                -6.799
REMARK SMILES C=C1C(=O)N[C@H](C)C(=O)N[C@@H](CC(C)C)C(=O)N[C@@H](C(=O)O)[C@H](C)C(=O)N[C@@H](CCCN=C(N)N)C(=O)N[C@@H](/C=C/C(C)=C/[C@H](C)[C@H](Cc2ccccc2)OC)[C@H](C)C(=O)N[C@@H](C(=O)O)CCC(=O)N1C
REMARK SMILES IDX 39 1 38 2 37 3 36 4 28 6 27 7 25 8 26 9 23 11 24 12 19 13
REMARK SMILES IDX 18 14 16 15 17 16 11 18 10 19 8 20 9 21 12 24 13 25 14 26
REMARK SMILES IDX 15 27 20 28 21 29 22 30 29 32 30 33 31 34 32 35 33 36 34 37
REMARK SMILES IDX 35 38 57 43 58 44 59 45 60 46 61 47 62 49 66 50 67 51 68 52
REMARK SMILES IDX 69 53 70 54 71 55 2 56 1 57 3 58 4 59 5 60 6 62 7 63 63 65
REMARK SMILES IDX 64 66 65 67 40 69 41 70 42 71 44 72 43 73 45 74 46 75 47 76
REMARK SMILES IDX 55 77 56 78 48 79 49 80 50 81 54 82 51 83 53 84 52 85
REMARK H PARENT 38 5 27 10 18 17 10 22 22 31 34 39 34 40 35 41 35 42 61 48
REMARK H PARENT 5 61 65 68
REMARK Flexibility Score:  369.900
ROOT
ATOM      1  C   UNL     1     -14.130   1.240  -8.824  1.00  0.00     0.117 C 
ENDROOT
BRANCH   1   2
ATOM      2  N   UNL     1     -15.395   1.291  -8.091  1.00  0.00    -0.347 N 
ATOM      3  O   UNL     1     -15.695  -0.969  -7.824  1.00  0.00    -0.273 OA
ATOM      4  C   UNL     1     -16.032   0.182  -7.568  1.00  0.00     0.243 C 
ATOM      5  H   UNL     1     -15.821   2.186  -7.902  1.00  0.00     0.164 HD
BRANCH   4   6
ATOM      6  C   UNL     1     -17.311   0.520  -6.761  1.00  0.00     0.171 C 
BRANCH   6   7
ATOM      7  N   UNL     1     -18.461   0.684  -7.665  1.00  0.00    -0.344 N 
ATOM      8  C   UNL     1     -19.015   1.928  -7.880  1.00  0.00     0.226 C 
ATOM      9  O   UNL     1     -18.603   2.939  -7.323  1.00  0.00    -0.275 OA
ATOM     10  H   UNL     1     -18.872  -0.137  -8.091  1.00  0.00     0.164 HD
BRANCH   8  11
ATOM     11  C   UNL     1     -20.158   1.940  -8.879  1.00  0.00     0.109 C 
ATOM     12  C   UNL     1     -21.468   2.293  -8.176  1.00  0.00     0.021 C 
BRANCH  11  13
ATOM     13  C   UNL     1     -19.797   2.847 -10.073  1.00  0.00     0.204 C 
BRANCH  13  14
ATOM     14  N   UNL     1     -19.661   4.252  -9.676  1.00  0.00    -0.340 N 
ATOM     15  C   UNL     1     -20.411   5.264 -10.236  1.00  0.00     0.243 C 
ATOM     16  O   UNL     1     -21.293   5.050 -11.066  1.00  0.00    -0.273 OA
ATOM     17  H   UNL     1     -18.851   4.515  -9.109  1.00  0.00     0.164 HD
BRANCH  15  18
ATOM     18  C   UNL     1     -19.951   6.681  -9.814  1.00  0.00     0.171 C 
BRANCH  18  19
ATOM     19  N   UNL     1     -21.119   7.552  -9.928  1.00  0.00    -0.343 N 
ATOM     20  C   UNL     1     -21.077   8.740 -10.631  1.00  0.00     0.242 CG0
ATOM     21  O   UNL     1     -20.023   9.185 -11.079  1.00  0.00    -0.273 OA
ATOM     22  H   UNL     1     -21.986   7.283  -9.475  1.00  0.00     0.164 HD
ATOM     23  G   UNL     1     -22.426   9.484 -10.707  1.00  0.00     0.000 G0
ENDBRANCH  18  19
BRANCH  18  24
ATOM     24  C   UNL     1     -19.397   6.667  -8.384  1.00  0.00     0.038 C 
BRANCH  24  25
ATOM     25  C   UNL     1     -17.995   7.294  -8.231  1.00  0.00    -0.015 C 
ATOM     26  C   UNL     1     -16.945   6.598  -9.096  1.00  0.00     0.007 C 
ATOM     27  C   UNL     1     -17.567   7.244  -6.761  1.00  0.00     0.007 C 
ENDBRANCH  24  25
ENDBRANCH  18  24
ENDBRANCH  15  18
ENDBRANCH  13  14
BRANCH  13  28
ATOM     28  C   UNL     1     -18.493   2.443 -10.766  1.00  0.00     0.327 C 
ATOM     29  O   UNL     1     -18.324   1.461 -11.473  1.00  0.00    -0.250 OA
BRANCH  28  30
ATOM     30  O   UNL     1     -17.451   3.231 -10.433  1.00  0.00    -0.480 OA
ATOM     31  H   UNL     1     -16.754   2.603 -10.148  1.00  0.00     0.296 HD
ENDBRANCH  28  30
ENDBRANCH  13  28
ENDBRANCH  11  13
ENDBRANCH   8  11
ENDBRANCH   6   7
BRANCH   6  32
ATOM     32  C   UNL     1     -17.572  -0.593  -5.741  1.00  0.00     0.037 C 
BRANCH  32  33
ATOM     33  C   UNL     1     -18.407  -0.103  -4.549  1.00  0.00     0.026 C 
BRANCH  33  34
ATOM     34  C   UNL     1     -18.198   1.384  -4.261  1.00  0.00     0.146 C 
BRANCH  34  35
ATOM     35  N   UNL     1     -19.136   1.799  -3.227  1.00  0.00    -0.254 NA
ATOM     36  C   UNL     1     -19.935   2.769  -3.476  1.00  0.00     0.185 C 
ATOM     37  N   UNL     1     -20.807   3.156  -2.532  1.00  0.00    -0.370 N 
ATOM     38  N   UNL     1     -20.048   3.505  -4.596  1.00  0.00    -0.370 N 
ATOM     39  H   UNL     1     -20.792   2.642  -1.661  1.00  0.00     0.159 HD
ATOM     40  H   UNL     1     -21.574   3.783  -2.707  1.00  0.00     0.159 HD
ATOM     41  H   UNL     1     -20.620   4.333  -4.620  1.00  0.00     0.159 HD
ATOM     42  H   UNL     1     -19.442   3.335  -5.384  1.00  0.00     0.159 HD
ENDBRANCH  34  35
ENDBRANCH  33  34
ENDBRANCH  32  33
ENDBRANCH   6  32
ENDBRANCH   4   6
ENDBRANCH   1   2
BRANCH   1  43
ATOM     43  C   UNL     1     -12.962   1.390  -7.807  1.00  0.00     0.102 C 
ATOM     44  C   UNL     1     -13.274   2.360  -6.656  1.00  0.00     0.020 C 
BRANCH  43  45
ATOM     45  C   UNL     1     -11.642   1.683  -8.526  1.00  0.00     0.225 C 
ATOM     46  O   UNL     1     -11.232   1.020  -9.475  1.00  0.00    -0.275 OA
ATOM     47  N   UNL     1     -10.881   2.692  -7.980  1.00  0.00    -0.342 N 
ATOM     48  H   UNL     1     -11.294   3.320  -7.305  1.00  0.00     0.164 HD
BRANCH  47  49
ATOM     49  C   UNL     1      -9.611   3.106  -8.583  1.00  0.00     0.192 C 
BRANCH  49  50
ATOM     50  C   UNL     1      -8.450   2.418  -7.861  1.00  0.00     0.047 C 
BRANCH  50  51
ATOM     51  C   UNL     1      -7.831   1.290  -8.698  1.00  0.00     0.103 C 
BRANCH  51  52
ATOM     52  C   UNL     1      -6.764   1.808  -9.660  1.00  0.00     0.226 C 
ATOM     53  O   UNL     1      -7.070   2.631 -10.524  1.00  0.00    -0.275 OA
BRANCH  52  54
ATOM     54  N   UNL     1      -5.450   1.355  -9.441  1.00  0.00    -0.311 N 
ATOM     55  C   UNL     1      -4.652   1.863  -8.318  1.00  0.00     0.153 C 
BRANCH  54  56
ATOM     56  C   UNL     1      -4.856   0.399 -10.282  1.00  0.00     0.102 C 
ATOM     57  C   UNL     1      -3.652   0.529 -10.863  1.00  0.00     0.043 C 
BRANCH  56  58
ATOM     58  C   UNL     1      -5.541  -0.918 -10.565  1.00  0.00     0.268 C 
ATOM     59  O   UNL     1      -6.184  -1.132 -11.583  1.00  0.00    -0.268 OA
ATOM     60  N   UNL     1      -5.313  -1.865  -9.595  1.00  0.00    -0.339 N 
ATOM     61  H   UNL     1      -4.778  -1.604  -8.775  1.00  0.00     0.164 HD
BRANCH  60  62
ATOM     62  C   UNL     1      -5.832  -3.228  -9.701  1.00  0.00     0.168 CG0
ATOM     63  C   UNL     1      -7.070  -3.411  -8.831  1.00  0.00     0.041 C 
ATOM     64  G   UNL     1      -4.731  -4.232  -9.302  1.00  0.00     0.000 G0
ENDBRANCH  60  62
ENDBRANCH  56  58
ENDBRANCH  54  56
ENDBRANCH  52  54
ENDBRANCH  51  52
ENDBRANCH  50  51
ENDBRANCH  49  50
BRANCH  49  65
ATOM     65  C   UNL     1      -9.421   4.630  -8.514  1.00  0.00     0.326 C 
ATOM     66  O   UNL     1      -9.239   5.278  -7.494  1.00  0.00    -0.250 OA
BRANCH  65  67
ATOM     67  O   UNL     1      -9.527   5.265  -9.702  1.00  0.00    -0.480 OA
ATOM     68  H   UNL     1      -8.613   5.244 -10.058  1.00  0.00     0.296 HD
ENDBRANCH  65  67
ENDBRANCH  49  65
ENDBRANCH  47  49
ENDBRANCH  43  45
ENDBRANCH   1  43
BRANCH   1  69
ATOM     69  C   UNL     1     -14.253   2.246  -9.954  1.00  0.00    -0.001 C 
ATOM     70  C   UNL     1     -14.023   3.569  -9.898  1.00  0.00     0.001 C 
BRANCH  70  71
ATOM     71  C   UNL     1     -14.124   4.527 -11.001  1.00  0.00    -0.055 C 
ATOM     72  C   UNL     1     -13.473   5.702 -10.873  1.00  0.00    -0.018 C 
ATOM     73  C   UNL     1     -14.942   4.131 -12.202  1.00  0.00     0.044 C 
BRANCH  72  74
ATOM     74  C   UNL     1     -13.397   6.872 -11.844  1.00  0.00     0.038 C 
ATOM     75  C   UNL     1     -12.320   6.530 -12.881  1.00  0.00     0.015 C 
BRANCH  74  76
ATOM     76  C   UNL     1     -13.135   8.177 -11.037  1.00  0.00     0.128 C 
BRANCH  76  77
ATOM     77  O   UNL     1     -11.741   8.522 -11.101  1.00  0.00    -0.381 OA
ATOM     78  C   UNL     1     -11.082   8.472  -9.842  1.00  0.00     0.195 C 
ENDBRANCH  76  77
BRANCH  76  79
ATOM     79  C   UNL     1     -14.062   9.356 -11.427  1.00  0.00     0.068 C 
BRANCH  79  80
ATOM     80  C   UNL     1     -15.064   9.130 -12.534  1.00  0.00    -0.045 A 
ATOM     81  C   UNL     1     -14.760   9.462 -13.861  1.00  0.00     0.004 A 
ATOM     82  C   UNL     1     -16.333   8.608 -12.244  1.00  0.00     0.004 A 
ATOM     83  C   UNL     1     -15.697   9.264 -14.877  1.00  0.00     0.000 A 
ATOM     84  C   UNL     1     -17.270   8.410 -13.261  1.00  0.00     0.000 A 
ATOM     85  C   UNL     1     -16.951   8.737 -14.577  1.00  0.00     0.000 A 
ENDBRANCH  79  80
ENDBRANCH  76  79
ENDBRANCH  74  76
ENDBRANCH  72  74
ENDBRANCH  70  71
ENDBRANCH   1  69
TORSDOF 17
ENDMDL
MODEL 33
REMARK VINA RESULT:    -6.264      8.891     14.210
REMARK INTER + INTRA:         -25.512
REMARK INTER:                 -19.607
REMARK INTRA:                  -5.905
REMARK UNBOUND:                -6.799
REMARK SMILES C=C1C(=O)N[C@H](C)C(=O)N[C@@H](CC(C)C)C(=O)N[C@@H](C(=O)O)[C@H](C)C(=O)N[C@@H](CCCN=C(N)N)C(=O)N[C@@H](/C=C/C(C)=C/[C@H](C)[C@H](Cc2ccccc2)OC)[C@H](C)C(=O)N[C@@H](C(=O)O)CCC(=O)N1C
REMARK SMILES IDX 39 1 38 2 37 3 36 4 28 6 27 7 25 8 26 9 23 11 24 12 19 13
REMARK SMILES IDX 18 14 16 15 17 16 11 18 10 19 8 20 9 21 12 24 13 25 14 26
REMARK SMILES IDX 15 27 20 28 21 29 22 30 29 32 30 33 31 34 32 35 33 36 34 37
REMARK SMILES IDX 35 38 57 43 58 44 59 45 60 46 61 47 62 49 66 50 67 51 68 52
REMARK SMILES IDX 69 53 70 54 71 55 2 56 1 57 3 58 4 59 5 60 6 62 7 63 63 65
REMARK SMILES IDX 64 66 65 67 40 69 41 70 42 71 44 72 43 73 45 74 46 75 47 76
REMARK SMILES IDX 55 77 56 78 48 79 49 80 50 81 54 82 51 83 53 84 52 85
REMARK H PARENT 38 5 27 10 18 17 10 22 22 31 34 39 34 40 35 41 35 42 61 48
REMARK H PARENT 5 61 65 68
REMARK Flexibility Score:  369.900
ROOT
ATOM      1  C   UNL     1      -9.953  -6.064  -1.343  1.00  0.00     0.117 C 
ENDROOT
BRANCH   1   2
ATOM      2  N   UNL     1      -8.905  -6.288  -2.339  1.00  0.00    -0.347 N 
ATOM      3  O   UNL     1     -10.022  -5.452  -4.162  1.00  0.00    -0.273 OA
ATOM      4  C   UNL     1      -8.989  -5.879  -3.656  1.00  0.00     0.243 C 
ATOM      5  H   UNL     1      -8.039  -6.723  -2.057  1.00  0.00     0.164 HD
BRANCH   4   6
ATOM      6  C   UNL     1      -7.708  -6.163  -4.480  1.00  0.00     0.171 C 
BRANCH   6   7
ATOM      7  N   UNL     1      -7.550  -5.161  -5.547  1.00  0.00    -0.344 N 
ATOM      8  C   UNL     1      -7.195  -5.543  -6.823  1.00  0.00     0.226 C 
ATOM      9  O   UNL     1      -6.974  -6.710  -7.125  1.00  0.00    -0.275 OA
ATOM     10  H   UNL     1      -7.659  -4.181  -5.320  1.00  0.00     0.164 HD
BRANCH   8  11
ATOM     11  C   UNL     1      -7.127  -4.401  -7.821  1.00  0.00     0.109 C 
ATOM     12  C   UNL     1      -7.466  -3.079  -7.133  1.00  0.00     0.021 C 
BRANCH  11  13
ATOM     13  C   UNL     1      -5.767  -4.424  -8.548  1.00  0.00     0.204 C 
BRANCH  13  14
ATOM     14  N   UNL     1      -4.692  -4.931  -7.689  1.00  0.00    -0.340 N 
ATOM     15  C   UNL     1      -3.400  -4.455  -7.748  1.00  0.00     0.243 C 
ATOM     16  O   UNL     1      -3.072  -3.526  -8.483  1.00  0.00    -0.273 OA
ATOM     17  H   UNL     1      -4.860  -5.797  -7.170  1.00  0.00     0.164 HD
BRANCH  15  18
ATOM     18  C   UNL     1      -2.398  -5.279  -6.902  1.00  0.00     0.171 C 
BRANCH  18  19
ATOM     19  N   UNL     1      -1.912  -6.356  -7.762  1.00  0.00    -0.343 N 
ATOM     20  C   UNL     1      -2.475  -7.618  -7.739  1.00  0.00     0.242 CG0
ATOM     21  O   UNL     1      -3.320  -7.930  -6.903  1.00  0.00    -0.273 OA
ATOM     22  H   UNL     1      -1.136  -6.179  -8.390  1.00  0.00     0.164 HD
ATOM     23  G   UNL     1      -1.882  -8.598  -8.771  1.00  0.00     0.000 G0
ENDBRANCH  18  19
BRANCH  18  24
ATOM     24  C   UNL     1      -1.249  -4.392  -6.408  1.00  0.00     0.038 C 
BRANCH  24  25
ATOM     25  C   UNL     1      -1.092  -4.335  -4.874  1.00  0.00    -0.015 C 
ATOM     26  C   UNL     1      -2.375  -4.725  -4.140  1.00  0.00     0.007 C 
ATOM     27  C   UNL     1      -0.664  -2.928  -4.451  1.00  0.00     0.007 C 
ENDBRANCH  24  25
ENDBRANCH  18  24
ENDBRANCH  15  18
ENDBRANCH  13  14
BRANCH  13  28
ATOM     28  C   UNL     1      -5.776  -5.280  -9.818  1.00  0.00     0.327 C 
ATOM     29  O   UNL     1      -5.151  -6.314  -9.997  1.00  0.00    -0.250 OA
BRANCH  28  30
ATOM     30  O   UNL     1      -6.474  -4.721 -10.827  1.00  0.00    -0.480 OA
ATOM     31  H   UNL     1      -7.090  -5.427 -11.114  1.00  0.00     0.296 HD
ENDBRANCH  28  30
ENDBRANCH  13  28
ENDBRANCH  11  13
ENDBRANCH   8  11
ENDBRANCH   6   7
BRANCH   6  32
ATOM     32  C   UNL     1      -6.495  -6.159  -3.543  1.00  0.00     0.037 C 
BRANCH  32  33
ATOM     33  C   UNL     1      -5.387  -7.105  -4.025  1.00  0.00     0.026 C 
BRANCH  33  34
ATOM     34  C   UNL     1      -5.530  -8.514  -3.448  1.00  0.00     0.146 C 
BRANCH  34  35
ATOM     35  N   UNL     1      -6.311  -9.324  -4.373  1.00  0.00    -0.254 NA
ATOM     36  C   UNL     1      -6.723 -10.473  -3.987  1.00  0.00     0.185 C 
ATOM     37  N   UNL     1      -7.448 -11.226  -4.829  1.00  0.00    -0.370 N 
ATOM     38  N   UNL     1      -6.537 -11.083  -2.803  1.00  0.00    -0.370 N 
ATOM     39  H   UNL     1      -7.640 -10.830  -5.741  1.00  0.00     0.159 HD
ATOM     40  H   UNL     1      -7.950 -12.050  -4.548  1.00  0.00     0.159 HD
ATOM     41  H   UNL     1      -6.793 -12.048  -2.668  1.00  0.00     0.159 HD
ATOM     42  H   UNL     1      -5.996 -10.640  -2.077  1.00  0.00     0.159 HD
ENDBRANCH  34  35
ENDBRANCH  33  34
ENDBRANCH  32  33
ENDBRANCH   6  32
ENDBRANCH   4   6
ENDBRANCH   1   2
BRANCH   1  43
ATOM     43  C   UNL     1      -9.639  -4.742  -0.584  1.00  0.00     0.102 C 
ATOM     44  C   UNL     1      -9.934  -4.818   0.924  1.00  0.00     0.020 C 
BRANCH  43  45
ATOM     45  C   UNL     1     -10.282  -3.540  -1.283  1.00  0.00     0.225 C 
ATOM     46  O   UNL     1      -9.701  -2.471  -1.448  1.00  0.00    -0.275 OA
ATOM     47  N   UNL     1     -11.601  -3.698  -1.639  1.00  0.00    -0.342 N 
ATOM     48  H   UNL     1     -12.013  -4.621  -1.636  1.00  0.00     0.164 HD
BRANCH  47  49
ATOM     49  C   UNL     1     -12.335  -2.645  -2.347  1.00  0.00     0.192 C 
BRANCH  49  50
ATOM     50  C   UNL     1     -13.840  -2.846  -2.151  1.00  0.00     0.047 C 
BRANCH  50  51
ATOM     51  C   UNL     1     -14.295  -2.483  -0.731  1.00  0.00     0.103 C 
BRANCH  51  52
ATOM     52  C   UNL     1     -15.764  -2.829  -0.494  1.00  0.00     0.226 C 
ATOM     53  O   UNL     1     -16.161  -3.977  -0.698  1.00  0.00    -0.275 OA
BRANCH  52  54
ATOM     54  N   UNL     1     -16.573  -1.802   0.028  1.00  0.00    -0.311 N 
ATOM     55  C   UNL     1     -16.280  -1.199   1.335  1.00  0.00     0.153 C 
BRANCH  54  56
ATOM     56  C   UNL     1     -17.683  -1.313  -0.680  1.00  0.00     0.102 C 
ATOM     57  C   UNL     1     -17.652  -0.285  -1.543  1.00  0.00     0.043 C 
BRANCH  56  58
ATOM     58  C   UNL     1     -19.038  -1.968  -0.545  1.00  0.00     0.268 C 
ATOM     59  O   UNL     1     -19.427  -2.861  -1.287  1.00  0.00    -0.268 OA
ATOM     60  N   UNL     1     -19.757  -1.507   0.531  1.00  0.00    -0.339 N 
ATOM     61  H   UNL     1     -19.368  -0.758   1.091  1.00  0.00     0.164 HD
BRANCH  60  62
ATOM     62  C   UNL     1     -21.069  -2.050   0.882  1.00  0.00     0.168 CG0
ATOM     63  C   UNL     1     -20.940  -3.173   1.903  1.00  0.00     0.041 C 
ATOM     64  G   UNL     1     -21.780  -2.549  -0.392  1.00  0.00     0.000 G0
ENDBRANCH  60  62
ENDBRANCH  56  58
ENDBRANCH  54  56
ENDBRANCH  52  54
ENDBRANCH  51  52
ENDBRANCH  50  51
ENDBRANCH  49  50
BRANCH  49  65
ATOM     65  C   UNL     1     -12.014  -2.643  -3.850  1.00  0.00     0.326 C 
ATOM     66  O   UNL     1     -11.520  -1.712  -4.469  1.00  0.00    -0.250 OA
BRANCH  65  67
ATOM     67  O   UNL     1     -12.377  -3.767  -4.506  1.00  0.00    -0.480 OA
ATOM     68  H   UNL     1     -11.682  -4.414  -4.259  1.00  0.00     0.296 HD
ENDBRANCH  65  67
ENDBRANCH  49  65
ENDBRANCH  47  49
ENDBRANCH  43  45
ENDBRANCH   1  43
BRANCH   1  69
ATOM     69  C   UNL     1     -10.069  -7.354  -0.552  1.00  0.00    -0.001 C 
ATOM     70  C   UNL     1      -9.113  -8.278  -0.350  1.00  0.00     0.001 C 
BRANCH  70  71
ATOM     71  C   UNL     1      -9.231  -9.509   0.433  1.00  0.00    -0.055 C 
ATOM     72  C   UNL     1      -9.502  -9.392   1.750  1.00  0.00    -0.018 C 
ATOM     73  C   UNL     1      -9.051 -10.820  -0.287  1.00  0.00     0.044 C 
BRANCH  72  74
ATOM     74  C   UNL     1      -9.681 -10.481   2.798  1.00  0.00     0.038 C 
ATOM     75  C   UNL     1     -11.186 -10.611   3.063  1.00  0.00     0.015 C 
BRANCH  74  76
ATOM     76  C   UNL     1      -8.826 -10.120   4.048  1.00  0.00     0.128 C 
BRANCH  76  77
ATOM     77  O   UNL     1      -8.786 -11.235   4.954  1.00  0.00    -0.381 OA
ATOM     78  C   UNL     1      -8.657 -10.858   6.318  1.00  0.00     0.195 C 
ENDBRANCH  76  77
BRANCH  76  79
ATOM     79  C   UNL     1      -7.418  -9.570   3.710  1.00  0.00     0.068 C 
BRANCH  79  80
ATOM     80  C   UNL     1      -6.310 -10.567   3.464  1.00  0.00    -0.045 A 
ATOM     81  C   UNL     1      -6.433 -11.553   2.476  1.00  0.00     0.004 A 
ATOM     82  C   UNL     1      -5.146 -10.537   4.247  1.00  0.00     0.004 A 
ATOM     83  C   UNL     1      -5.410 -12.480   2.265  1.00  0.00     0.000 A 
ATOM     84  C   UNL     1      -4.124 -11.465   4.035  1.00  0.00     0.000 A 
ATOM     85  C   UNL     1      -4.255 -12.435   3.043  1.00  0.00     0.000 A 
ENDBRANCH  79  80
ENDBRANCH  76  79
ENDBRANCH  74  76
ENDBRANCH  72  74
ENDBRANCH  70  71
ENDBRANCH   1  69
TORSDOF 17
ENDMDL
MODEL 34
REMARK VINA RESULT:    -6.259      9.544     16.000
REMARK INTER + INTRA:         -25.498
REMARK INTER:                 -17.905
REMARK INTRA:                  -7.592
REMARK UNBOUND:                -6.799
REMARK SMILES C=C1C(=O)N[C@H](C)C(=O)N[C@@H](CC(C)C)C(=O)N[C@@H](C(=O)O)[C@H](C)C(=O)N[C@@H](CCCN=C(N)N)C(=O)N[C@@H](/C=C/C(C)=C/[C@H](C)[C@H](Cc2ccccc2)OC)[C@H](C)C(=O)N[C@@H](C(=O)O)CCC(=O)N1C
REMARK SMILES IDX 39 1 38 2 37 3 36 4 28 6 27 7 25 8 26 9 23 11 24 12 19 13
REMARK SMILES IDX 18 14 16 15 17 16 11 18 10 19 8 20 9 21 12 24 13 25 14 26
REMARK SMILES IDX 15 27 20 28 21 29 22 30 29 32 30 33 31 34 32 35 33 36 34 37
REMARK SMILES IDX 35 38 57 43 58 44 59 45 60 46 61 47 62 49 66 50 67 51 68 52
REMARK SMILES IDX 69 53 70 54 71 55 2 56 1 57 3 58 4 59 5 60 6 62 7 63 63 65
REMARK SMILES IDX 64 66 65 67 40 69 41 70 42 71 44 72 43 73 45 74 46 75 47 76
REMARK SMILES IDX 55 77 56 78 48 79 49 80 50 81 54 82 51 83 53 84 52 85
REMARK H PARENT 38 5 27 10 18 17 10 22 22 31 34 39 34 40 35 41 35 42 61 48
REMARK H PARENT 5 61 65 68
REMARK Flexibility Score:  369.900
ROOT
ATOM      1  C   UNL     1      -8.229  -9.820  -1.539  1.00  0.00     0.117 C 
ENDROOT
BRANCH   1   2
ATOM      2  N   UNL     1      -9.175  -8.703  -1.507  1.00  0.00    -0.347 N 
ATOM      3  O   UNL     1      -7.701  -7.063  -0.869  1.00  0.00    -0.273 OA
ATOM      4  C   UNL     1      -8.815  -7.392  -1.262  1.00  0.00     0.243 C 
ATOM      5  H   UNL     1     -10.146  -8.871  -1.722  1.00  0.00     0.164 HD
BRANCH   4   6
ATOM      6  C   UNL     1      -9.993  -6.391  -1.371  1.00  0.00     0.171 C 
BRANCH   6   7
ATOM      7  N   UNL     1     -10.403  -5.932  -0.034  1.00  0.00    -0.344 N 
ATOM      8  C   UNL     1     -11.146  -6.748   0.792  1.00  0.00     0.226 C 
ATOM      9  O   UNL     1     -11.517  -7.866   0.456  1.00  0.00    -0.275 OA
ATOM     10  H   UNL     1     -10.173  -4.989   0.253  1.00  0.00     0.164 HD
BRANCH   8  11
ATOM     11  C   UNL     1     -11.443  -6.152   2.157  1.00  0.00     0.109 C 
ATOM     12  C   UNL     1     -10.765  -4.789   2.294  1.00  0.00     0.021 C 
BRANCH  11  13
ATOM     13  C   UNL     1     -12.964  -6.148   2.405  1.00  0.00     0.204 C 
BRANCH  13  14
ATOM     14  N   UNL     1     -13.290  -6.237   3.832  1.00  0.00    -0.340 N 
ATOM     15  C   UNL     1     -14.453  -6.810   4.299  1.00  0.00     0.243 C 
ATOM     16  O   UNL     1     -15.273  -7.343   3.554  1.00  0.00    -0.273 OA
ATOM     17  H   UNL     1     -12.732  -5.685   4.488  1.00  0.00     0.164 HD
BRANCH  15  18
ATOM     18  C   UNL     1     -14.678  -6.604   5.818  1.00  0.00     0.171 C 
BRANCH  18  19
ATOM     19  N   UNL     1     -16.124  -6.595   6.029  1.00  0.00    -0.343 N 
ATOM     20  C   UNL     1     -16.758  -5.558   6.687  1.00  0.00     0.242 CG0
ATOM     21  O   UNL     1     -16.123  -4.663   7.239  1.00  0.00    -0.273 OA
ATOM     22  H   UNL     1     -16.681  -7.371   5.692  1.00  0.00     0.164 HD
ATOM     23  G   UNL     1     -18.294  -5.685   6.744  1.00  0.00     0.000 G0
ENDBRANCH  18  19
BRANCH  18  24
ATOM     24  C   UNL     1     -13.999  -7.719   6.622  1.00  0.00     0.038 C 
BRANCH  24  25
ATOM     25  C   UNL     1     -12.934  -7.232   7.627  1.00  0.00    -0.015 C 
ATOM     26  C   UNL     1     -12.427  -5.826   7.307  1.00  0.00     0.007 C 
ATOM     27  C   UNL     1     -11.759  -8.213   7.647  1.00  0.00     0.007 C 
ENDBRANCH  24  25
ENDBRANCH  18  24
ENDBRANCH  15  18
ENDBRANCH  13  14
BRANCH  13  28
ATOM     28  C   UNL     1     -13.662  -4.900   1.857  1.00  0.00     0.327 C 
ATOM     29  O   UNL     1     -14.025  -4.722   0.704  1.00  0.00    -0.250 OA
BRANCH  28  30
ATOM     30  O   UNL     1     -13.754  -3.905   2.762  1.00  0.00    -0.480 OA
ATOM     31  H   UNL     1     -13.002  -4.062   3.371  1.00  0.00     0.296 HD
ENDBRANCH  28  30
ENDBRANCH  13  28
ENDBRANCH  11  13
ENDBRANCH   8  11
ENDBRANCH   6   7
BRANCH   6  32
ATOM     32  C   UNL     1      -9.571  -5.209  -2.250  1.00  0.00     0.037 C 
BRANCH  32  33
ATOM     33  C   UNL     1      -9.452  -3.905  -1.449  1.00  0.00     0.026 C 
BRANCH  33  34
ATOM     34  C   UNL     1     -10.070  -2.712  -2.178  1.00  0.00     0.146 C 
BRANCH  34  35
ATOM     35  N   UNL     1     -11.411  -3.073  -2.617  1.00  0.00    -0.254 NA
ATOM     36  C   UNL     1     -11.890  -2.505  -3.660  1.00  0.00     0.185 C 
ATOM     37  N   UNL     1     -13.122  -2.835  -4.077  1.00  0.00    -0.370 N 
ATOM     38  N   UNL     1     -11.323  -1.578  -4.453  1.00  0.00    -0.370 N 
ATOM     39  H   UNL     1     -13.612  -3.536  -3.536  1.00  0.00     0.159 HD
ATOM     40  H   UNL     1     -13.497  -2.569  -4.972  1.00  0.00     0.159 HD
ATOM     41  H   UNL     1     -11.856  -1.105  -5.165  1.00  0.00     0.159 HD
ATOM     42  H   UNL     1     -10.401  -1.224  -4.250  1.00  0.00     0.159 HD
ENDBRANCH  34  35
ENDBRANCH  33  34
ENDBRANCH  32  33
ENDBRANCH   6  32
ENDBRANCH   4   6
ENDBRANCH   1   2
BRANCH   1  43
ATOM     43  C   UNL     1      -8.509 -10.669  -2.813  1.00  0.00     0.102 C 
ATOM     44  C   UNL     1      -7.974 -12.108  -2.719  1.00  0.00     0.020 C 
BRANCH  43  45
ATOM     45  C   UNL     1      -8.071  -9.924  -4.077  1.00  0.00     0.225 C 
ATOM     46  O   UNL     1      -6.997 -10.127  -4.637  1.00  0.00    -0.275 OA
ATOM     47  N   UNL     1      -8.923  -8.932  -4.506  1.00  0.00    -0.342 N 
ATOM     48  H   UNL     1      -9.860  -8.882  -4.132  1.00  0.00     0.164 HD
BRANCH  47  49
ATOM     49  C   UNL     1      -8.651  -8.161  -5.723  1.00  0.00     0.192 C 
BRANCH  49  50
ATOM     50  C   UNL     1      -9.162  -6.729  -5.549  1.00  0.00     0.047 C 
BRANCH  50  51
ATOM     51  C   UNL     1      -8.077  -5.683  -5.840  1.00  0.00     0.103 C 
BRANCH  51  52
ATOM     52  C   UNL     1      -8.075  -5.252  -7.306  1.00  0.00     0.226 C 
ATOM     53  O   UNL     1      -9.065  -5.468  -8.007  1.00  0.00    -0.275 OA
BRANCH  52  54
ATOM     54  N   UNL     1      -6.940  -4.549  -7.751  1.00  0.00    -0.311 N 
ATOM     55  C   UNL     1      -6.589  -3.241  -7.182  1.00  0.00     0.153 C 
BRANCH  54  56
ATOM     56  C   UNL     1      -6.099  -5.072  -8.747  1.00  0.00     0.102 C 
ATOM     57  C   UNL     1      -6.132  -4.720 -10.043  1.00  0.00     0.043 C 
BRANCH  56  58
ATOM     58  C   UNL     1      -5.024  -6.077  -8.405  1.00  0.00     0.268 C 
ATOM     59  O   UNL     1      -4.917  -6.594  -7.302  1.00  0.00    -0.268 OA
ATOM     60  N   UNL     1      -4.224  -6.397  -9.476  1.00  0.00    -0.339 N 
ATOM     61  H   UNL     1      -4.371  -5.916 -10.355  1.00  0.00     0.164 HD
BRANCH  60  62
ATOM     62  C   UNL     1      -3.160  -7.396  -9.382  1.00  0.00     0.168 CG0
ATOM     63  C   UNL     1      -3.320  -8.468 -10.453  1.00  0.00     0.041 C 
ATOM     64  G   UNL     1      -3.164  -8.025  -7.974  1.00  0.00     0.000 G0
ENDBRANCH  60  62
ENDBRANCH  56  58
ENDBRANCH  54  56
ENDBRANCH  52  54
ENDBRANCH  51  52
ENDBRANCH  50  51
ENDBRANCH  49  50
BRANCH  49  65
ATOM     65  C   UNL     1      -9.315  -8.793  -6.955  1.00  0.00     0.326 C 
ATOM     66  O   UNL     1      -8.945  -9.813  -7.518  1.00  0.00    -0.250 OA
BRANCH  65  67
ATOM     67  O   UNL     1     -10.359  -8.094  -7.453  1.00  0.00    -0.480 OA
ATOM     68  H   UNL     1      -9.933  -7.374  -7.966  1.00  0.00     0.296 HD
ENDBRANCH  65  67
ENDBRANCH  49  65
ENDBRANCH  47  49
ENDBRANCH  43  45
ENDBRANCH   1  43
BRANCH   1  69
ATOM     69  C   UNL     1      -8.315 -10.487  -0.179  1.00  0.00    -0.001 C 
ATOM     70  C   UNL     1      -7.297 -10.811   0.638  1.00  0.00     0.001 C 
BRANCH  70  71
ATOM     71  C   UNL     1      -7.394 -11.436   1.959  1.00  0.00    -0.055 C 
ATOM     72  C   UNL     1      -8.565 -11.327   2.621  1.00  0.00    -0.018 C 
ATOM     73  C   UNL     1      -6.183 -12.165   2.481  1.00  0.00     0.044 C 
BRANCH  72  74
ATOM     74  C   UNL     1      -8.953 -11.869   3.989  1.00  0.00     0.038 C 
ATOM     75  C   UNL     1     -10.216 -12.718   3.798  1.00  0.00     0.015 C 
BRANCH  74  76
ATOM     76  C   UNL     1      -9.111 -10.675   4.975  1.00  0.00     0.128 C 
BRANCH  76  77
ATOM     77  O   UNL     1      -7.834 -10.335   5.543  1.00  0.00    -0.381 OA
ATOM     78  C   UNL     1      -7.124 -11.451   6.061  1.00  0.00     0.195 C 
ENDBRANCH  76  77
BRANCH  76  79
ATOM     79  C   UNL     1      -9.843  -9.451   4.370  1.00  0.00     0.068 C 
BRANCH  79  80
ATOM     80  C   UNL     1      -9.049  -8.185   4.159  1.00  0.00    -0.045 A 
ATOM     81  C   UNL     1      -8.303  -7.987   2.990  1.00  0.00     0.004 A 
ATOM     82  C   UNL     1      -9.024  -7.193   5.151  1.00  0.00     0.004 A 
ATOM     83  C   UNL     1      -7.559  -6.819   2.809  1.00  0.00     0.000 A 
ATOM     84  C   UNL     1      -8.279  -6.025   4.969  1.00  0.00     0.000 A 
ATOM     85  C   UNL     1      -7.549  -5.838   3.798  1.00  0.00     0.000 A 
ENDBRANCH  79  80
ENDBRANCH  76  79
ENDBRANCH  74  76
ENDBRANCH  72  74
ENDBRANCH  70  71
ENDBRANCH   1  69
TORSDOF 17
ENDMDL
MODEL 35
REMARK VINA RESULT:    -6.255      8.629     13.359
REMARK INTER + INTRA:         -25.485
REMARK INTER:                 -19.319
REMARK INTRA:                  -6.167
REMARK UNBOUND:                -6.799
REMARK SMILES C=C1C(=O)N[C@H](C)C(=O)N[C@@H](CC(C)C)C(=O)N[C@@H](C(=O)O)[C@H](C)C(=O)N[C@@H](CCCN=C(N)N)C(=O)N[C@@H](/C=C/C(C)=C/[C@H](C)[C@H](Cc2ccccc2)OC)[C@H](C)C(=O)N[C@@H](C(=O)O)CCC(=O)N1C
REMARK SMILES IDX 39 1 38 2 37 3 36 4 28 6 27 7 25 8 26 9 23 11 24 12 19 13
REMARK SMILES IDX 18 14 16 15 17 16 11 18 10 19 8 20 9 21 12 24 13 25 14 26
REMARK SMILES IDX 15 27 20 28 21 29 22 30 29 32 30 33 31 34 32 35 33 36 34 37
REMARK SMILES IDX 35 38 57 43 58 44 59 45 60 46 61 47 62 49 66 50 67 51 68 52
REMARK SMILES IDX 69 53 70 54 71 55 2 56 1 57 3 58 4 59 5 60 6 62 7 63 63 65
REMARK SMILES IDX 64 66 65 67 40 69 41 70 42 71 44 72 43 73 45 74 46 75 47 76
REMARK SMILES IDX 55 77 56 78 48 79 49 80 50 81 54 82 51 83 53 84 52 85
REMARK H PARENT 38 5 27 10 18 17 10 22 22 31 34 39 34 40 35 41 35 42 61 48
REMARK H PARENT 5 61 65 68
REMARK Flexibility Score:  369.900
ROOT
ATOM      1  C   UNL     1      -9.976  -6.125  -1.652  1.00  0.00     0.117 C 
ENDROOT
BRANCH   1   2
ATOM      2  N   UNL     1      -9.092  -6.428  -2.778  1.00  0.00    -0.347 N 
ATOM      3  O   UNL     1     -10.333  -5.426  -4.429  1.00  0.00    -0.273 OA
ATOM      4  C   UNL     1      -9.297  -5.973  -4.067  1.00  0.00     0.243 C 
ATOM      5  H   UNL     1      -8.249  -6.959  -2.617  1.00  0.00     0.164 HD
BRANCH   4   6
ATOM      6  C   UNL     1      -8.167  -6.364  -5.053  1.00  0.00     0.171 C 
BRANCH   6   7
ATOM      7  N   UNL     1      -7.912  -5.269  -6.003  1.00  0.00    -0.344 N 
ATOM      8  C   UNL     1      -7.565  -5.539  -7.309  1.00  0.00     0.226 C 
ATOM      9  O   UNL     1      -7.431  -6.680  -7.735  1.00  0.00    -0.275 OA
ATOM     10  H   UNL     1      -7.947  -4.313  -5.671  1.00  0.00     0.164 HD
BRANCH   8  11
ATOM     11  C   UNL     1      -7.390  -4.305  -8.177  1.00  0.00     0.109 C 
ATOM     12  C   UNL     1      -7.751  -3.049  -7.385  1.00  0.00     0.021 C 
BRANCH  11  13
ATOM     13  C   UNL     1      -5.977  -4.298  -8.795  1.00  0.00     0.204 C 
BRANCH  13  14
ATOM     14  N   UNL     1      -4.964  -4.797  -7.859  1.00  0.00    -0.340 N 
ATOM     15  C   UNL     1      -3.682  -4.295  -7.807  1.00  0.00     0.243 C 
ATOM     16  O   UNL     1      -3.315  -3.349  -8.501  1.00  0.00    -0.273 OA
ATOM     17  H   UNL     1      -5.156  -5.674  -7.367  1.00  0.00     0.164 HD
BRANCH  15  18
ATOM     18  C   UNL     1      -2.734  -5.112  -6.895  1.00  0.00     0.171 C 
BRANCH  18  19
ATOM     19  N   UNL     1      -2.087  -6.107  -7.748  1.00  0.00    -0.343 N 
ATOM     20  C   UNL     1      -2.653  -7.345  -7.983  1.00  0.00     0.242 CG0
ATOM     21  O   UNL     1      -3.658  -7.717  -7.383  1.00  0.00    -0.273 OA
ATOM     22  H   UNL     1      -1.194  -5.889  -8.176  1.00  0.00     0.164 HD
ATOM     23  G   UNL     1      -1.863  -8.228  -8.971  1.00  0.00     0.000 G0
ENDBRANCH  18  19
BRANCH  18  24
ATOM     24  C   UNL     1      -1.707  -4.194  -6.221  1.00  0.00     0.038 C 
BRANCH  24  25
ATOM     25  C   UNL     1      -2.082  -3.746  -4.793  1.00  0.00    -0.015 C 
ATOM     26  C   UNL     1      -3.113  -4.667  -4.142  1.00  0.00     0.007 C 
ATOM     27  C   UNL     1      -2.621  -2.313  -4.829  1.00  0.00     0.007 C 
ENDBRANCH  24  25
ENDBRANCH  18  24
ENDBRANCH  15  18
ENDBRANCH  13  14
BRANCH  13  28
ATOM     28  C   UNL     1      -5.872  -5.140 -10.070  1.00  0.00     0.327 C 
ATOM     29  O   UNL     1      -5.074  -6.042 -10.277  1.00  0.00    -0.250 OA
BRANCH  28  30
ATOM     30  O   UNL     1      -6.695  -4.719 -11.051  1.00  0.00    -0.480 OA
ATOM     31  H   UNL     1      -7.360  -5.435 -11.132  1.00  0.00     0.296 HD
ENDBRANCH  28  30
ENDBRANCH  13  28
ENDBRANCH  11  13
ENDBRANCH   8  11
ENDBRANCH   6   7
BRANCH   6  32
ATOM     32  C   UNL     1      -6.901  -6.704  -4.259  1.00  0.00     0.037 C 
BRANCH  32  33
ATOM     33  C   UNL     1      -6.436  -8.147  -4.500  1.00  0.00     0.026 C 
BRANCH  33  34
ATOM     34  C   UNL     1      -5.579  -8.686  -3.354  1.00  0.00     0.146 C 
BRANCH  34  35
ATOM     35  N   UNL     1      -4.957  -9.932  -3.778  1.00  0.00    -0.254 NA
ATOM     36  C   UNL     1      -4.631 -10.791  -2.885  1.00  0.00     0.185 C 
ATOM     37  N   UNL     1      -4.062 -11.945  -3.265  1.00  0.00    -0.370 N 
ATOM     38  N   UNL     1      -4.777 -10.719  -1.550  1.00  0.00    -0.370 N 
ATOM     39  H   UNL     1      -3.927 -12.080  -4.259  1.00  0.00     0.159 HD
ATOM     40  H   UNL     1      -3.938 -12.733  -2.652  1.00  0.00     0.159 HD
ATOM     41  H   UNL     1      -4.353 -11.400  -0.942  1.00  0.00     0.159 HD
ATOM     42  H   UNL     1      -5.177  -9.898  -1.122  1.00  0.00     0.159 HD
ENDBRANCH  34  35
ENDBRANCH  33  34
ENDBRANCH  32  33
ENDBRANCH   6  32
ENDBRANCH   4   6
ENDBRANCH   1   2
BRANCH   1  43
ATOM     43  C   UNL     1      -9.482  -4.815  -0.973  1.00  0.00     0.102 C 
ATOM     44  C   UNL     1      -9.486  -4.883   0.563  1.00  0.00     0.020 C 
BRANCH  43  45
ATOM     45  C   UNL     1     -10.208  -3.593  -1.543  1.00  0.00     0.225 C 
ATOM     46  O   UNL     1      -9.644  -2.529  -1.782  1.00  0.00    -0.275 OA
ATOM     47  N   UNL     1     -11.570  -3.727  -1.688  1.00  0.00    -0.342 N 
ATOM     48  H   UNL     1     -11.991  -4.644  -1.634  1.00  0.00     0.164 HD
BRANCH  47  49
ATOM     49  C   UNL     1     -12.389  -2.652  -2.255  1.00  0.00     0.192 C 
BRANCH  49  50
ATOM     50  C   UNL     1     -13.851  -2.849  -1.846  1.00  0.00     0.047 C 
BRANCH  50  51
ATOM     51  C   UNL     1     -14.083  -2.563  -0.356  1.00  0.00     0.103 C 
BRANCH  51  52
ATOM     52  C   UNL     1     -15.553  -2.287  -0.046  1.00  0.00     0.226 C 
ATOM     53  O   UNL     1     -16.336  -3.229   0.084  1.00  0.00    -0.275 OA
BRANCH  52  54
ATOM     54  N   UNL     1     -15.910  -0.940   0.149  1.00  0.00    -0.311 N 
ATOM     55  C   UNL     1     -15.149  -0.081   1.066  1.00  0.00     0.153 C 
BRANCH  54  56
ATOM     56  C   UNL     1     -16.999  -0.365  -0.528  1.00  0.00     0.102 C 
ATOM     57  C   UNL     1     -17.305  -0.586  -1.817  1.00  0.00     0.043 C 
BRANCH  56  58
ATOM     58  C   UNL     1     -17.967   0.543   0.192  1.00  0.00     0.268 C 
ATOM     59  O   UNL     1     -18.727   0.153   1.068  1.00  0.00    -0.268 OA
ATOM     60  N   UNL     1     -17.859   1.859  -0.190  1.00  0.00    -0.339 N 
ATOM     61  H   UNL     1     -17.212   2.100  -0.932  1.00  0.00     0.164 HD
BRANCH  60  62
ATOM     62  C   UNL     1     -18.659   2.917   0.425  1.00  0.00     0.168 CG0
ATOM     63  C   UNL     1     -17.881   3.618   1.532  1.00  0.00     0.041 C 
ATOM     64  G   UNL     1     -19.971   2.320   0.975  1.00  0.00     0.000 G0
ENDBRANCH  60  62
ENDBRANCH  56  58
ENDBRANCH  54  56
ENDBRANCH  52  54
ENDBRANCH  51  52
ENDBRANCH  50  51
ENDBRANCH  49  50
BRANCH  49  65
ATOM     65  C   UNL     1     -12.291  -2.612  -3.788  1.00  0.00     0.326 C 
ATOM     66  O   UNL     1     -11.937  -1.649  -4.452  1.00  0.00    -0.250 OA
BRANCH  65  67
ATOM     67  O   UNL     1     -12.693  -3.743  -4.408  1.00  0.00    -0.480 OA
ATOM     68  H   UNL     1     -13.559  -3.941  -3.991  1.00  0.00     0.296 HD
ENDBRANCH  65  67
ENDBRANCH  49  65
ENDBRANCH  47  49
ENDBRANCH  43  45
ENDBRANCH   1  43
BRANCH   1  69
ATOM     69  C   UNL     1     -10.057  -7.395  -0.824  1.00  0.00    -0.001 C 
ATOM     70  C   UNL     1      -9.331  -8.516  -0.974  1.00  0.00     0.001 C 
BRANCH  70  71
ATOM     71  C   UNL     1      -9.404  -9.728  -0.155  1.00  0.00    -0.055 C 
ATOM     72  C   UNL     1      -9.575  -9.576   1.175  1.00  0.00    -0.018 C 
ATOM     73  C   UNL     1      -9.291 -11.057  -0.855  1.00  0.00     0.044 C 
BRANCH  72  74
ATOM     74  C   UNL     1      -9.688 -10.639   2.258  1.00  0.00     0.038 C 
ATOM     75  C   UNL     1     -11.163 -10.708   2.673  1.00  0.00     0.015 C 
BRANCH  74  76
ATOM     76  C   UNL     1      -8.702 -10.287   3.411  1.00  0.00     0.128 C 
BRANCH  76  77
ATOM     77  O   UNL     1      -7.542  -9.625   2.879  1.00  0.00    -0.381 OA
ATOM     78  C   UNL     1      -6.342 -10.372   3.025  1.00  0.00     0.195 C 
ENDBRANCH  76  77
BRANCH  76  79
ATOM     79  C   UNL     1      -9.354  -9.506   4.580  1.00  0.00     0.068 C 
BRANCH  79  80
ATOM     80  C   UNL     1      -9.370  -7.999   4.503  1.00  0.00    -0.045 A 
ATOM     81  C   UNL     1     -10.438  -7.318   3.904  1.00  0.00     0.004 A 
ATOM     82  C   UNL     1      -8.293  -7.254   5.008  1.00  0.00     0.004 A 
ATOM     83  C   UNL     1     -10.438  -5.924   3.823  1.00  0.00     0.000 A 
ATOM     84  C   UNL     1      -8.294  -5.859   4.926  1.00  0.00     0.000 A 
ATOM     85  C   UNL     1      -9.367  -5.195   4.336  1.00  0.00     0.000 A 
ENDBRANCH  79  80
ENDBRANCH  76  79
ENDBRANCH  74  76
ENDBRANCH  72  74
ENDBRANCH  70  71
ENDBRANCH   1  69
TORSDOF 17
ENDMDL
MODEL 36
REMARK VINA RESULT:    -6.224     12.455     20.721
REMARK INTER + INTRA:         -25.394
REMARK INTER:                 -19.646
REMARK INTRA:                  -5.747
REMARK UNBOUND:                -6.799
REMARK SMILES C=C1C(=O)N[C@H](C)C(=O)N[C@@H](CC(C)C)C(=O)N[C@@H](C(=O)O)[C@H](C)C(=O)N[C@@H](CCCN=C(N)N)C(=O)N[C@@H](/C=C/C(C)=C/[C@H](C)[C@H](Cc2ccccc2)OC)[C@H](C)C(=O)N[C@@H](C(=O)O)CCC(=O)N1C
REMARK SMILES IDX 39 1 38 2 37 3 36 4 28 6 27 7 25 8 26 9 23 11 24 12 19 13
REMARK SMILES IDX 18 14 16 15 17 16 11 18 10 19 8 20 9 21 12 24 13 25 14 26
REMARK SMILES IDX 15 27 20 28 21 29 22 30 29 32 30 33 31 34 32 35 33 36 34 37
REMARK SMILES IDX 35 38 57 43 58 44 59 45 60 46 61 47 62 49 66 50 67 51 68 52
REMARK SMILES IDX 69 53 70 54 71 55 2 56 1 57 3 58 4 59 5 60 6 62 7 63 63 65
REMARK SMILES IDX 64 66 65 67 40 69 41 70 42 71 44 72 43 73 45 74 46 75 47 76
REMARK SMILES IDX 55 77 56 78 48 79 49 80 50 81 54 82 51 83 53 84 52 85
REMARK H PARENT 38 5 27 10 18 17 10 22 22 31 34 39 34 40 35 41 35 42 61 48
REMARK H PARENT 5 61 65 68
REMARK Flexibility Score:  369.900
ROOT
ATOM      1  C   UNL     1       1.735   2.341   1.663  1.00  0.00     0.117 C 
ENDROOT
BRANCH   1   2
ATOM      2  N   UNL     1       0.730   3.226   1.073  1.00  0.00    -0.347 N 
ATOM      3  O   UNL     1      -0.714   1.605   0.326  1.00  0.00    -0.273 OA
ATOM      4  C   UNL     1      -0.463   2.788   0.531  1.00  0.00     0.243 C 
ATOM      5  H   UNL     1       0.874   4.224   1.098  1.00  0.00     0.164 HD
BRANCH   4   6
ATOM      6  C   UNL     1      -1.389   3.936   0.053  1.00  0.00     0.171 C 
BRANCH   6   7
ATOM      7  N   UNL     1      -2.327   3.447  -0.970  1.00  0.00    -0.344 N 
ATOM      8  C   UNL     1      -1.917   3.273  -2.274  1.00  0.00     0.226 C 
ATOM      9  O   UNL     1      -0.779   3.531  -2.648  1.00  0.00    -0.275 OA
ATOM     10  H   UNL     1      -3.293   3.287  -0.713  1.00  0.00     0.164 HD
BRANCH   8  11
ATOM     11  C   UNL     1      -2.985   2.711  -3.196  1.00  0.00     0.109 C 
ATOM     12  C   UNL     1      -4.375   3.071  -2.671  1.00  0.00     0.021 C 
BRANCH  11  13
ATOM     13  C   UNL     1      -2.706   3.152  -4.647  1.00  0.00     0.204 C 
BRANCH  13  14
ATOM     14  N   UNL     1      -2.185   4.521  -4.717  1.00  0.00    -0.340 N 
ATOM     15  C   UNL     1      -2.881   5.557  -5.301  1.00  0.00     0.243 C 
ATOM     16  O   UNL     1      -4.017   5.418  -5.752  1.00  0.00    -0.273 OA
ATOM     17  H   UNL     1      -1.196   4.670  -4.501  1.00  0.00     0.164 HD
BRANCH  15  18
ATOM     18  C   UNL     1      -2.051   6.856  -5.445  1.00  0.00     0.171 C 
BRANCH  18  19
ATOM     19  N   UNL     1      -2.570   7.796  -4.452  1.00  0.00    -0.343 N 
ATOM     20  C   UNL     1      -2.898   9.097  -4.781  1.00  0.00     0.242 CG0
ATOM     21  O   UNL     1      -2.644   9.563  -5.890  1.00  0.00    -0.273 OA
ATOM     22  H   UNL     1      -2.688   7.491  -3.493  1.00  0.00     0.164 HD
ATOM     23  G   UNL     1      -3.503   9.914  -3.621  1.00  0.00     0.000 G0
ENDBRANCH  18  19
BRANCH  18  24
ATOM     24  C   UNL     1      -0.560   6.573  -5.225  1.00  0.00     0.038 C 
BRANCH  24  25
ATOM     25  C   UNL     1       0.299   6.613  -6.507  1.00  0.00    -0.015 C 
ATOM     26  C   UNL     1      -0.490   7.092  -7.726  1.00  0.00     0.007 C 
ATOM     27  C   UNL     1       0.878   5.223  -6.782  1.00  0.00     0.007 C 
ENDBRANCH  24  25
ENDBRANCH  18  24
ENDBRANCH  15  18
ENDBRANCH  13  14
BRANCH  13  28
ATOM     28  C   UNL     1      -1.703   2.248  -5.370  1.00  0.00     0.327 C 
ATOM     29  O   UNL     1      -1.312   2.376  -6.520  1.00  0.00    -0.250 OA
BRANCH  28  30
ATOM     30  O   UNL     1      -1.344   1.170  -4.644  1.00  0.00    -0.480 OA
ATOM     31  H   UNL     1      -0.712   1.523  -3.984  1.00  0.00     0.296 HD
ENDBRANCH  28  30
ENDBRANCH  13  28
ENDBRANCH  11  13
ENDBRANCH   8  11
ENDBRANCH   6   7
BRANCH   6  32
ATOM     32  C   UNL     1      -2.142   4.510   1.258  1.00  0.00     0.037 C 
BRANCH  32  33
ATOM     33  C   UNL     1      -3.663   4.362   1.113  1.00  0.00     0.026 C 
BRANCH  33  34
ATOM     34  C   UNL     1      -4.279   3.521   2.232  1.00  0.00     0.146 C 
BRANCH  34  35
ATOM     35  N   UNL     1      -3.368   2.431   2.555  1.00  0.00    -0.254 NA
ATOM     36  C   UNL     1      -3.570   1.284   2.023  1.00  0.00     0.185 C 
ATOM     37  N   UNL     1      -2.734   0.274   2.310  1.00  0.00    -0.370 N 
ATOM     38  N   UNL     1      -4.540   0.906   1.171  1.00  0.00    -0.370 N 
ATOM     39  H   UNL     1      -1.969   0.482   2.938  1.00  0.00     0.159 HD
ATOM     40  H   UNL     1      -2.720  -0.596   1.806  1.00  0.00     0.159 HD
ATOM     41  H   UNL     1      -4.675  -0.062   0.931  1.00  0.00     0.159 HD
ATOM     42  H   UNL     1      -5.250   1.560   0.880  1.00  0.00     0.159 HD
ENDBRANCH  34  35
ENDBRANCH  33  34
ENDBRANCH  32  33
ENDBRANCH   6  32
ENDBRANCH   4   6
ENDBRANCH   1   2
BRANCH   1  43
ATOM     43  C   UNL     1       1.857   2.670   3.179  1.00  0.00     0.102 C 
ATOM     44  C   UNL     1       3.310   2.825   3.657  1.00  0.00     0.020 C 
BRANCH  43  45
ATOM     45  C   UNL     1       1.025   1.698   4.021  1.00  0.00     0.225 C 
ATOM     46  O   UNL     1      -0.012   1.179   3.618  1.00  0.00    -0.275 OA
ATOM     47  N   UNL     1       1.464   1.508   5.312  1.00  0.00    -0.342 N 
ATOM     48  H   UNL     1       2.389   1.816   5.576  1.00  0.00     0.164 HD
BRANCH  47  49
ATOM     49  C   UNL     1       0.788   0.578   6.221  1.00  0.00     0.192 C 
BRANCH  49  50
ATOM     50  C   UNL     1       0.164  -0.566   5.417  1.00  0.00     0.047 C 
BRANCH  50  51
ATOM     51  C   UNL     1       0.430  -1.937   6.053  1.00  0.00     0.103 C 
BRANCH  51  52
ATOM     52  C   UNL     1       0.044  -3.085   5.123  1.00  0.00     0.226 C 
ATOM     53  O   UNL     1      -0.551  -2.844   4.071  1.00  0.00    -0.275 OA
BRANCH  52  54
ATOM     54  N   UNL     1       0.472  -4.371   5.503  1.00  0.00    -0.311 N 
ATOM     55  C   UNL     1       1.028  -5.305   4.516  1.00  0.00     0.153 C 
BRANCH  54  56
ATOM     56  C   UNL     1       0.389  -4.806   6.836  1.00  0.00     0.102 C 
ATOM     57  C   UNL     1      -0.738  -4.836   7.566  1.00  0.00     0.043 C 
BRANCH  56  58
ATOM     58  C   UNL     1       1.607  -5.334   7.556  1.00  0.00     0.268 C 
ATOM     59  O   UNL     1       1.555  -6.219   8.400  1.00  0.00    -0.268 OA
ATOM     60  N   UNL     1       2.781  -4.767   7.120  1.00  0.00    -0.339 N 
ATOM     61  H   UNL     1       2.738  -4.032   6.425  1.00  0.00     0.164 HD
BRANCH  60  62
ATOM     62  C   UNL     1       4.085  -5.179   7.639  1.00  0.00     0.168 CG0
ATOM     63  C   UNL     1       4.967  -3.969   7.923  1.00  0.00     0.041 C 
ATOM     64  G   UNL     1       4.766  -6.127   6.631  1.00  0.00     0.000 G0
ENDBRANCH  60  62
ENDBRANCH  56  58
ENDBRANCH  54  56
ENDBRANCH  52  54
ENDBRANCH  51  52
ENDBRANCH  50  51
ENDBRANCH  49  50
BRANCH  49  65
ATOM     65  C   UNL     1      -0.307   1.281   7.040  1.00  0.00     0.326 C 
ATOM     66  O   UNL     1      -1.094   2.111   6.609  1.00  0.00    -0.250 OA
BRANCH  65  67
ATOM     67  O   UNL     1      -0.322   0.961   8.352  1.00  0.00    -0.480 OA
ATOM     68  H   UNL     1       0.420   1.483   8.727  1.00  0.00     0.296 HD
ENDBRANCH  65  67
ENDBRANCH  49  65
ENDBRANCH  47  49
ENDBRANCH  43  45
ENDBRANCH   1  43
BRANCH   1  69
ATOM     69  C   UNL     1       2.969   2.457   0.786  1.00  0.00    -0.001 C 
ATOM     70  C   UNL     1       3.298   3.474  -0.030  1.00  0.00     0.001 C 
BRANCH  70  71
ATOM     71  C   UNL     1       4.503   3.585  -0.855  1.00  0.00    -0.055 C 
ATOM     72  C   UNL     1       4.777   2.572  -1.704  1.00  0.00    -0.018 C 
ATOM     73  C   UNL     1       5.346   4.824  -0.705  1.00  0.00     0.044 C 
BRANCH  72  74
ATOM     74  C   UNL     1       5.940   2.415  -2.674  1.00  0.00     0.038 C 
ATOM     75  C   UNL     1       7.218   2.781  -1.909  1.00  0.00     0.015 C 
BRANCH  74  76
ATOM     76  C   UNL     1       5.662   3.286  -3.934  1.00  0.00     0.128 C 
BRANCH  76  77
ATOM     77  O   UNL     1       6.159   2.622  -5.109  1.00  0.00    -0.381 OA
ATOM     78  C   UNL     1       5.680   1.292  -5.259  1.00  0.00     0.195 C 
ENDBRANCH  76  77
BRANCH  76  79
ATOM     79  C   UNL     1       4.185   3.731  -4.078  1.00  0.00     0.068 C 
BRANCH  79  80
ATOM     80  C   UNL     1       3.913   5.163  -4.474  1.00  0.00    -0.045 A 
ATOM     81  C   UNL     1       4.523   5.728  -5.601  1.00  0.00     0.004 A 
ATOM     82  C   UNL     1       3.062   5.962  -3.695  1.00  0.00     0.004 A 
ATOM     83  C   UNL     1       4.277   7.058  -5.952  1.00  0.00     0.000 A 
ATOM     84  C   UNL     1       2.818   7.292  -4.047  1.00  0.00     0.000 A 
ATOM     85  C   UNL     1       3.424   7.838  -5.175  1.00  0.00     0.000 A 
ENDBRANCH  79  80
ENDBRANCH  76  79
ENDBRANCH  74  76
ENDBRANCH  72  74
ENDBRANCH  70  71
ENDBRANCH   1  69
TORSDOF 17
ENDMDL
MODEL 37
REMARK VINA RESULT:    -6.219     11.910     18.736
REMARK INTER + INTRA:         -25.379
REMARK INTER:                 -18.561
REMARK INTRA:                  -6.818
REMARK UNBOUND:                -6.799
REMARK SMILES C=C1C(=O)N[C@H](C)C(=O)N[C@@H](CC(C)C)C(=O)N[C@@H](C(=O)O)[C@H](C)C(=O)N[C@@H](CCCN=C(N)N)C(=O)N[C@@H](/C=C/C(C)=C/[C@H](C)[C@H](Cc2ccccc2)OC)[C@H](C)C(=O)N[C@@H](C(=O)O)CCC(=O)N1C
REMARK SMILES IDX 39 1 38 2 37 3 36 4 28 6 27 7 25 8 26 9 23 11 24 12 19 13
REMARK SMILES IDX 18 14 16 15 17 16 11 18 10 19 8 20 9 21 12 24 13 25 14 26
REMARK SMILES IDX 15 27 20 28 21 29 22 30 29 32 30 33 31 34 32 35 33 36 34 37
REMARK SMILES IDX 35 38 57 43 58 44 59 45 60 46 61 47 62 49 66 50 67 51 68 52
REMARK SMILES IDX 69 53 70 54 71 55 2 56 1 57 3 58 4 59 5 60 6 62 7 63 63 65
REMARK SMILES IDX 64 66 65 67 40 69 41 70 42 71 44 72 43 73 45 74 46 75 47 76
REMARK SMILES IDX 55 77 56 78 48 79 49 80 50 81 54 82 51 83 53 84 52 85
REMARK H PARENT 38 5 27 10 18 17 10 22 22 31 34 39 34 40 35 41 35 42 61 48
REMARK H PARENT 5 61 65 68
REMARK Flexibility Score:  369.900
ROOT
ATOM      1  C   UNL     1      -3.557   5.403   1.561  1.00  0.00     0.117 C 
ENDROOT
BRANCH   1   2
ATOM      2  N   UNL     1      -4.765   4.853   2.177  1.00  0.00    -0.347 N 
ATOM      3  O   UNL     1      -4.751   6.127   4.087  1.00  0.00    -0.273 OA
ATOM      4  C   UNL     1      -5.318   5.325   3.352  1.00  0.00     0.243 C 
ATOM      5  H   UNL     1      -5.269   4.116   1.707  1.00  0.00     0.164 HD
BRANCH   4   6
ATOM      6  C   UNL     1      -6.645   4.626   3.741  1.00  0.00     0.171 C 
BRANCH   6   7
ATOM      7  N   UNL     1      -7.631   4.753   2.656  1.00  0.00    -0.344 N 
ATOM      8  C   UNL     1      -8.657   5.670   2.743  1.00  0.00     0.226 C 
ATOM      9  O   UNL     1      -8.812   6.397   3.717  1.00  0.00    -0.275 OA
ATOM     10  H   UNL     1      -7.575   4.123   1.866  1.00  0.00     0.164 HD
BRANCH   8  11
ATOM     11  C   UNL     1      -9.557   5.718   1.521  1.00  0.00     0.109 C 
ATOM     12  C   UNL     1      -9.841   4.301   1.020  1.00  0.00     0.021 C 
BRANCH  11  13
ATOM     13  C   UNL     1     -10.811   6.559   1.830  1.00  0.00     0.204 C 
BRANCH  13  14
ATOM     14  N   UNL     1     -10.724   7.909   1.264  1.00  0.00    -0.340 N 
ATOM     15  C   UNL     1     -10.602   9.040   2.042  1.00  0.00     0.243 C 
ATOM     16  O   UNL     1     -10.497   8.991   3.266  1.00  0.00    -0.273 OA
ATOM     17  H   UNL     1     -10.956   8.031   0.275  1.00  0.00     0.164 HD
BRANCH  15  18
ATOM     18  C   UNL     1     -10.737  10.359   1.242  1.00  0.00     0.171 C 
BRANCH  18  19
ATOM     19  N   UNL     1     -10.650  11.448   2.212  1.00  0.00    -0.343 N 
ATOM     20  C   UNL     1     -11.739  12.240   2.519  1.00  0.00     0.242 CG0
ATOM     21  O   UNL     1     -12.794  12.153   1.895  1.00  0.00    -0.273 OA
ATOM     22  H   UNL     1      -9.766  11.635   2.671  1.00  0.00     0.164 HD
ATOM     23  G   UNL     1     -11.476  13.286   3.622  1.00  0.00     0.000 G0
ENDBRANCH  18  19
BRANCH  18  24
ATOM     24  C   UNL     1      -9.637  10.463   0.179  1.00  0.00     0.038 C 
BRANCH  24  25
ATOM     25  C   UNL     1      -8.198  10.429   0.736  1.00  0.00    -0.015 C 
ATOM     26  C   UNL     1      -7.419  11.707   0.423  1.00  0.00     0.007 C 
ATOM     27  C   UNL     1      -7.453   9.219   0.167  1.00  0.00     0.007 C 
ENDBRANCH  24  25
ENDBRANCH  18  24
ENDBRANCH  15  18
ENDBRANCH  13  14
BRANCH  13  28
ATOM     28  C   UNL     1     -12.105   5.930   1.304  1.00  0.00     0.327 C 
ATOM     29  O   UNL     1     -12.889   5.246   1.945  1.00  0.00    -0.250 OA
BRANCH  28  30
ATOM     30  O   UNL     1     -12.274   6.099  -0.023  1.00  0.00    -0.480 OA
ATOM     31  H   UNL     1     -13.237   5.982  -0.160  1.00  0.00     0.296 HD
ENDBRANCH  28  30
ENDBRANCH  13  28
ENDBRANCH  11  13
ENDBRANCH   8  11
ENDBRANCH   6   7
BRANCH   6  32
ATOM     32  C   UNL     1      -6.365   3.152   4.056  1.00  0.00     0.037 C 
BRANCH  32  33
ATOM     33  C   UNL     1      -6.998   2.209   3.024  1.00  0.00     0.026 C 
BRANCH  33  34
ATOM     34  C   UNL     1      -6.006   1.768   1.947  1.00  0.00     0.146 C 
BRANCH  34  35
ATOM     35  N   UNL     1      -5.000   0.910   2.558  1.00  0.00    -0.254 NA
ATOM     36  C   UNL     1      -3.982   0.564   1.862  1.00  0.00     0.185 C 
ATOM     37  N   UNL     1      -3.047  -0.223   2.417  1.00  0.00    -0.370 N 
ATOM     38  N   UNL     1      -3.681   0.882   0.591  1.00  0.00    -0.370 N 
ATOM     39  H   UNL     1      -3.197  -0.497   3.380  1.00  0.00     0.159 HD
ATOM     40  H   UNL     1      -2.146  -0.393   2.004  1.00  0.00     0.159 HD
ATOM     41  H   UNL     1      -2.919   0.434   0.108  1.00  0.00     0.159 HD
ATOM     42  H   UNL     1      -4.304   1.456   0.044  1.00  0.00     0.159 HD
ENDBRANCH  34  35
ENDBRANCH  33  34
ENDBRANCH  32  33
ENDBRANCH   6  32
ENDBRANCH   4   6
ENDBRANCH   1   2
BRANCH   1  43
ATOM     43  C   UNL     1      -3.806   5.555   0.033  1.00  0.00     0.102 C 
ATOM     44  C   UNL     1      -5.185   6.146  -0.307  1.00  0.00     0.020 C 
BRANCH  43  45
ATOM     45  C   UNL     1      -3.489   4.253  -0.709  1.00  0.00     0.225 C 
ATOM     46  O   UNL     1      -4.250   3.290  -0.730  1.00  0.00    -0.275 OA
ATOM     47  N   UNL     1      -2.239   4.187  -1.281  1.00  0.00    -0.342 N 
ATOM     48  H   UNL     1      -1.692   5.030  -1.386  1.00  0.00     0.164 HD
BRANCH  47  49
ATOM     49  C   UNL     1      -1.811   3.016  -2.053  1.00  0.00     0.192 C 
BRANCH  49  50
ATOM     50  C   UNL     1      -0.751   2.241  -1.266  1.00  0.00     0.047 C 
BRANCH  50  51
ATOM     51  C   UNL     1       0.382   3.147  -0.766  1.00  0.00     0.103 C 
BRANCH  51  52
ATOM     52  C   UNL     1       1.716   2.818  -1.432  1.00  0.00     0.226 C 
ATOM     53  O   UNL     1       1.787   1.875  -2.222  1.00  0.00    -0.275 OA
BRANCH  52  54
ATOM     54  N   UNL     1       2.789   3.684  -1.149  1.00  0.00    -0.311 N 
ATOM     55  C   UNL     1       3.074   4.109   0.227  1.00  0.00     0.153 C 
BRANCH  54  56
ATOM     56  C   UNL     1       3.627   4.168  -2.167  1.00  0.00     0.102 C 
ATOM     57  C   UNL     1       3.432   5.311  -2.845  1.00  0.00     0.043 C 
BRANCH  56  58
ATOM     58  C   UNL     1       4.884   3.425  -2.554  1.00  0.00     0.268 C 
ATOM     59  O   UNL     1       5.264   2.410  -1.986  1.00  0.00    -0.268 OA
ATOM     60  N   UNL     1       5.518   3.969  -3.646  1.00  0.00    -0.339 N 
ATOM     61  H   UNL     1       5.145   4.818  -4.053  1.00  0.00     0.164 HD
BRANCH  60  62
ATOM     62  C   UNL     1       6.720   3.370  -4.227  1.00  0.00     0.168 CG0
ATOM     63  C   UNL     1       6.427   2.778  -5.600  1.00  0.00     0.041 C 
ATOM     64  G   UNL     1       7.272   2.291  -3.273  1.00  0.00     0.000 G0
ENDBRANCH  60  62
ENDBRANCH  56  58
ENDBRANCH  54  56
ENDBRANCH  52  54
ENDBRANCH  51  52
ENDBRANCH  50  51
ENDBRANCH  49  50
BRANCH  49  65
ATOM     65  C   UNL     1      -1.235   3.418  -3.420  1.00  0.00     0.326 C 
ATOM     66  O   UNL     1      -1.352   4.516  -3.945  1.00  0.00    -0.250 OA
BRANCH  65  67
ATOM     67  O   UNL     1      -0.604   2.423  -4.081  1.00  0.00    -0.480 OA
ATOM     68  H   UNL     1       0.099   2.141  -3.457  1.00  0.00     0.296 HD
ENDBRANCH  65  67
ENDBRANCH  49  65
ENDBRANCH  47  49
ENDBRANCH  43  45
ENDBRANCH   1  43
BRANCH   1  69
ATOM     69  C   UNL     1      -2.407   4.533   2.034  1.00  0.00    -0.001 C 
ATOM     70  C   UNL     1      -2.416   3.642   3.041  1.00  0.00     0.001 C 
BRANCH  70  71
ATOM     71  C   UNL     1      -1.305   2.793   3.474  1.00  0.00    -0.055 C 
ATOM     72  C   UNL     1      -0.198   2.766   2.704  1.00  0.00    -0.018 C 
ATOM     73  C   UNL     1      -1.473   2.015   4.754  1.00  0.00     0.044 C 
BRANCH  72  74
ATOM     74  C   UNL     1       1.096   1.990   2.903  1.00  0.00     0.038 C 
ATOM     75  C   UNL     1       0.713   0.522   3.127  1.00  0.00     0.015 C 
BRANCH  74  76
ATOM     76  C   UNL     1       1.897   2.641   4.069  1.00  0.00     0.128 C 
BRANCH  76  77
ATOM     77  O   UNL     1       3.195   2.033   4.172  1.00  0.00    -0.381 OA
ATOM     78  C   UNL     1       3.921   2.025   2.950  1.00  0.00     0.195 C 
ENDBRANCH  76  77
BRANCH  76  79
ATOM     79  C   UNL     1       1.963   4.188   4.000  1.00  0.00     0.068 C 
BRANCH  79  80
ATOM     80  C   UNL     1       1.621   4.966   5.247  1.00  0.00    -0.045 A 
ATOM     81  C   UNL     1       0.368   4.832   5.861  1.00  0.00     0.004 A 
ATOM     82  C   UNL     1       2.549   5.862   5.799  1.00  0.00     0.004 A 
ATOM     83  C   UNL     1       0.055   5.567   7.007  1.00  0.00     0.000 A 
ATOM     84  C   UNL     1       2.234   6.596   6.944  1.00  0.00     0.000 A 
ATOM     85  C   UNL     1       0.988   6.447   7.549  1.00  0.00     0.000 A 
ENDBRANCH  79  80
ENDBRANCH  76  79
ENDBRANCH  74  76
ENDBRANCH  72  74
ENDBRANCH  70  71
ENDBRANCH   1  69
TORSDOF 17
ENDMDL
MODEL 38
REMARK VINA RESULT:    -6.202     12.510     15.928
REMARK INTER + INTRA:         -25.329
REMARK INTER:                 -17.928
REMARK INTRA:                  -7.402
REMARK UNBOUND:                -6.799
REMARK SMILES C=C1C(=O)N[C@H](C)C(=O)N[C@@H](CC(C)C)C(=O)N[C@@H](C(=O)O)[C@H](C)C(=O)N[C@@H](CCCN=C(N)N)C(=O)N[C@@H](/C=C/C(C)=C/[C@H](C)[C@H](Cc2ccccc2)OC)[C@H](C)C(=O)N[C@@H](C(=O)O)CCC(=O)N1C
REMARK SMILES IDX 39 1 38 2 37 3 36 4 28 6 27 7 25 8 26 9 23 11 24 12 19 13
REMARK SMILES IDX 18 14 16 15 17 16 11 18 10 19 8 20 9 21 12 24 13 25 14 26
REMARK SMILES IDX 15 27 20 28 21 29 22 30 29 32 30 33 31 34 32 35 33 36 34 37
REMARK SMILES IDX 35 38 57 43 58 44 59 45 60 46 61 47 62 49 66 50 67 51 68 52
REMARK SMILES IDX 69 53 70 54 71 55 2 56 1 57 3 58 4 59 5 60 6 62 7 63 63 65
REMARK SMILES IDX 64 66 65 67 40 69 41 70 42 71 44 72 43 73 45 74 46 75 47 76
REMARK SMILES IDX 55 77 56 78 48 79 49 80 50 81 54 82 51 83 53 84 52 85
REMARK H PARENT 38 5 27 10 18 17 10 22 22 31 34 39 34 40 35 41 35 42 61 48
REMARK H PARENT 5 61 65 68
REMARK Flexibility Score:  369.900
ROOT
ATOM      1  C   UNL     1      -7.446   4.562   2.719  1.00  0.00     0.117 C 
ENDROOT
BRANCH   1   2
ATOM      2  N   UNL     1      -6.156   3.881   2.830  1.00  0.00    -0.347 N 
ATOM      3  O   UNL     1      -6.584   2.159   1.374  1.00  0.00    -0.273 OA
ATOM      4  C   UNL     1      -5.795   2.781   2.076  1.00  0.00     0.243 C 
ATOM      5  H   UNL     1      -5.454   4.249   3.454  1.00  0.00     0.164 HD
BRANCH   4   6
ATOM      6  C   UNL     1      -4.341   2.304   2.326  1.00  0.00     0.171 C 
BRANCH   6   7
ATOM      7  N   UNL     1      -3.967   2.510   3.734  1.00  0.00    -0.344 N 
ATOM      8  C   UNL     1      -3.029   3.459   4.080  1.00  0.00     0.226 C 
ATOM      9  O   UNL     1      -2.453   4.152   3.250  1.00  0.00    -0.275 OA
ATOM     10  H   UNL     1      -4.372   1.911   4.442  1.00  0.00     0.164 HD
BRANCH   8  11
ATOM     11  C   UNL     1      -2.793   3.589   5.575  1.00  0.00     0.109 C 
ATOM     12  C   UNL     1      -4.036   3.144   6.344  1.00  0.00     0.021 C 
BRANCH  11  13
ATOM     13  C   UNL     1      -1.493   2.855   5.962  1.00  0.00     0.204 C 
BRANCH  13  14
ATOM     14  N   UNL     1      -0.332   3.364   5.227  1.00  0.00    -0.340 N 
ATOM     15  C   UNL     1       0.908   2.764   5.278  1.00  0.00     0.243 C 
ATOM     16  O   UNL     1       1.112   1.722   5.898  1.00  0.00    -0.273 OA
ATOM     17  H   UNL     1      -0.394   4.301   4.820  1.00  0.00     0.164 HD
BRANCH  15  18
ATOM     18  C   UNL     1       2.024   3.592   4.594  1.00  0.00     0.171 C 
BRANCH  18  19
ATOM     19  N   UNL     1       2.871   4.117   5.663  1.00  0.00    -0.343 N 
ATOM     20  C   UNL     1       2.725   5.405   6.142  1.00  0.00     0.242 CG0
ATOM     21  O   UNL     1       1.970   6.210   5.603  1.00  0.00    -0.273 OA
ATOM     22  H   UNL     1       3.590   3.526   6.064  1.00  0.00     0.164 HD
ATOM     23  G   UNL     1       3.654   5.753   7.324  1.00  0.00     0.000 G0
ENDBRANCH  18  19
BRANCH  18  24
ATOM     24  C   UNL     1       2.825   2.719   3.620  1.00  0.00     0.038 C 
BRANCH  24  25
ATOM     25  C   UNL     1       2.351   2.789   2.153  1.00  0.00    -0.015 C 
ATOM     26  C   UNL     1       1.411   1.641   1.786  1.00  0.00     0.007 C 
ATOM     27  C   UNL     1       3.565   2.781   1.219  1.00  0.00     0.007 C 
ENDBRANCH  24  25
ENDBRANCH  18  24
ENDBRANCH  15  18
ENDBRANCH  13  14
BRANCH  13  28
ATOM     28  C   UNL     1      -1.166   2.956   7.455  1.00  0.00     0.327 C 
ATOM     29  O   UNL     1      -1.148   2.033   8.255  1.00  0.00    -0.250 OA
BRANCH  28  30
ATOM     30  O   UNL     1      -0.997   4.226   7.875  1.00  0.00    -0.480 OA
ATOM     31  H   UNL     1      -0.388   4.149   8.638  1.00  0.00     0.296 HD
ENDBRANCH  28  30
ENDBRANCH  13  28
ENDBRANCH  11  13
ENDBRANCH   8  11
ENDBRANCH   6   7
BRANCH   6  32
ATOM     32  C   UNL     1      -4.223   0.826   1.938  1.00  0.00     0.037 C 
BRANCH  32  33
ATOM     33  C   UNL     1      -2.930   0.532   1.165  1.00  0.00     0.026 C 
BRANCH  33  34
ATOM     34  C   UNL     1      -2.724   1.482  -0.015  1.00  0.00     0.146 C 
BRANCH  34  35
ATOM     35  N   UNL     1      -1.740   2.489   0.358  1.00  0.00    -0.254 NA
ATOM     36  C   UNL     1      -1.981   3.716   0.079  1.00  0.00     0.185 C 
ATOM     37  N   UNL     1      -1.083   4.653   0.423  1.00  0.00    -0.370 N 
ATOM     38  N   UNL     1      -3.050   4.247  -0.539  1.00  0.00    -0.370 N 
ATOM     39  H   UNL     1      -0.253   4.331   0.903  1.00  0.00     0.159 HD
ATOM     40  H   UNL     1      -1.273   5.640   0.397  1.00  0.00     0.159 HD
ATOM     41  H   UNL     1      -3.059   5.212  -0.826  1.00  0.00     0.159 HD
ATOM     42  H   UNL     1      -3.798   3.657  -0.868  1.00  0.00     0.159 HD
ENDBRANCH  34  35
ENDBRANCH  33  34
ENDBRANCH  32  33
ENDBRANCH   6  32
ENDBRANCH   4   6
ENDBRANCH   1   2
BRANCH   1  43
ATOM     43  C   UNL     1      -7.330   5.667   1.630  1.00  0.00     0.102 C 
ATOM     44  C   UNL     1      -5.919   6.267   1.514  1.00  0.00     0.020 C 
BRANCH  43  45
ATOM     45  C   UNL     1      -8.439   6.712   1.786  1.00  0.00     0.225 C 
ATOM     46  O   UNL     1      -8.266   7.796   2.338  1.00  0.00    -0.275 OA
ATOM     47  N   UNL     1      -9.684   6.325   1.349  1.00  0.00    -0.342 N 
ATOM     48  H   UNL     1      -9.777   5.504   0.767  1.00  0.00     0.164 HD
BRANCH  47  49
ATOM     49  C   UNL     1     -10.833   7.235   1.403  1.00  0.00     0.192 C 
BRANCH  49  50
ATOM     50  C   UNL     1     -12.042   6.503   1.992  1.00  0.00     0.047 C 
BRANCH  50  51
ATOM     51  C   UNL     1     -11.654   5.581   3.157  1.00  0.00     0.103 C 
BRANCH  51  52
ATOM     52  C   UNL     1     -11.738   4.105   2.773  1.00  0.00     0.226 C 
ATOM     53  O   UNL     1     -10.714   3.499   2.454  1.00  0.00    -0.275 OA
BRANCH  52  54
ATOM     54  N   UNL     1     -13.003   3.500   2.885  1.00  0.00    -0.311 N 
ATOM     55  C   UNL     1     -13.472   2.536   1.880  1.00  0.00     0.153 C 
BRANCH  54  56
ATOM     56  C   UNL     1     -13.860   3.787   3.960  1.00  0.00     0.102 C 
ATOM     57  C   UNL     1     -13.563   3.590   5.255  1.00  0.00     0.043 C 
BRANCH  56  58
ATOM     58  C   UNL     1     -15.218   4.408   3.725  1.00  0.00     0.268 C 
ATOM     59  O   UNL     1     -15.393   5.383   3.006  1.00  0.00    -0.268 OA
ATOM     60  N   UNL     1     -16.238   3.727   4.345  1.00  0.00    -0.339 N 
ATOM     61  H   UNL     1     -16.008   2.934   4.932  1.00  0.00     0.164 HD
BRANCH  60  62
ATOM     62  C   UNL     1     -17.639   4.119   4.198  1.00  0.00     0.168 CG0
ATOM     63  C   UNL     1     -18.044   5.114   5.278  1.00  0.00     0.041 C 
ATOM     64  G   UNL     1     -18.535   2.865   4.247  1.00  0.00     0.000 G0
ENDBRANCH  60  62
ENDBRANCH  56  58
ENDBRANCH  54  56
ENDBRANCH  52  54
ENDBRANCH  51  52
ENDBRANCH  50  51
ENDBRANCH  49  50
BRANCH  49  65
ATOM     65  C   UNL     1     -11.193   7.775   0.011  1.00  0.00     0.326 C 
ATOM     66  O   UNL     1     -11.207   8.954  -0.312  1.00  0.00    -0.250 OA
BRANCH  65  67
ATOM     67  O   UNL     1     -11.574   6.832  -0.879  1.00  0.00    -0.480 OA
ATOM     68  H   UNL     1     -10.763   6.294  -1.006  1.00  0.00     0.296 HD
ENDBRANCH  65  67
ENDBRANCH  49  65
ENDBRANCH  47  49
ENDBRANCH  43  45
ENDBRANCH   1  43
BRANCH   1  69
ATOM     69  C   UNL     1      -7.837   4.962   4.130  1.00  0.00    -0.001 C 
ATOM     70  C   UNL     1      -8.290   4.160   5.110  1.00  0.00     0.001 C 
BRANCH  70  71
ATOM     71  C   UNL     1      -8.644   4.554   6.476  1.00  0.00    -0.055 C 
ATOM     72  C   UNL     1      -9.951   4.740   6.756  1.00  0.00    -0.018 C 
ATOM     73  C   UNL     1      -7.526   4.717   7.472  1.00  0.00     0.044 C 
BRANCH  72  74
ATOM     74  C   UNL     1     -10.607   5.142   8.069  1.00  0.00     0.038 C 
ATOM     75  C   UNL     1     -11.525   3.987   8.490  1.00  0.00     0.015 C 
BRANCH  74  76
ATOM     76  C   UNL     1     -11.326   6.509   7.872  1.00  0.00     0.128 C 
BRANCH  76  77
ATOM     77  O   UNL     1     -10.447   7.584   8.244  1.00  0.00    -0.381 OA
ATOM     78  C   UNL     1     -10.845   8.263   9.428  1.00  0.00     0.195 C 
ENDBRANCH  76  77
BRANCH  76  79
ATOM     79  C   UNL     1     -11.942   6.699   6.463  1.00  0.00     0.068 C 
BRANCH  79  80
ATOM     80  C   UNL     1     -13.372   7.174   6.374  1.00  0.00    -0.045 A 
ATOM     81  C   UNL     1     -14.248   7.033   7.459  1.00  0.00     0.004 A 
ATOM     82  C   UNL     1     -13.856   7.744   5.187  1.00  0.00     0.004 A 
ATOM     83  C   UNL     1     -15.573   7.463   7.364  1.00  0.00     0.000 A 
ATOM     84  C   UNL     1     -15.181   8.172   5.093  1.00  0.00     0.000 A 
ATOM     85  C   UNL     1     -16.039   8.033   6.181  1.00  0.00     0.000 A 
ENDBRANCH  79  80
ENDBRANCH  76  79
ENDBRANCH  74  76
ENDBRANCH  72  74
ENDBRANCH  70  71
ENDBRANCH   1  69
TORSDOF 17
ENDMDL
MODEL 39
REMARK VINA RESULT:    -6.201     12.739     17.091
REMARK INTER + INTRA:         -25.324
REMARK INTER:                 -17.609
REMARK INTRA:                  -7.714
REMARK UNBOUND:                -6.799
REMARK SMILES C=C1C(=O)N[C@H](C)C(=O)N[C@@H](CC(C)C)C(=O)N[C@@H](C(=O)O)[C@H](C)C(=O)N[C@@H](CCCN=C(N)N)C(=O)N[C@@H](/C=C/C(C)=C/[C@H](C)[C@H](Cc2ccccc2)OC)[C@H](C)C(=O)N[C@@H](C(=O)O)CCC(=O)N1C
REMARK SMILES IDX 39 1 38 2 37 3 36 4 28 6 27 7 25 8 26 9 23 11 24 12 19 13
REMARK SMILES IDX 18 14 16 15 17 16 11 18 10 19 8 20 9 21 12 24 13 25 14 26
REMARK SMILES IDX 15 27 20 28 21 29 22 30 29 32 30 33 31 34 32 35 33 36 34 37
REMARK SMILES IDX 35 38 57 43 58 44 59 45 60 46 61 47 62 49 66 50 67 51 68 52
REMARK SMILES IDX 69 53 70 54 71 55 2 56 1 57 3 58 4 59 5 60 6 62 7 63 63 65
REMARK SMILES IDX 64 66 65 67 40 69 41 70 42 71 44 72 43 73 45 74 46 75 47 76
REMARK SMILES IDX 55 77 56 78 48 79 49 80 50 81 54 82 51 83 53 84 52 85
REMARK H PARENT 38 5 27 10 18 17 10 22 22 31 34 39 34 40 35 41 35 42 61 48
REMARK H PARENT 5 61 65 68
REMARK Flexibility Score:  369.900
ROOT
ATOM      1  C   UNL     1      -2.128   4.265  -4.360  1.00  0.00     0.117 C 
ENDROOT
BRANCH   1   2
ATOM      2  N   UNL     1      -1.782   4.282  -2.938  1.00  0.00    -0.347 N 
ATOM      3  O   UNL     1      -3.718   3.345  -2.135  1.00  0.00    -0.273 OA
ATOM      4  C   UNL     1      -2.571   3.734  -1.944  1.00  0.00     0.243 C 
ATOM      5  H   UNL     1      -0.896   4.667  -2.649  1.00  0.00     0.164 HD
BRANCH   4   6
ATOM      6  C   UNL     1      -1.935   3.808  -0.533  1.00  0.00     0.171 C 
BRANCH   6   7
ATOM      7  N   UNL     1      -2.960   3.606   0.504  1.00  0.00    -0.344 N 
ATOM      8  C   UNL     1      -3.049   4.464   1.579  1.00  0.00     0.226 C 
ATOM      9  O   UNL     1      -2.283   5.406   1.738  1.00  0.00    -0.275 OA
ATOM     10  H   UNL     1      -3.568   2.799   0.443  1.00  0.00     0.164 HD
BRANCH   8  11
ATOM     11  C   UNL     1      -4.191   4.155   2.532  1.00  0.00     0.109 C 
ATOM     12  C   UNL     1      -5.465   3.848   1.744  1.00  0.00     0.021 C 
BRANCH  11  13
ATOM     13  C   UNL     1      -3.761   3.055   3.523  1.00  0.00     0.204 C 
BRANCH  13  14
ATOM     14  N   UNL     1      -2.361   3.200   3.934  1.00  0.00    -0.340 N 
ATOM     15  C   UNL     1      -1.418   2.213   3.740  1.00  0.00     0.243 C 
ATOM     16  O   UNL     1      -1.673   1.163   3.153  1.00  0.00    -0.273 OA
ATOM     17  H   UNL     1      -2.121   3.976   4.556  1.00  0.00     0.164 HD
BRANCH  15  18
ATOM     18  C   UNL     1      -0.067   2.503   4.438  1.00  0.00     0.171 C 
BRANCH  18  19
ATOM     19  N   UNL     1      -0.170   1.961   5.792  1.00  0.00    -0.343 N 
ATOM     20  C   UNL     1      -0.365   2.775   6.891  1.00  0.00     0.242 CG0
ATOM     21  O   UNL     1      -0.327   4.000   6.798  1.00  0.00    -0.273 OA
ATOM     22  H   UNL     1      -0.091   0.960   5.934  1.00  0.00     0.164 HD
ATOM     23  G   UNL     1      -0.527   2.018   8.224  1.00  0.00     0.000 G0
ENDBRANCH  18  19
BRANCH  18  24
ATOM     24  C   UNL     1       1.091   1.863   3.663  1.00  0.00     0.038 C 
BRANCH  24  25
ATOM     25  C   UNL     1       2.497   2.262   4.160  1.00  0.00    -0.015 C 
ATOM     26  C   UNL     1       2.563   3.717   4.625  1.00  0.00     0.007 C 
ATOM     27  C   UNL     1       3.521   2.031   3.045  1.00  0.00     0.007 C 
ENDBRANCH  24  25
ENDBRANCH  18  24
ENDBRANCH  15  18
ENDBRANCH  13  14
BRANCH  13  28
ATOM     28  C   UNL     1      -4.608   3.027   4.798  1.00  0.00     0.327 C 
ATOM     29  O   UNL     1      -4.940   2.031   5.423  1.00  0.00    -0.250 OA
BRANCH  28  30
ATOM     30  O   UNL     1      -5.084   4.240   5.144  1.00  0.00    -0.480 OA
ATOM     31  H   UNL     1      -4.286   4.807   5.193  1.00  0.00     0.296 HD
ENDBRANCH  28  30
ENDBRANCH  13  28
ENDBRANCH  11  13
ENDBRANCH   8  11
ENDBRANCH   6   7
BRANCH   6  32
ATOM     32  C   UNL     1      -0.830   2.751  -0.423  1.00  0.00     0.037 C 
BRANCH  32  33
ATOM     33  C   UNL     1       0.304   3.194   0.512  1.00  0.00     0.026 C 
BRANCH  33  34
ATOM     34  C   UNL     1       1.685   2.809  -0.020  1.00  0.00     0.146 C 
BRANCH  34  35
ATOM     35  N   UNL     1       2.523   3.999  -0.057  1.00  0.00    -0.254 NA
ATOM     36  C   UNL     1       3.651   3.938  -0.661  1.00  0.00     0.185 C 
ATOM     37  N   UNL     1       4.429   5.031  -0.705  1.00  0.00    -0.370 N 
ATOM     38  N   UNL     1       4.214   2.895  -1.296  1.00  0.00    -0.370 N 
ATOM     39  H   UNL     1       4.069   5.864  -0.257  1.00  0.00     0.159 HD
ATOM     40  H   UNL     1       5.236   5.116  -1.300  1.00  0.00     0.159 HD
ATOM     41  H   UNL     1       5.169   2.932  -1.613  1.00  0.00     0.159 HD
ATOM     42  H   UNL     1       3.747   2.002  -1.329  1.00  0.00     0.159 HD
ENDBRANCH  34  35
ENDBRANCH  33  34
ENDBRANCH  32  33
ENDBRANCH   6  32
ENDBRANCH   4   6
ENDBRANCH   1   2
BRANCH   1  43
ATOM     43  C   UNL     1      -0.886   3.787  -5.166  1.00  0.00     0.102 C 
ATOM     44  C   UNL     1      -1.068   2.401  -5.807  1.00  0.00     0.020 C 
BRANCH  43  45
ATOM     45  C   UNL     1       0.395   3.925  -4.336  1.00  0.00     0.225 C 
ATOM     46  O   UNL     1       0.688   3.158  -3.423  1.00  0.00    -0.275 OA
ATOM     47  N   UNL     1       1.165   5.030  -4.615  1.00  0.00    -0.342 N 
ATOM     48  H   UNL     1       0.994   5.560  -5.458  1.00  0.00     0.164 HD
BRANCH  47  49
ATOM     49  C   UNL     1       2.436   5.272  -3.924  1.00  0.00     0.192 C 
BRANCH  49  50
ATOM     50  C   UNL     1       2.788   6.760  -4.001  1.00  0.00     0.047 C 
BRANCH  50  51
ATOM     51  C   UNL     1       2.614   7.326  -5.417  1.00  0.00     0.103 C 
BRANCH  51  52
ATOM     52  C   UNL     1       3.943   7.778  -6.021  1.00  0.00     0.226 C 
ATOM     53  O   UNL     1       4.505   8.781  -5.577  1.00  0.00    -0.275 OA
BRANCH  52  54
ATOM     54  N   UNL     1       4.489   6.953  -7.022  1.00  0.00    -0.311 N 
ATOM     55  C   UNL     1       5.717   6.183  -6.780  1.00  0.00     0.153 C 
BRANCH  54  56
ATOM     56  C   UNL     1       3.881   6.831  -8.282  1.00  0.00     0.102 C 
ATOM     57  C   UNL     1       3.063   5.830  -8.647  1.00  0.00     0.043 C 
BRANCH  56  58
ATOM     58  C   UNL     1       4.080   7.887  -9.344  1.00  0.00     0.268 C 
ATOM     59  O   UNL     1       4.092   7.637 -10.542  1.00  0.00    -0.268 OA
ATOM     60  N   UNL     1       4.179   9.158  -8.831  1.00  0.00    -0.339 N 
ATOM     61  H   UNL     1       4.170   9.279  -7.825  1.00  0.00     0.164 HD
BRANCH  60  62
ATOM     62  C   UNL     1       4.312  10.336  -9.687  1.00  0.00     0.168 CG0
ATOM     63  C   UNL     1       2.969  11.031  -9.874  1.00  0.00     0.041 C 
ATOM     64  G   UNL     1       4.906   9.920 -11.049  1.00  0.00     0.000 G0
ENDBRANCH  60  62
ENDBRANCH  56  58
ENDBRANCH  54  56
ENDBRANCH  52  54
ENDBRANCH  51  52
ENDBRANCH  50  51
ENDBRANCH  49  50
BRANCH  49  65
ATOM     65  C   UNL     1       3.579   4.446  -4.535  1.00  0.00     0.326 C 
ATOM     66  O   UNL     1       3.496   3.750  -5.537  1.00  0.00    -0.250 OA
BRANCH  65  67
ATOM     67  O   UNL     1       4.736   4.483  -3.838  1.00  0.00    -0.480 OA
ATOM     68  H   UNL     1       4.956   5.439  -3.806  1.00  0.00     0.296 HD
ENDBRANCH  65  67
ENDBRANCH  49  65
ENDBRANCH  47  49
ENDBRANCH  43  45
ENDBRANCH   1  43
BRANCH   1  69
ATOM     69  C   UNL     1      -2.722   5.627  -4.668  1.00  0.00    -0.001 C 
ATOM     70  C   UNL     1      -2.059   6.773  -4.908  1.00  0.00     0.001 C 
BRANCH  70  71
ATOM     71  C   UNL     1      -2.644   8.077  -5.225  1.00  0.00    -0.055 C 
ATOM     72  C   UNL     1      -2.853   8.372  -6.525  1.00  0.00    -0.018 C 
ATOM     73  C   UNL     1      -2.978   8.995  -4.078  1.00  0.00     0.044 C 
BRANCH  72  74
ATOM     74  C   UNL     1      -3.440   9.632  -7.145  1.00  0.00     0.038 C 
ATOM     75  C   UNL     1      -4.785   9.244  -7.771  1.00  0.00     0.015 C 
BRANCH  74  76
ATOM     76  C   UNL     1      -2.404  10.230  -8.142  1.00  0.00     0.128 C 
BRANCH  76  77
ATOM     77  O   UNL     1      -2.161  11.611  -7.827  1.00  0.00    -0.381 OA
ATOM     78  C   UNL     1      -1.335  12.276  -8.774  1.00  0.00     0.195 C 
ENDBRANCH  76  77
BRANCH  76  79
ATOM     79  C   UNL     1      -1.098   9.404  -8.263  1.00  0.00     0.068 C 
BRANCH  79  80
ATOM     80  C   UNL     1      -0.906   8.564  -9.503  1.00  0.00    -0.045 A 
ATOM     81  C   UNL     1      -2.004   8.119 -10.251  1.00  0.00     0.004 A 
ATOM     82  C   UNL     1       0.383   8.191  -9.911  1.00  0.00     0.004 A 
ATOM     83  C   UNL     1      -1.818   7.330 -11.388  1.00  0.00     0.000 A 
ATOM     84  C   UNL     1       0.568   7.402 -11.049  1.00  0.00     0.000 A 
ATOM     85  C   UNL     1      -0.532   6.973 -11.787  1.00  0.00     0.000 A 
ENDBRANCH  79  80
ENDBRANCH  76  79
ENDBRANCH  74  76
ENDBRANCH  72  74
ENDBRANCH  70  71
ENDBRANCH   1  69
TORSDOF 17
ENDMDL
MODEL 40
REMARK VINA RESULT:    -6.194     12.316     18.781
REMARK INTER + INTRA:         -25.304
REMARK INTER:                 -18.814
REMARK INTRA:                  -6.490
REMARK UNBOUND:                -6.799
REMARK SMILES C=C1C(=O)N[C@H](C)C(=O)N[C@@H](CC(C)C)C(=O)N[C@@H](C(=O)O)[C@H](C)C(=O)N[C@@H](CCCN=C(N)N)C(=O)N[C@@H](/C=C/C(C)=C/[C@H](C)[C@H](Cc2ccccc2)OC)[C@H](C)C(=O)N[C@@H](C(=O)O)CCC(=O)N1C
REMARK SMILES IDX 39 1 38 2 37 3 36 4 28 6 27 7 25 8 26 9 23 11 24 12 19 13
REMARK SMILES IDX 18 14 16 15 17 16 11 18 10 19 8 20 9 21 12 24 13 25 14 26
REMARK SMILES IDX 15 27 20 28 21 29 22 30 29 32 30 33 31 34 32 35 33 36 34 37
REMARK SMILES IDX 35 38 57 43 58 44 59 45 60 46 61 47 62 49 66 50 67 51 68 52
REMARK SMILES IDX 69 53 70 54 71 55 2 56 1 57 3 58 4 59 5 60 6 62 7 63 63 65
REMARK SMILES IDX 64 66 65 67 40 69 41 70 42 71 44 72 43 73 45 74 46 75 47 76
REMARK SMILES IDX 55 77 56 78 48 79 49 80 50 81 54 82 51 83 53 84 52 85
REMARK H PARENT 38 5 27 10 18 17 10 22 22 31 34 39 34 40 35 41 35 42 61 48
REMARK H PARENT 5 61 65 68
REMARK Flexibility Score:  369.900
ROOT
ATOM      1  C   UNL     1      -3.169   3.157   1.843  1.00  0.00     0.117 C 
ENDROOT
BRANCH   1   2
ATOM      2  N   UNL     1      -4.510   3.576   2.255  1.00  0.00    -0.347 N 
ATOM      3  O   UNL     1      -5.104   4.668   0.325  1.00  0.00    -0.273 OA
ATOM      4  C   UNL     1      -5.407   4.221   1.426  1.00  0.00     0.243 C 
ATOM      5  H   UNL     1      -4.836   3.345   3.181  1.00  0.00     0.164 HD
BRANCH   4   6
ATOM      6  C   UNL     1      -6.789   4.475   2.082  1.00  0.00     0.171 C 
BRANCH   6   7
ATOM      7  N   UNL     1      -7.467   5.606   1.429  1.00  0.00    -0.344 N 
ATOM      8  C   UNL     1      -8.019   6.622   2.180  1.00  0.00     0.226 C 
ATOM      9  O   UNL     1      -7.994   6.626   3.404  1.00  0.00    -0.275 OA
ATOM     10  H   UNL     1      -7.567   5.603   0.422  1.00  0.00     0.164 HD
BRANCH   8  11
ATOM     11  C   UNL     1      -8.635   7.742   1.359  1.00  0.00     0.109 C 
ATOM     12  C   UNL     1      -7.702   8.127   0.211  1.00  0.00     0.021 C 
BRANCH  11  13
ATOM     13  C   UNL     1     -10.063   7.350   0.930  1.00  0.00     0.204 C 
BRANCH  13  14
ATOM     14  N   UNL     1     -10.674   6.393   1.858  1.00  0.00    -0.340 N 
ATOM     15  C   UNL     1     -10.932   5.082   1.519  1.00  0.00     0.243 C 
ATOM     16  O   UNL     1     -10.610   4.606   0.432  1.00  0.00    -0.273 OA
ATOM     17  H   UNL     1     -11.100   6.759   2.714  1.00  0.00     0.164 HD
BRANCH  15  18
ATOM     18  C   UNL     1     -11.766   4.322   2.579  1.00  0.00     0.171 C 
BRANCH  18  19
ATOM     19  N   UNL     1     -13.170   4.502   2.214  1.00  0.00    -0.343 N 
ATOM     20  C   UNL     1     -13.925   5.546   2.712  1.00  0.00     0.242 CG0
ATOM     21  O   UNL     1     -13.492   6.294   3.586  1.00  0.00    -0.273 OA
ATOM     22  H   UNL     1     -13.608   3.841   1.582  1.00  0.00     0.164 HD
ATOM     23  G   UNL     1     -15.361   5.618   2.152  1.00  0.00     0.000 G0
ENDBRANCH  18  19
BRANCH  18  24
ATOM     24  C   UNL     1     -11.379   2.839   2.611  1.00  0.00     0.038 C 
BRANCH  24  25
ATOM     25  C   UNL     1     -12.346   1.904   1.853  1.00  0.00    -0.015 C 
ATOM     26  C   UNL     1     -13.083   0.943   2.786  1.00  0.00     0.007 C 
ATOM     27  C   UNL     1     -11.571   1.107   0.800  1.00  0.00     0.007 C 
ENDBRANCH  24  25
ENDBRANCH  18  24
ENDBRANCH  15  18
ENDBRANCH  13  14
BRANCH  13  28
ATOM     28  C   UNL     1     -11.011   8.548   0.824  1.00  0.00     0.327 C 
ATOM     29  O   UNL     1     -11.197   9.236  -0.168  1.00  0.00    -0.250 OA
BRANCH  28  30
ATOM     30  O   UNL     1     -11.577   8.881   2.001  1.00  0.00    -0.480 OA
ATOM     31  H   UNL     1     -12.424   9.306   1.750  1.00  0.00     0.296 HD
ENDBRANCH  28  30
ENDBRANCH  13  28
ENDBRANCH  11  13
ENDBRANCH   8  11
ENDBRANCH   6   7
BRANCH   6  32
ATOM     32  C   UNL     1      -7.634   3.200   1.985  1.00  0.00     0.037 C 
BRANCH  32  33
ATOM     33  C   UNL     1      -7.641   2.408   3.301  1.00  0.00     0.026 C 
BRANCH  33  34
ATOM     34  C   UNL     1      -8.042   3.269   4.499  1.00  0.00     0.146 C 
BRANCH  34  35
ATOM     35  N   UNL     1      -8.908   2.486   5.371  1.00  0.00    -0.254 NA
ATOM     36  C   UNL     1      -9.542   3.087   6.307  1.00  0.00     0.185 C 
ATOM     37  N   UNL     1     -10.346   2.376   7.113  1.00  0.00    -0.370 N 
ATOM     38  N   UNL     1      -9.532   4.392   6.632  1.00  0.00    -0.370 N 
ATOM     39  H   UNL     1     -10.416   1.384   6.925  1.00  0.00     0.159 HD
ATOM     40  H   UNL     1     -11.003   2.792   7.750  1.00  0.00     0.159 HD
ATOM     41  H   UNL     1      -9.966   4.721   7.479  1.00  0.00     0.159 HD
ATOM     42  H   UNL     1      -8.958   5.043   6.120  1.00  0.00     0.159 HD
ENDBRANCH  34  35
ENDBRANCH  33  34
ENDBRANCH  32  33
ENDBRANCH   6  32
ENDBRANCH   4   6
ENDBRANCH   1   2
BRANCH   1  43
ATOM     43  C   UNL     1      -3.290   1.832   1.037  1.00  0.00     0.102 C 
ATOM     44  C   UNL     1      -3.825   0.655   1.871  1.00  0.00     0.020 C 
BRANCH  43  45
ATOM     45  C   UNL     1      -1.990   1.523   0.288  1.00  0.00     0.225 C 
ATOM     46  O   UNL     1      -1.426   0.434   0.345  1.00  0.00    -0.275 OA
ATOM     47  N   UNL     1      -1.431   2.582  -0.390  1.00  0.00    -0.342 N 
ATOM     48  H   UNL     1      -1.977   3.416  -0.552  1.00  0.00     0.164 HD
BRANCH  47  49
ATOM     49  C   UNL     1      -0.206   2.425  -1.180  1.00  0.00     0.192 C 
BRANCH  49  50
ATOM     50  C   UNL     1       0.944   3.173  -0.501  1.00  0.00     0.047 C 
BRANCH  50  51
ATOM     51  C   UNL     1       2.209   2.312  -0.381  1.00  0.00     0.103 C 
BRANCH  51  52
ATOM     52  C   UNL     1       3.469   3.162  -0.232  1.00  0.00     0.226 C 
ATOM     53  O   UNL     1       3.683   3.756   0.826  1.00  0.00    -0.275 OA
BRANCH  52  54
ATOM     54  N   UNL     1       4.365   3.150  -1.318  1.00  0.00    -0.311 N 
ATOM     55  C   UNL     1       4.079   2.363  -2.525  1.00  0.00     0.153 C 
BRANCH  54  56
ATOM     56  C   UNL     1       5.558   3.891  -1.291  1.00  0.00     0.102 C 
ATOM     57  C   UNL     1       5.708   5.085  -0.694  1.00  0.00     0.043 C 
BRANCH  56  58
ATOM     58  C   UNL     1       6.820   3.350  -1.921  1.00  0.00     0.268 C 
ATOM     59  O   UNL     1       7.447   2.406  -1.459  1.00  0.00    -0.268 OA
ATOM     60  N   UNL     1       7.152   3.983  -3.095  1.00  0.00    -0.339 N 
ATOM     61  H   UNL     1       6.586   4.764  -3.404  1.00  0.00     0.164 HD
BRANCH  60  62
ATOM     62  C   UNL     1       8.302   3.576  -3.901  1.00  0.00     0.168 CG0
ATOM     63  C   UNL     1       7.943   3.528  -5.381  1.00  0.00     0.041 C 
ATOM     64  G   UNL     1       8.811   2.202  -3.419  1.00  0.00     0.000 G0
ENDBRANCH  60  62
ENDBRANCH  56  58
ENDBRANCH  54  56
ENDBRANCH  52  54
ENDBRANCH  51  52
ENDBRANCH  50  51
ENDBRANCH  49  50
BRANCH  49  65
ATOM     65  C   UNL     1      -0.383   2.954  -2.611  1.00  0.00     0.326 C 
ATOM     66  O   UNL     1      -1.199   2.545  -3.425  1.00  0.00    -0.250 OA
BRANCH  65  67
ATOM     67  O   UNL     1       0.497   3.915  -2.970  1.00  0.00    -0.480 OA
ATOM     68  H   UNL     1       1.360   3.567  -2.657  1.00  0.00     0.296 HD
ENDBRANCH  65  67
ENDBRANCH  49  65
ENDBRANCH  47  49
ENDBRANCH  43  45
ENDBRANCH   1  43
BRANCH   1  69
ATOM     69  C   UNL     1      -2.314   3.178   3.096  1.00  0.00    -0.001 C 
ATOM     70  C   UNL     1      -2.278   4.130   4.045  1.00  0.00     0.001 C 
BRANCH  70  71
ATOM     71  C   UNL     1      -1.464   4.129   5.262  1.00  0.00    -0.055 C 
ATOM     72  C   UNL     1      -0.260   4.737   5.213  1.00  0.00    -0.018 C 
ATOM     73  C   UNL     1      -2.031   3.457   6.486  1.00  0.00     0.044 C 
BRANCH  72  74
ATOM     74  C   UNL     1       0.786   4.893   6.307  1.00  0.00     0.038 C 
ATOM     75  C   UNL     1       0.426   6.156   7.100  1.00  0.00     0.015 C 
BRANCH  74  76
ATOM     76  C   UNL     1       2.198   4.914   5.652  1.00  0.00     0.128 C 
BRANCH  76  77
ATOM     77  O   UNL     1       3.092   5.722   6.437  1.00  0.00    -0.381 OA
ATOM     78  C   UNL     1       3.808   6.685   5.676  1.00  0.00     0.195 C 
ENDBRANCH  76  77
BRANCH  76  79
ATOM     79  C   UNL     1       2.771   3.507   5.348  1.00  0.00     0.068 C 
BRANCH  79  80
ATOM     80  C   UNL     1       1.829   2.462   4.801  1.00  0.00    -0.045 A 
ATOM     81  C   UNL     1       1.178   1.561   5.653  1.00  0.00     0.004 A 
ATOM     82  C   UNL     1       1.612   2.360   3.419  1.00  0.00     0.004 A 
ATOM     83  C   UNL     1       0.318   0.588   5.138  1.00  0.00     0.000 A 
ATOM     84  C   UNL     1       0.753   1.386   2.904  1.00  0.00     0.000 A 
ATOM     85  C   UNL     1       0.105   0.502   3.764  1.00  0.00     0.000 A 
ENDBRANCH  79  80
ENDBRANCH  76  79
ENDBRANCH  74  76
ENDBRANCH  72  74
ENDBRANCH  70  71
ENDBRANCH   1  69
TORSDOF 17
ENDMDL
MODEL 41
REMARK VINA RESULT:    -6.193     14.947     20.173
REMARK INTER + INTRA:         -25.301
REMARK INTER:                 -17.798
REMARK INTRA:                  -7.503
REMARK UNBOUND:                -6.799
REMARK SMILES C=C1C(=O)N[C@H](C)C(=O)N[C@@H](CC(C)C)C(=O)N[C@@H](C(=O)O)[C@H](C)C(=O)N[C@@H](CCCN=C(N)N)C(=O)N[C@@H](/C=C/C(C)=C/[C@H](C)[C@H](Cc2ccccc2)OC)[C@H](C)C(=O)N[C@@H](C(=O)O)CCC(=O)N1C
REMARK SMILES IDX 39 1 38 2 37 3 36 4 28 6 27 7 25 8 26 9 23 11 24 12 19 13
REMARK SMILES IDX 18 14 16 15 17 16 11 18 10 19 8 20 9 21 12 24 13 25 14 26
REMARK SMILES IDX 15 27 20 28 21 29 22 30 29 32 30 33 31 34 32 35 33 36 34 37
REMARK SMILES IDX 35 38 57 43 58 44 59 45 60 46 61 47 62 49 66 50 67 51 68 52
REMARK SMILES IDX 69 53 70 54 71 55 2 56 1 57 3 58 4 59 5 60 6 62 7 63 63 65
REMARK SMILES IDX 64 66 65 67 40 69 41 70 42 71 44 72 43 73 45 74 46 75 47 76
REMARK SMILES IDX 55 77 56 78 48 79 49 80 50 81 54 82 51 83 53 84 52 85
REMARK H PARENT 38 5 27 10 18 17 10 22 22 31 34 39 34 40 35 41 35 42 61 48
REMARK H PARENT 5 61 65 68
REMARK Flexibility Score:  369.900
ROOT
ATOM      1  C   UNL     1       3.034   3.781  -0.791  1.00  0.00     0.117 C 
ENDROOT
BRANCH   1   2
ATOM      2  N   UNL     1       2.458   4.285  -2.038  1.00  0.00    -0.347 N 
ATOM      3  O   UNL     1       3.825   6.111  -2.299  1.00  0.00    -0.273 OA
ATOM      4  C   UNL     1       2.962   5.361  -2.743  1.00  0.00     0.243 C 
ATOM      5  H   UNL     1       1.676   3.801  -2.452  1.00  0.00     0.164 HD
BRANCH   4   6
ATOM      6  C   UNL     1       2.220   5.635  -4.076  1.00  0.00     0.171 C 
BRANCH   6   7
ATOM      7  N   UNL     1       3.181   5.962  -5.142  1.00  0.00    -0.344 N 
ATOM      8  C   UNL     1       3.412   7.272  -5.503  1.00  0.00     0.226 C 
ATOM      9  O   UNL     1       2.825   8.213  -4.983  1.00  0.00    -0.275 OA
ATOM     10  H   UNL     1       3.636   5.207  -5.641  1.00  0.00     0.164 HD
BRANCH   8  11
ATOM     11  C   UNL     1       4.470   7.447  -6.578  1.00  0.00     0.109 C 
ATOM     12  C   UNL     1       5.638   6.494  -6.327  1.00  0.00     0.021 C 
BRANCH  11  13
ATOM     13  C   UNL     1       3.822   7.326  -7.972  1.00  0.00     0.204 C 
BRANCH  13  14
ATOM     14  N   UNL     1       4.456   8.210  -8.954  1.00  0.00    -0.340 N 
ATOM     15  C   UNL     1       3.936   9.438  -9.301  1.00  0.00     0.243 C 
ATOM     16  O   UNL     1       2.933   9.906  -8.766  1.00  0.00    -0.273 OA
ATOM     17  H   UNL     1       5.199   7.822  -9.541  1.00  0.00     0.164 HD
BRANCH  15  18
ATOM     18  C   UNL     1       4.657  10.098 -10.502  1.00  0.00     0.171 C 
BRANCH  18  19
ATOM     19  N   UNL     1       4.909  11.488 -10.127  1.00  0.00    -0.343 N 
ATOM     20  C   UNL     1       4.182  12.532 -10.667  1.00  0.00     0.242 CG0
ATOM     21  O   UNL     1       3.383  12.353 -11.583  1.00  0.00    -0.273 OA
ATOM     22  H   UNL     1       5.640  11.698  -9.457  1.00  0.00     0.164 HD
ATOM     23  G   UNL     1       4.536  13.919 -10.092  1.00  0.00     0.000 G0
ENDBRANCH  18  19
BRANCH  18  24
ATOM     24  C   UNL     1       5.961   9.358 -10.825  1.00  0.00     0.038 C 
BRANCH  24  25
ATOM     25  C   UNL     1       6.071   8.850 -12.278  1.00  0.00    -0.015 C 
ATOM     26  C   UNL     1       5.149   9.608 -13.234  1.00  0.00     0.007 C 
ATOM     27  C   UNL     1       5.747   7.355 -12.327  1.00  0.00     0.007 C 
ENDBRANCH  24  25
ENDBRANCH  18  24
ENDBRANCH  15  18
ENDBRANCH  13  14
BRANCH  13  28
ATOM     28  C   UNL     1       3.875   5.904  -8.540  1.00  0.00     0.327 C 
ATOM     29  O   UNL     1       4.611   5.509  -9.431  1.00  0.00    -0.250 OA
BRANCH  28  30
ATOM     30  O   UNL     1       2.919   5.098  -8.037  1.00  0.00    -0.480 OA
ATOM     31  H   UNL     1       2.989   4.279  -8.570  1.00  0.00     0.296 HD
ENDBRANCH  28  30
ENDBRANCH  13  28
ENDBRANCH  11  13
ENDBRANCH   8  11
ENDBRANCH   6   7
BRANCH   6  32
ATOM     32  C   UNL     1       1.386   4.405  -4.450  1.00  0.00     0.037 C 
BRANCH  32  33
ATOM     33  C   UNL     1       0.053   4.787  -5.108  1.00  0.00     0.026 C 
BRANCH  33  34
ATOM     34  C   UNL     1      -1.154   4.403  -4.250  1.00  0.00     0.146 C 
BRANCH  34  35
ATOM     35  N   UNL     1      -0.902   3.106  -3.638  1.00  0.00    -0.254 NA
ATOM     36  C   UNL     1      -1.064   2.981  -2.374  1.00  0.00     0.185 C 
ATOM     37  N   UNL     1      -0.839   1.789  -1.800  1.00  0.00    -0.370 N 
ATOM     38  N   UNL     1      -1.446   3.906  -1.476  1.00  0.00    -0.370 N 
ATOM     39  H   UNL     1      -0.557   1.036  -2.414  1.00  0.00     0.159 HD
ATOM     40  H   UNL     1      -1.108   1.566  -0.857  1.00  0.00     0.159 HD
ATOM     41  H   UNL     1      -1.402   3.722  -0.487  1.00  0.00     0.159 HD
ATOM     42  H   UNL     1      -1.634   4.854  -1.764  1.00  0.00     0.159 HD
ENDBRANCH  34  35
ENDBRANCH  33  34
ENDBRANCH  32  33
ENDBRANCH   6  32
ENDBRANCH   4   6
ENDBRANCH   1   2
BRANCH   1  43
ATOM     43  C   UNL     1       4.175   2.782  -1.140  1.00  0.00     0.102 C 
ATOM     44  C   UNL     1       5.583   3.371  -0.953  1.00  0.00     0.020 C 
BRANCH  43  45
ATOM     45  C   UNL     1       3.945   2.144  -2.514  1.00  0.00     0.225 C 
ATOM     46  O   UNL     1       2.879   1.635  -2.848  1.00  0.00    -0.275 OA
ATOM     47  N   UNL     1       5.050   2.088  -3.333  1.00  0.00    -0.342 N 
ATOM     48  H   UNL     1       5.867   2.639  -3.109  1.00  0.00     0.164 HD
BRANCH  47  49
ATOM     49  C   UNL     1       4.971   1.538  -4.689  1.00  0.00     0.192 C 
BRANCH  49  50
ATOM     50  C   UNL     1       6.055   0.473  -4.876  1.00  0.00     0.047 C 
BRANCH  50  51
ATOM     51  C   UNL     1       5.500  -0.821  -5.489  1.00  0.00     0.103 C 
BRANCH  51  52
ATOM     52  C   UNL     1       5.205  -1.878  -4.427  1.00  0.00     0.226 C 
ATOM     53  O   UNL     1       6.055  -2.139  -3.574  1.00  0.00    -0.275 OA
BRANCH  52  54
ATOM     54  N   UNL     1       3.918  -2.446  -4.449  1.00  0.00    -0.311 N 
ATOM     55  C   UNL     1       2.745  -1.646  -4.828  1.00  0.00     0.153 C 
BRANCH  54  56
ATOM     56  C   UNL     1       3.707  -3.794  -4.117  1.00  0.00     0.102 C 
ATOM     57  C   UNL     1       3.704  -4.811  -4.995  1.00  0.00     0.043 C 
BRANCH  56  58
ATOM     58  C   UNL     1       3.504  -4.216  -2.680  1.00  0.00     0.268 C 
ATOM     59  O   UNL     1       2.399  -4.342  -2.169  1.00  0.00    -0.268 OA
ATOM     60  N   UNL     1       4.680  -4.506  -2.031  1.00  0.00    -0.339 N 
ATOM     61  H   UNL     1       5.555  -4.366  -2.522  1.00  0.00     0.164 HD
BRANCH  60  62
ATOM     62  C   UNL     1       4.709  -4.993  -0.653  1.00  0.00     0.168 CG0
ATOM     63  C   UNL     1       4.751  -6.516  -0.611  1.00  0.00     0.041 C 
ATOM     64  G   UNL     1       3.479  -4.460   0.110  1.00  0.00     0.000 G0
ENDBRANCH  60  62
ENDBRANCH  56  58
ENDBRANCH  54  56
ENDBRANCH  52  54
ENDBRANCH  51  52
ENDBRANCH  50  51
ENDBRANCH  49  50
BRANCH  49  65
ATOM     65  C   UNL     1       5.142   2.631  -5.756  1.00  0.00     0.326 C 
ATOM     66  O   UNL     1       4.274   3.411  -6.119  1.00  0.00    -0.250 OA
BRANCH  65  67
ATOM     67  O   UNL     1       6.355   2.653  -6.351  1.00  0.00    -0.480 OA
ATOM     68  H   UNL     1       6.169   2.351  -7.266  1.00  0.00     0.296 HD
ENDBRANCH  65  67
ENDBRANCH  49  65
ENDBRANCH  47  49
ENDBRANCH  43  45
ENDBRANCH   1  43
BRANCH   1  69
ATOM     69  C   UNL     1       1.867   3.297   0.050  1.00  0.00    -0.001 C 
ATOM     70  C   UNL     1       1.836   2.231   0.868  1.00  0.00     0.001 C 
BRANCH  70  71
ATOM     71  C   UNL     1       0.710   1.786   1.691  1.00  0.00    -0.055 C 
ATOM     72  C   UNL     1      -0.403   2.549   1.697  1.00  0.00    -0.018 C 
ATOM     73  C   UNL     1       0.870   0.504   2.467  1.00  0.00     0.044 C 
BRANCH  72  74
ATOM     74  C   UNL     1      -1.712   2.338   2.445  1.00  0.00     0.038 C 
ATOM     75  C   UNL     1      -2.841   2.414   1.410  1.00  0.00     0.015 C 
BRANCH  74  76
ATOM     76  C   UNL     1      -1.807   3.384   3.594  1.00  0.00     0.128 C 
BRANCH  76  77
ATOM     77  O   UNL     1      -3.186   3.656   3.898  1.00  0.00    -0.381 OA
ATOM     78  C   UNL     1      -3.526   5.033   3.823  1.00  0.00     0.195 C 
ENDBRANCH  76  77
BRANCH  76  79
ATOM     79  C   UNL     1      -0.977   3.017   4.850  1.00  0.00     0.068 C 
BRANCH  79  80
ATOM     80  C   UNL     1       0.278   3.808   5.124  1.00  0.00    -0.045 A 
ATOM     81  C   UNL     1       1.538   3.312   4.764  1.00  0.00     0.004 A 
ATOM     82  C   UNL     1       0.204   5.049   5.775  1.00  0.00     0.004 A 
ATOM     83  C   UNL     1       2.696   4.044   5.034  1.00  0.00     0.000 A 
ATOM     84  C   UNL     1       1.363   5.781   6.045  1.00  0.00     0.000 A 
ATOM     85  C   UNL     1       2.608   5.279   5.673  1.00  0.00     0.000 A 
ENDBRANCH  79  80
ENDBRANCH  76  79
ENDBRANCH  74  76
ENDBRANCH  72  74
ENDBRANCH  70  71
ENDBRANCH   1  69
TORSDOF 17
ENDMDL
MODEL 42
REMARK VINA RESULT:    -6.154     13.784     18.374
REMARK INTER + INTRA:         -25.185
REMARK INTER:                 -18.149
REMARK INTRA:                  -7.036
REMARK UNBOUND:                -6.799
REMARK SMILES C=C1C(=O)N[C@H](C)C(=O)N[C@@H](CC(C)C)C(=O)N[C@@H](C(=O)O)[C@H](C)C(=O)N[C@@H](CCCN=C(N)N)C(=O)N[C@@H](/C=C/C(C)=C/[C@H](C)[C@H](Cc2ccccc2)OC)[C@H](C)C(=O)N[C@@H](C(=O)O)CCC(=O)N1C
REMARK SMILES IDX 39 1 38 2 37 3 36 4 28 6 27 7 25 8 26 9 23 11 24 12 19 13
REMARK SMILES IDX 18 14 16 15 17 16 11 18 10 19 8 20 9 21 12 24 13 25 14 26
REMARK SMILES IDX 15 27 20 28 21 29 22 30 29 32 30 33 31 34 32 35 33 36 34 37
REMARK SMILES IDX 35 38 57 43 58 44 59 45 60 46 61 47 62 49 66 50 67 51 68 52
REMARK SMILES IDX 69 53 70 54 71 55 2 56 1 57 3 58 4 59 5 60 6 62 7 63 63 65
REMARK SMILES IDX 64 66 65 67 40 69 41 70 42 71 44 72 43 73 45 74 46 75 47 76
REMARK SMILES IDX 55 77 56 78 48 79 49 80 50 81 54 82 51 83 53 84 52 85
REMARK H PARENT 38 5 27 10 18 17 10 22 22 31 34 39 34 40 35 41 35 42 61 48
REMARK H PARENT 5 61 65 68
REMARK Flexibility Score:  369.900
ROOT
ATOM      1  C   UNL     1       3.753   2.538  -1.276  1.00  0.00     0.117 C 
ENDROOT
BRANCH   1   2
ATOM      2  N   UNL     1       2.623   2.433  -0.354  1.00  0.00    -0.347 N 
ATOM      3  O   UNL     1       3.822   2.321   1.601  1.00  0.00    -0.273 OA
ATOM      4  C   UNL     1       2.745   2.425   1.022  1.00  0.00     0.243 C 
ATOM      5  H   UNL     1       1.684   2.413  -0.722  1.00  0.00     0.164 HD
BRANCH   4   6
ATOM      6  C   UNL     1       1.387   2.392   1.769  1.00  0.00     0.171 C 
BRANCH   6   7
ATOM      7  N   UNL     1       1.448   3.220   2.984  1.00  0.00    -0.344 N 
ATOM      8  C   UNL     1       1.165   2.679   4.219  1.00  0.00     0.226 C 
ATOM      9  O   UNL     1       0.831   1.509   4.366  1.00  0.00    -0.275 OA
ATOM     10  H   UNL     1       1.654   4.208   2.895  1.00  0.00     0.164 HD
BRANCH   8  11
ATOM     11  C   UNL     1       1.325   3.646   5.378  1.00  0.00     0.109 C 
ATOM     12  C   UNL     1       2.681   4.347   5.295  1.00  0.00     0.021 C 
BRANCH  11  13
ATOM     13  C   UNL     1       0.109   4.593   5.439  1.00  0.00     0.204 C 
BRANCH  13  14
ATOM     14  N   UNL     1      -1.155   3.881   5.224  1.00  0.00    -0.340 N 
ATOM     15  C   UNL     1      -2.018   4.185   4.194  1.00  0.00     0.243 C 
ATOM     16  O   UNL     1      -1.760   5.036   3.345  1.00  0.00    -0.273 OA
ATOM     17  H   UNL     1      -1.498   3.274   5.973  1.00  0.00     0.164 HD
BRANCH  15  18
ATOM     18  C   UNL     1      -3.378   3.449   4.289  1.00  0.00     0.171 C 
BRANCH  18  19
ATOM     19  N   UNL     1      -4.084   4.021   5.434  1.00  0.00    -0.343 N 
ATOM     20  C   UNL     1      -3.987   3.471   6.698  1.00  0.00     0.242 CG0
ATOM     21  O   UNL     1      -3.413   2.402   6.893  1.00  0.00    -0.273 OA
ATOM     22  H   UNL     1      -4.666   4.839   5.301  1.00  0.00     0.164 HD
ATOM     23  G   UNL     1      -4.738   4.256   7.793  1.00  0.00     0.000 G0
ENDBRANCH  18  19
BRANCH  18  24
ATOM     24  C   UNL     1      -4.178   3.622   2.992  1.00  0.00     0.038 C 
BRANCH  24  25
ATOM     25  C   UNL     1      -4.340   2.333   2.159  1.00  0.00    -0.015 C 
ATOM     26  C   UNL     1      -4.282   2.597   0.654  1.00  0.00     0.007 C 
ATOM     27  C   UNL     1      -5.666   1.655   2.512  1.00  0.00     0.007 C 
ENDBRANCH  24  25
ENDBRANCH  18  24
ENDBRANCH  15  18
ENDBRANCH  13  14
BRANCH  13  28
ATOM     28  C   UNL     1      -0.010   5.337   6.773  1.00  0.00     0.327 C 
ATOM     29  O   UNL     1       0.525   6.397   7.060  1.00  0.00    -0.250 OA
BRANCH  28  30
ATOM     30  O   UNL     1      -0.697   4.645   7.705  1.00  0.00    -0.480 OA
ATOM     31  H   UNL     1      -0.536   5.136   8.537  1.00  0.00     0.296 HD
ENDBRANCH  28  30
ENDBRANCH  13  28
ENDBRANCH  11  13
ENDBRANCH   8  11
ENDBRANCH   6   7
BRANCH   6  32
ATOM     32  C   UNL     1       0.283   2.883   0.827  1.00  0.00     0.037 C 
BRANCH  32  33
ATOM     33  C   UNL     1      -0.627   1.740   0.355  1.00  0.00     0.026 C 
BRANCH  33  34
ATOM     34  C   UNL     1      -1.078   0.840   1.506  1.00  0.00     0.146 C 
BRANCH  34  35
ATOM     35  N   UNL     1      -0.680  -0.530   1.214  1.00  0.00    -0.254 NA
ATOM     36  C   UNL     1      -0.318  -1.285   2.184  1.00  0.00     0.185 C 
ATOM     37  N   UNL     1       0.046  -2.551   1.927  1.00  0.00    -0.370 N 
ATOM     38  N   UNL     1      -0.242  -0.997   3.495  1.00  0.00    -0.370 N 
ATOM     39  H   UNL     1       0.005  -2.848   0.960  1.00  0.00     0.159 HD
ATOM     40  H   UNL     1       0.173  -3.249   2.640  1.00  0.00     0.159 HD
ATOM     41  H   UNL     1       0.191  -1.634   4.144  1.00  0.00     0.159 HD
ATOM     42  H   UNL     1      -0.471  -0.075   3.832  1.00  0.00     0.159 HD
ENDBRANCH  34  35
ENDBRANCH  33  34
ENDBRANCH  32  33
ENDBRANCH   6  32
ENDBRANCH   4   6
ENDBRANCH   1   2
BRANCH   1  43
ATOM     43  C   UNL     1       4.267   4.007  -1.265  1.00  0.00     0.102 C 
ATOM     44  C   UNL     1       3.136   5.050  -1.260  1.00  0.00     0.020 C 
BRANCH  43  45
ATOM     45  C   UNL     1       5.315   4.232  -2.358  1.00  0.00     0.225 C 
ATOM     46  O   UNL     1       6.521   4.283  -2.131  1.00  0.00    -0.275 OA
ATOM     47  N   UNL     1       4.816   4.470  -3.618  1.00  0.00    -0.342 N 
ATOM     48  H   UNL     1       3.844   4.275  -3.816  1.00  0.00     0.164 HD
BRANCH  47  49
ATOM     49  C   UNL     1       5.702   4.667  -4.769  1.00  0.00     0.192 C 
BRANCH  49  50
ATOM     50  C   UNL     1       4.908   5.264  -5.934  1.00  0.00     0.047 C 
BRANCH  50  51
ATOM     51  C   UNL     1       3.475   5.637  -5.530  1.00  0.00     0.103 C 
BRANCH  51  52
ATOM     52  C   UNL     1       2.824   6.584  -6.536  1.00  0.00     0.226 C 
ATOM     53  O   UNL     1       1.701   6.330  -6.976  1.00  0.00    -0.275 OA
BRANCH  52  54
ATOM     54  N   UNL     1       3.538   7.756  -6.846  1.00  0.00    -0.311 N 
ATOM     55  C   UNL     1       4.039   8.639  -5.784  1.00  0.00     0.153 C 
BRANCH  54  56
ATOM     56  C   UNL     1       3.803   8.123  -8.176  1.00  0.00     0.102 C 
ATOM     57  C   UNL     1       4.291   7.298  -9.117  1.00  0.00     0.043 C 
BRANCH  56  58
ATOM     58  C   UNL     1       3.501   9.518  -8.670  1.00  0.00     0.268 C 
ATOM     59  O   UNL     1       2.404  10.047  -8.553  1.00  0.00    -0.268 OA
ATOM     60  N   UNL     1       4.598  10.151  -9.203  1.00  0.00    -0.339 N 
ATOM     61  H   UNL     1       5.470   9.639  -9.274  1.00  0.00     0.164 HD
BRANCH  60  62
ATOM     62  C   UNL     1       4.544  11.531  -9.685  1.00  0.00     0.168 CG0
ATOM     63  C   UNL     1       4.911  12.511  -8.578  1.00  0.00     0.041 C 
ATOM     64  G   UNL     1       3.134  11.831 -10.234  1.00  0.00     0.000 G0
ENDBRANCH  60  62
ENDBRANCH  56  58
ENDBRANCH  54  56
ENDBRANCH  52  54
ENDBRANCH  51  52
ENDBRANCH  50  51
ENDBRANCH  49  50
BRANCH  49  65
ATOM     65  C   UNL     1       6.350   3.348  -5.218  1.00  0.00     0.326 C 
ATOM     66  O   UNL     1       5.833   2.242  -5.146  1.00  0.00    -0.250 OA
BRANCH  65  67
ATOM     67  O   UNL     1       7.617   3.467  -5.672  1.00  0.00    -0.480 OA
ATOM     68  H   UNL     1       8.050   2.641  -5.368  1.00  0.00     0.296 HD
ENDBRANCH  65  67
ENDBRANCH  49  65
ENDBRANCH  47  49
ENDBRANCH  43  45
ENDBRANCH   1  43
BRANCH   1  69
ATOM     69  C   UNL     1       3.288   1.934  -2.588  1.00  0.00    -0.001 C 
ATOM     70  C   UNL     1       2.188   2.256  -3.291  1.00  0.00     0.001 C 
BRANCH  70  71
ATOM     71  C   UNL     1       1.760   1.681  -4.568  1.00  0.00    -0.055 C 
ATOM     72  C   UNL     1       1.704   2.501  -5.639  1.00  0.00    -0.018 C 
ATOM     73  C   UNL     1       1.420   0.214  -4.599  1.00  0.00     0.044 C 
BRANCH  72  74
ATOM     74  C   UNL     1       1.304   2.187  -7.073  1.00  0.00     0.038 C 
ATOM     75  C   UNL     1       2.269   2.948  -7.990  1.00  0.00     0.015 C 
BRANCH  74  76
ATOM     76  C   UNL     1      -0.199   2.547  -7.264  1.00  0.00     0.128 C 
BRANCH  76  77
ATOM     77  O   UNL     1      -1.004   1.359  -7.175  1.00  0.00    -0.381 OA
ATOM     78  C   UNL     1      -0.423   0.228  -7.811  1.00  0.00     0.195 C 
ENDBRANCH  76  77
BRANCH  76  79
ATOM     79  C   UNL     1      -0.698   3.680  -6.332  1.00  0.00     0.068 C 
BRANCH  79  80
ATOM     80  C   UNL     1      -1.410   3.287  -5.060  1.00  0.00    -0.045 A 
ATOM     81  C   UNL     1      -1.108   3.910  -3.842  1.00  0.00     0.004 A 
ATOM     82  C   UNL     1      -2.372   2.266  -5.074  1.00  0.00     0.004 A 
ATOM     83  C   UNL     1      -1.761   3.531  -2.667  1.00  0.00     0.000 A 
ATOM     84  C   UNL     1      -3.023   1.887  -3.899  1.00  0.00     0.000 A 
ATOM     85  C   UNL     1      -2.719   2.520  -2.696  1.00  0.00     0.000 A 
ENDBRANCH  79  80
ENDBRANCH  76  79
ENDBRANCH  74  76
ENDBRANCH  72  74
ENDBRANCH  70  71
ENDBRANCH   1  69
TORSDOF 17
ENDMDL
MODEL 43
REMARK VINA RESULT:    -6.147      9.176     14.474
REMARK INTER + INTRA:         -25.163
REMARK INTER:                 -19.733
REMARK INTRA:                  -5.430
REMARK UNBOUND:                -6.799
REMARK SMILES C=C1C(=O)N[C@H](C)C(=O)N[C@@H](CC(C)C)C(=O)N[C@@H](C(=O)O)[C@H](C)C(=O)N[C@@H](CCCN=C(N)N)C(=O)N[C@@H](/C=C/C(C)=C/[C@H](C)[C@H](Cc2ccccc2)OC)[C@H](C)C(=O)N[C@@H](C(=O)O)CCC(=O)N1C
REMARK SMILES IDX 39 1 38 2 37 3 36 4 28 6 27 7 25 8 26 9 23 11 24 12 19 13
REMARK SMILES IDX 18 14 16 15 17 16 11 18 10 19 8 20 9 21 12 24 13 25 14 26
REMARK SMILES IDX 15 27 20 28 21 29 22 30 29 32 30 33 31 34 32 35 33 36 34 37
REMARK SMILES IDX 35 38 57 43 58 44 59 45 60 46 61 47 62 49 66 50 67 51 68 52
REMARK SMILES IDX 69 53 70 54 71 55 2 56 1 57 3 58 4 59 5 60 6 62 7 63 63 65
REMARK SMILES IDX 64 66 65 67 40 69 41 70 42 71 44 72 43 73 45 74 46 75 47 76
REMARK SMILES IDX 55 77 56 78 48 79 49 80 50 81 54 82 51 83 53 84 52 85
REMARK H PARENT 38 5 27 10 18 17 10 22 22 31 34 39 34 40 35 41 35 42 61 48
REMARK H PARENT 5 61 65 68
REMARK Flexibility Score:  369.900
ROOT
ATOM      1  C   UNL     1      -9.742  -6.390  -1.533  1.00  0.00     0.117 C 
ENDROOT
BRANCH   1   2
ATOM      2  N   UNL     1      -8.814  -6.687  -2.625  1.00  0.00    -0.347 N 
ATOM      3  O   UNL     1     -10.069  -5.827  -4.344  1.00  0.00    -0.273 OA
ATOM      4  C   UNL     1      -9.013  -6.298  -3.935  1.00  0.00     0.243 C 
ATOM      5  H   UNL     1      -7.947  -7.161  -2.422  1.00  0.00     0.164 HD
BRANCH   4   6
ATOM      6  C   UNL     1      -7.839  -6.663  -4.879  1.00  0.00     0.171 C 
BRANCH   6   7
ATOM      7  N   UNL     1      -7.593  -5.574  -5.838  1.00  0.00    -0.344 N 
ATOM      8  C   UNL     1      -7.508  -5.834  -7.189  1.00  0.00     0.226 C 
ATOM      9  O   UNL     1      -7.609  -6.965  -7.651  1.00  0.00    -0.275 OA
ATOM     10  H   UNL     1      -7.437  -4.637  -5.488  1.00  0.00     0.164 HD
BRANCH   8  11
ATOM     11  C   UNL     1      -7.307  -4.601  -8.052  1.00  0.00     0.109 C 
ATOM     12  C   UNL     1      -7.799  -3.356  -7.314  1.00  0.00     0.021 C 
BRANCH  11  13
ATOM     13  C   UNL     1      -5.843  -4.534  -8.531  1.00  0.00     0.204 C 
BRANCH  13  14
ATOM     14  N   UNL     1      -5.143  -5.809  -8.348  1.00  0.00    -0.340 N 
ATOM     15  C   UNL     1      -3.779  -5.896  -8.168  1.00  0.00     0.243 C 
ATOM     16  O   UNL     1      -3.060  -4.902  -8.089  1.00  0.00    -0.273 OA
ATOM     17  H   UNL     1      -5.655  -6.672  -8.553  1.00  0.00     0.164 HD
BRANCH  15  18
ATOM     18  C   UNL     1      -3.241  -7.347  -8.205  1.00  0.00     0.171 C 
BRANCH  18  19
ATOM     19  N   UNL     1      -2.693  -7.556  -9.544  1.00  0.00    -0.343 N 
ATOM     20  C   UNL     1      -3.490  -7.938 -10.606  1.00  0.00     0.242 CG0
ATOM     21  O   UNL     1      -4.669  -8.248 -10.448  1.00  0.00    -0.273 OA
ATOM     22  H   UNL     1      -1.701  -7.425  -9.701  1.00  0.00     0.164 HD
ATOM     23  G   UNL     1      -2.749  -8.033 -11.956  1.00  0.00     0.000 G0
ENDBRANCH  18  19
BRANCH  18  24
ATOM     24  C   UNL     1      -2.176  -7.557  -7.123  1.00  0.00     0.038 C 
BRANCH  24  25
ATOM     25  C   UNL     1      -0.889  -8.254  -7.612  1.00  0.00    -0.015 C 
ATOM     26  C   UNL     1      -1.080  -9.756  -7.823  1.00  0.00     0.007 C 
ATOM     27  C   UNL     1       0.241  -8.015  -6.606  1.00  0.00     0.007 C 
ENDBRANCH  24  25
ENDBRANCH  18  24
ENDBRANCH  15  18
ENDBRANCH  13  14
BRANCH  13  28
ATOM     28  C   UNL     1      -5.708  -4.151 -10.008  1.00  0.00     0.327 C 
ATOM     29  O   UNL     1      -5.221  -3.120 -10.446  1.00  0.00    -0.250 OA
BRANCH  28  30
ATOM     30  O   UNL     1      -6.301  -5.033 -10.839  1.00  0.00    -0.480 OA
ATOM     31  H   UNL     1      -7.065  -4.542 -11.207  1.00  0.00     0.296 HD
ENDBRANCH  28  30
ENDBRANCH  13  28
ENDBRANCH  11  13
ENDBRANCH   8  11
ENDBRANCH   6   7
BRANCH   6  32
ATOM     32  C   UNL     1      -6.588  -6.945  -4.039  1.00  0.00     0.037 C 
BRANCH  32  33
ATOM     33  C   UNL     1      -5.937  -8.287  -4.402  1.00  0.00     0.026 C 
BRANCH  33  34
ATOM     34  C   UNL     1      -6.888  -9.469  -4.211  1.00  0.00     0.146 C 
BRANCH  34  35
ATOM     35  N   UNL     1      -6.102 -10.689  -4.089  1.00  0.00    -0.254 NA
ATOM     36  C   UNL     1      -6.714 -11.814  -4.065  1.00  0.00     0.185 C 
ATOM     37  N   UNL     1      -6.000 -12.945  -3.958  1.00  0.00    -0.370 N 
ATOM     38  N   UNL     1      -8.035 -12.059  -4.134  1.00  0.00    -0.370 N 
ATOM     39  H   UNL     1      -4.994 -12.844  -3.911  1.00  0.00     0.159 HD
ATOM     40  H   UNL     1      -6.385 -13.862  -4.106  1.00  0.00     0.159 HD
ATOM     41  H   UNL     1      -8.403 -12.981  -3.964  1.00  0.00     0.159 HD
ATOM     42  H   UNL     1      -8.694 -11.300  -4.201  1.00  0.00     0.159 HD
ENDBRANCH  34  35
ENDBRANCH  33  34
ENDBRANCH  32  33
ENDBRANCH   6  32
ENDBRANCH   4   6
ENDBRANCH   1   2
BRANCH   1  43
ATOM     43  C   UNL     1      -9.259  -5.099  -0.810  1.00  0.00     0.102 C 
ATOM     44  C   UNL     1      -9.455  -5.142   0.715  1.00  0.00     0.020 C 
BRANCH  43  45
ATOM     45  C   UNL     1      -9.838  -3.847  -1.476  1.00  0.00     0.225 C 
ATOM     46  O   UNL     1      -9.171  -3.092  -2.178  1.00  0.00    -0.275 OA
ATOM     47  N   UNL     1     -11.146  -3.560  -1.161  1.00  0.00    -0.342 N 
ATOM     48  H   UNL     1     -11.718  -4.262  -0.713  1.00  0.00     0.164 HD
BRANCH  47  49
ATOM     49  C   UNL     1     -11.842  -2.413  -1.752  1.00  0.00     0.192 C 
BRANCH  49  50
ATOM     50  C   UNL     1     -12.338  -1.484  -0.641  1.00  0.00     0.047 C 
BRANCH  50  51
ATOM     51  C   UNL     1     -12.967  -2.257   0.526  1.00  0.00     0.103 C 
BRANCH  51  52
ATOM     52  C   UNL     1     -14.181  -1.533   1.105  1.00  0.00     0.226 C 
ATOM     53  O   UNL     1     -14.348  -0.335   0.868  1.00  0.00    -0.275 OA
BRANCH  52  54
ATOM     54  N   UNL     1     -15.094  -2.322   1.829  1.00  0.00    -0.311 N 
ATOM     55  C   UNL     1     -14.629  -3.398   2.714  1.00  0.00     0.153 C 
BRANCH  54  56
ATOM     56  C   UNL     1     -16.480  -2.108   1.738  1.00  0.00     0.102 C 
ATOM     57  C   UNL     1     -17.236  -1.550   2.697  1.00  0.00     0.043 C 
BRANCH  56  58
ATOM     58  C   UNL     1     -17.239  -2.467   0.482  1.00  0.00     0.268 C 
ATOM     59  O   UNL     1     -16.832  -3.281  -0.336  1.00  0.00    -0.268 OA
ATOM     60  N   UNL     1     -18.457  -1.837   0.388  1.00  0.00    -0.339 N 
ATOM     61  H   UNL     1     -18.716  -1.168   1.103  1.00  0.00     0.164 HD
BRANCH  60  62
ATOM     62  C   UNL     1     -19.380  -2.089  -0.717  1.00  0.00     0.168 CG0
ATOM     63  C   UNL     1     -19.199  -1.061  -1.827  1.00  0.00     0.041 C 
ATOM     64  G   UNL     1     -20.831  -2.075  -0.192  1.00  0.00     0.000 G0
ENDBRANCH  60  62
ENDBRANCH  56  58
ENDBRANCH  54  56
ENDBRANCH  52  54
ENDBRANCH  51  52
ENDBRANCH  50  51
ENDBRANCH  49  50
BRANCH  49  65
ATOM     65  C   UNL     1     -13.034  -2.856  -2.615  1.00  0.00     0.326 C 
ATOM     66  O   UNL     1     -14.122  -3.219  -2.191  1.00  0.00    -0.250 OA
BRANCH  65  67
ATOM     67  O   UNL     1     -12.790  -2.882  -3.944  1.00  0.00    -0.480 OA
ATOM     68  H   UNL     1     -13.459  -3.512  -4.290  1.00  0.00     0.296 HD
ENDBRANCH  65  67
ENDBRANCH  49  65
ENDBRANCH  47  49
ENDBRANCH  43  45
ENDBRANCH   1  43
BRANCH   1  69
ATOM     69  C   UNL     1      -9.878  -7.672  -0.731  1.00  0.00    -0.001 C 
ATOM     70  C   UNL     1      -9.028  -8.714  -0.707  1.00  0.00     0.001 C 
BRANCH  70  71
ATOM     71  C   UNL     1      -9.159  -9.937   0.087  1.00  0.00    -0.055 C 
ATOM     72  C   UNL     1      -9.494  -9.808   1.388  1.00  0.00    -0.018 C 
ATOM     73  C   UNL     1      -8.919 -11.253  -0.605  1.00  0.00     0.044 C 
BRANCH  72  74
ATOM     74  C   UNL     1      -9.702 -10.887   2.441  1.00  0.00     0.038 C 
ATOM     75  C   UNL     1     -11.191 -10.881   2.808  1.00  0.00     0.015 C 
BRANCH  74  76
ATOM     76  C   UNL     1      -8.735 -10.618   3.632  1.00  0.00     0.128 C 
BRANCH  76  77
ATOM     77  O   UNL     1      -8.214 -11.861   4.132  1.00  0.00    -0.381 OA
ATOM     78  C   UNL     1      -8.116 -11.911   5.549  1.00  0.00     0.195 C 
ENDBRANCH  76  77
BRANCH  76  79
ATOM     79  C   UNL     1      -7.623  -9.585   3.319  1.00  0.00     0.068 C 
BRANCH  79  80
ATOM     80  C   UNL     1      -6.241 -10.106   3.006  1.00  0.00    -0.045 A 
ATOM     81  C   UNL     1      -6.026 -10.986   1.937  1.00  0.00     0.004 A 
ATOM     82  C   UNL     1      -5.149  -9.737   3.805  1.00  0.00     0.004 A 
ATOM     83  C   UNL     1      -4.747 -11.475   1.663  1.00  0.00     0.000 A 
ATOM     84  C   UNL     1      -3.870 -10.227   3.531  1.00  0.00     0.000 A 
ATOM     85  C   UNL     1      -3.669 -11.094   2.459  1.00  0.00     0.000 A 
ENDBRANCH  79  80
ENDBRANCH  76  79
ENDBRANCH  74  76
ENDBRANCH  72  74
ENDBRANCH  70  71
ENDBRANCH   1  69
TORSDOF 17
ENDMDL
MODEL 44
REMARK VINA RESULT:    -6.141     11.757     18.690
REMARK INTER + INTRA:         -25.146
REMARK INTER:                 -17.881
REMARK INTRA:                  -7.265
REMARK UNBOUND:                -6.799
REMARK SMILES C=C1C(=O)N[C@H](C)C(=O)N[C@@H](CC(C)C)C(=O)N[C@@H](C(=O)O)[C@H](C)C(=O)N[C@@H](CCCN=C(N)N)C(=O)N[C@@H](/C=C/C(C)=C/[C@H](C)[C@H](Cc2ccccc2)OC)[C@H](C)C(=O)N[C@@H](C(=O)O)CCC(=O)N1C
REMARK SMILES IDX 39 1 38 2 37 3 36 4 28 6 27 7 25 8 26 9 23 11 24 12 19 13
REMARK SMILES IDX 18 14 16 15 17 16 11 18 10 19 8 20 9 21 12 24 13 25 14 26
REMARK SMILES IDX 15 27 20 28 21 29 22 30 29 32 30 33 31 34 32 35 33 36 34 37
REMARK SMILES IDX 35 38 57 43 58 44 59 45 60 46 61 47 62 49 66 50 67 51 68 52
REMARK SMILES IDX 69 53 70 54 71 55 2 56 1 57 3 58 4 59 5 60 6 62 7 63 63 65
REMARK SMILES IDX 64 66 65 67 40 69 41 70 42 71 44 72 43 73 45 74 46 75 47 76
REMARK SMILES IDX 55 77 56 78 48 79 49 80 50 81 54 82 51 83 53 84 52 85
REMARK H PARENT 38 5 27 10 18 17 10 22 22 31 34 39 34 40 35 41 35 42 61 48
REMARK H PARENT 5 61 65 68
REMARK Flexibility Score:  369.900
ROOT
ATOM      1  C   UNL     1       1.693   2.397   1.010  1.00  0.00     0.117 C 
ENDROOT
BRANCH   1   2
ATOM      2  N   UNL     1       0.662   3.216   0.372  1.00  0.00    -0.347 N 
ATOM      3  O   UNL     1      -0.232   1.593  -0.984  1.00  0.00    -0.273 OA
ATOM      4  C   UNL     1      -0.281   2.723  -0.510  1.00  0.00     0.243 C 
ATOM      5  H   UNL     1       0.586   4.192   0.614  1.00  0.00     0.164 HD
BRANCH   4   6
ATOM      6  C   UNL     1      -1.313   3.782  -0.974  1.00  0.00     0.171 C 
BRANCH   6   7
ATOM      7  N   UNL     1      -2.210   3.213  -1.992  1.00  0.00    -0.344 N 
ATOM      8  C   UNL     1      -2.221   3.712  -3.277  1.00  0.00     0.226 C 
ATOM      9  O   UNL     1      -1.516   4.650  -3.627  1.00  0.00    -0.275 OA
ATOM     10  H   UNL     1      -2.856   2.482  -1.724  1.00  0.00     0.164 HD
BRANCH   8  11
ATOM     11  C   UNL     1      -3.161   2.984  -4.223  1.00  0.00     0.109 C 
ATOM     12  C   UNL     1      -4.391   2.488  -3.463  1.00  0.00     0.021 C 
BRANCH  11  13
ATOM     13  C   UNL     1      -3.468   3.876  -5.442  1.00  0.00     0.204 C 
BRANCH  13  14
ATOM     14  N   UNL     1      -2.280   4.106  -6.271  1.00  0.00    -0.340 N 
ATOM     15  C   UNL     1      -2.127   5.220  -7.066  1.00  0.00     0.243 C 
ATOM     16  O   UNL     1      -2.951   6.133  -7.091  1.00  0.00    -0.273 OA
ATOM     17  H   UNL     1      -1.635   3.324  -6.412  1.00  0.00     0.164 HD
BRANCH  15  18
ATOM     18  C   UNL     1      -0.898   5.146  -8.005  1.00  0.00     0.171 C 
BRANCH  18  19
ATOM     19  N   UNL     1      -1.376   5.469  -9.348  1.00  0.00    -0.343 N 
ATOM     20  C   UNL     1      -1.055   4.690 -10.442  1.00  0.00     0.242 CG0
ATOM     21  O   UNL     1      -0.246   3.768 -10.361  1.00  0.00    -0.273 OA
ATOM     22  H   UNL     1      -1.954   6.290  -9.486  1.00  0.00     0.164 HD
ATOM     23  G   UNL     1      -1.715   5.142 -11.761  1.00  0.00     0.000 G0
ENDBRANCH  18  19
BRANCH  18  24
ATOM     24  C   UNL     1       0.193   6.123  -7.546  1.00  0.00     0.038 C 
BRANCH  24  25
ATOM     25  C   UNL     1       1.598   5.500  -7.408  1.00  0.00    -0.015 C 
ATOM     26  C   UNL     1       2.417   5.611  -8.695  1.00  0.00     0.007 C 
ATOM     27  C   UNL     1       1.472   4.030  -7.002  1.00  0.00     0.007 C 
ENDBRANCH  24  25
ENDBRANCH  18  24
ENDBRANCH  15  18
ENDBRANCH  13  14
BRANCH  13  28
ATOM     28  C   UNL     1      -4.554   3.298  -6.355  1.00  0.00     0.327 C 
ATOM     29  O   UNL     1      -4.617   2.149  -6.764  1.00  0.00    -0.250 OA
BRANCH  28  30
ATOM     30  O   UNL     1      -5.427   4.228  -6.792  1.00  0.00    -0.480 OA
ATOM     31  H   UNL     1      -5.336   4.964  -6.153  1.00  0.00     0.296 HD
ENDBRANCH  28  30
ENDBRANCH  13  28
ENDBRANCH  11  13
ENDBRANCH   8  11
ENDBRANCH   6   7
BRANCH   6  32
ATOM     32  C   UNL     1      -2.106   4.278   0.240  1.00  0.00     0.037 C 
BRANCH  32  33
ATOM     33  C   UNL     1      -3.410   3.492   0.440  1.00  0.00     0.026 C 
BRANCH  33  34
ATOM     34  C   UNL     1      -4.415   4.240   1.317  1.00  0.00     0.146 C 
BRANCH  34  35
ATOM     35  N   UNL     1      -4.788   5.480   0.651  1.00  0.00    -0.254 NA
ATOM     36  C   UNL     1      -6.006   5.639   0.285  1.00  0.00     0.185 C 
ATOM     37  N   UNL     1      -6.362   6.780  -0.325  1.00  0.00    -0.370 N 
ATOM     38  N   UNL     1      -7.045   4.797   0.423  1.00  0.00    -0.370 N 
ATOM     39  H   UNL     1      -5.634   7.471  -0.456  1.00  0.00     0.159 HD
ATOM     40  H   UNL     1      -7.317   7.051  -0.483  1.00  0.00     0.159 HD
ATOM     41  H   UNL     1      -7.926   4.978  -0.031  1.00  0.00     0.159 HD
ATOM     42  H   UNL     1      -6.920   3.893   0.851  1.00  0.00     0.159 HD
ENDBRANCH  34  35
ENDBRANCH  33  34
ENDBRANCH  32  33
ENDBRANCH   6  32
ENDBRANCH   4   6
ENDBRANCH   1   2
BRANCH   1  43
ATOM     43  C   UNL     1       1.768   2.780   2.516  1.00  0.00     0.102 C 
ATOM     44  C   UNL     1       3.024   2.241   3.223  1.00  0.00     0.020 C 
BRANCH  43  45
ATOM     45  C   UNL     1       0.458   2.445   3.235  1.00  0.00     0.225 C 
ATOM     46  O   UNL     1      -0.317   1.576   2.846  1.00  0.00    -0.275 OA
ATOM     47  N   UNL     1       0.149   3.249   4.308  1.00  0.00    -0.342 N 
ATOM     48  H   UNL     1       0.858   3.850   4.704  1.00  0.00     0.164 HD
BRANCH  47  49
ATOM     49  C   UNL     1      -1.056   3.023   5.113  1.00  0.00     0.192 C 
BRANCH  49  50
ATOM     50  C   UNL     1      -2.254   3.707   4.449  1.00  0.00     0.047 C 
BRANCH  50  51
ATOM     51  C   UNL     1      -3.552   3.508   5.243  1.00  0.00     0.103 C 
BRANCH  51  52
ATOM     52  C   UNL     1      -4.529   2.582   4.522  1.00  0.00     0.226 C 
ATOM     53  O   UNL     1      -4.097   1.683   3.798  1.00  0.00    -0.275 OA
BRANCH  52  54
ATOM     54  N   UNL     1      -5.895   2.775   4.798  1.00  0.00    -0.311 N 
ATOM     55  C   UNL     1      -6.821   1.637   4.867  1.00  0.00     0.153 C 
BRANCH  54  56
ATOM     56  C   UNL     1      -6.423   4.058   5.022  1.00  0.00     0.102 C 
ATOM     57  C   UNL     1      -6.707   4.951   4.060  1.00  0.00     0.043 C 
BRANCH  56  58
ATOM     58  C   UNL     1      -6.763   4.523   6.418  1.00  0.00     0.268 C 
ATOM     59  O   UNL     1      -5.945   5.032   7.172  1.00  0.00    -0.268 OA
ATOM     60  N   UNL     1      -8.094   4.375   6.727  1.00  0.00    -0.339 N 
ATOM     61  H   UNL     1      -8.705   3.933   6.051  1.00  0.00     0.164 HD
BRANCH  60  62
ATOM     62  C   UNL     1      -8.651   4.818   8.005  1.00  0.00     0.168 CG0
ATOM     63  C   UNL     1      -8.705   3.671   9.006  1.00  0.00     0.041 C 
ATOM     64  G   UNL     1     -10.057   5.412   7.778  1.00  0.00     0.000 G0
ENDBRANCH  60  62
ENDBRANCH  56  58
ENDBRANCH  54  56
ENDBRANCH  52  54
ENDBRANCH  51  52
ENDBRANCH  50  51
ENDBRANCH  49  50
BRANCH  49  65
ATOM     65  C   UNL     1      -0.891   3.561   6.543  1.00  0.00     0.326 C 
ATOM     66  O   UNL     1      -1.189   2.961   7.566  1.00  0.00    -0.250 OA
BRANCH  65  67
ATOM     67  O   UNL     1      -0.425   4.827   6.619  1.00  0.00    -0.480 OA
ATOM     68  H   UNL     1       0.009   4.966   5.750  1.00  0.00     0.296 HD
ENDBRANCH  65  67
ENDBRANCH  49  65
ENDBRANCH  47  49
ENDBRANCH  43  45
ENDBRANCH   1  43
BRANCH   1  69
ATOM     69  C   UNL     1       2.938   2.540   0.154  1.00  0.00    -0.001 C 
ATOM     70  C   UNL     1       3.601   3.672  -0.141  1.00  0.00     0.001 C 
BRANCH  70  71
ATOM     71  C   UNL     1       4.815   3.795  -0.951  1.00  0.00    -0.055 C 
ATOM     72  C   UNL     1       5.096   2.798  -1.817  1.00  0.00    -0.018 C 
ATOM     73  C   UNL     1       5.660   5.029  -0.768  1.00  0.00     0.044 C 
BRANCH  72  74
ATOM     74  C   UNL     1       6.269   2.657  -2.776  1.00  0.00     0.038 C 
ATOM     75  C   UNL     1       7.551   2.817  -1.950  1.00  0.00     0.015 C 
BRANCH  74  76
ATOM     76  C   UNL     1       6.101   3.692  -3.928  1.00  0.00     0.128 C 
BRANCH  76  77
ATOM     77  O   UNL     1       6.979   3.361  -5.017  1.00  0.00    -0.381 OA
ATOM     78  C   UNL     1       8.022   4.306  -5.217  1.00  0.00     0.195 C 
ENDBRANCH  76  77
BRANCH  76  79
ATOM     79  C   UNL     1       4.633   3.895  -4.382  1.00  0.00     0.068 C 
BRANCH  79  80
ATOM     80  C   UNL     1       4.172   5.303  -4.672  1.00  0.00    -0.045 A 
ATOM     81  C   UNL     1       4.782   6.071  -5.673  1.00  0.00     0.004 A 
ATOM     82  C   UNL     1       3.137   5.877  -3.919  1.00  0.00     0.004 A 
ATOM     83  C   UNL     1       4.359   7.377  -5.925  1.00  0.00     0.000 A 
ATOM     84  C   UNL     1       2.715   7.184  -4.172  1.00  0.00     0.000 A 
ATOM     85  C   UNL     1       3.324   7.933  -5.176  1.00  0.00     0.000 A 
ENDBRANCH  79  80
ENDBRANCH  76  79
ENDBRANCH  74  76
ENDBRANCH  72  74
ENDBRANCH  70  71
ENDBRANCH   1  69
TORSDOF 17
ENDMDL
MODEL 45
REMARK VINA RESULT:    -6.138     12.825     18.942
REMARK INTER + INTRA:         -25.137
REMARK INTER:                 -17.541
REMARK INTRA:                  -7.597
REMARK UNBOUND:                -6.799
REMARK SMILES C=C1C(=O)N[C@H](C)C(=O)N[C@@H](CC(C)C)C(=O)N[C@@H](C(=O)O)[C@H](C)C(=O)N[C@@H](CCCN=C(N)N)C(=O)N[C@@H](/C=C/C(C)=C/[C@H](C)[C@H](Cc2ccccc2)OC)[C@H](C)C(=O)N[C@@H](C(=O)O)CCC(=O)N1C
REMARK SMILES IDX 39 1 38 2 37 3 36 4 28 6 27 7 25 8 26 9 23 11 24 12 19 13
REMARK SMILES IDX 18 14 16 15 17 16 11 18 10 19 8 20 9 21 12 24 13 25 14 26
REMARK SMILES IDX 15 27 20 28 21 29 22 30 29 32 30 33 31 34 32 35 33 36 34 37
REMARK SMILES IDX 35 38 57 43 58 44 59 45 60 46 61 47 62 49 66 50 67 51 68 52
REMARK SMILES IDX 69 53 70 54 71 55 2 56 1 57 3 58 4 59 5 60 6 62 7 63 63 65
REMARK SMILES IDX 64 66 65 67 40 69 41 70 42 71 44 72 43 73 45 74 46 75 47 76
REMARK SMILES IDX 55 77 56 78 48 79 49 80 50 81 54 82 51 83 53 84 52 85
REMARK H PARENT 38 5 27 10 18 17 10 22 22 31 34 39 34 40 35 41 35 42 61 48
REMARK H PARENT 5 61 65 68
REMARK Flexibility Score:  369.900
ROOT
ATOM      1  C   UNL     1      -3.324   3.213   1.903  1.00  0.00     0.117 C 
ENDROOT
BRANCH   1   2
ATOM      2  N   UNL     1      -4.657   3.568   2.390  1.00  0.00    -0.347 N 
ATOM      3  O   UNL     1      -5.136   5.191   0.839  1.00  0.00    -0.273 OA
ATOM      4  C   UNL     1      -5.496   4.467   1.762  1.00  0.00     0.243 C 
ATOM      5  H   UNL     1      -5.025   3.102   3.206  1.00  0.00     0.164 HD
BRANCH   4   6
ATOM      6  C   UNL     1      -6.886   4.597   2.435  1.00  0.00     0.171 C 
BRANCH   6   7
ATOM      7  N   UNL     1      -7.111   3.485   3.371  1.00  0.00    -0.344 N 
ATOM      8  C   UNL     1      -8.222   2.678   3.251  1.00  0.00     0.226 C 
ATOM      9  O   UNL     1      -9.076   2.855   2.391  1.00  0.00    -0.275 OA
ATOM     10  H   UNL     1      -6.462   3.349   4.136  1.00  0.00     0.164 HD
BRANCH   8  11
ATOM     11  C   UNL     1      -8.282   1.543   4.257  1.00  0.00     0.109 C 
ATOM     12  C   UNL     1      -6.914   1.345   4.911  1.00  0.00     0.021 C 
BRANCH  11  13
ATOM     13  C   UNL     1      -9.443   1.780   5.243  1.00  0.00     0.204 C 
BRANCH  13  14
ATOM     14  N   UNL     1      -9.594   3.198   5.587  1.00  0.00    -0.340 N 
ATOM     15  C   UNL     1      -9.960   3.629   6.843  1.00  0.00     0.243 C 
ATOM     16  O   UNL     1     -10.127   2.855   7.784  1.00  0.00    -0.273 OA
ATOM     17  H   UNL     1      -9.619   3.877   4.821  1.00  0.00     0.164 HD
BRANCH  15  18
ATOM     18  C   UNL     1     -10.258   5.147   6.915  1.00  0.00     0.171 C 
BRANCH  18  19
ATOM     19  N   UNL     1     -11.713   5.286   6.945  1.00  0.00    -0.343 N 
ATOM     20  C   UNL     1     -12.481   5.164   5.803  1.00  0.00     0.242 CG0
ATOM     21  O   UNL     1     -11.968   5.065   4.691  1.00  0.00    -0.273 OA
ATOM     22  H   UNL     1     -12.175   5.485   7.826  1.00  0.00     0.164 HD
ATOM     23  G   UNL     1     -14.001   5.264   6.045  1.00  0.00     0.000 G0
ENDBRANCH  18  19
BRANCH  18  24
ATOM     24  C   UNL     1      -9.607   5.769   8.156  1.00  0.00     0.038 C 
BRANCH  24  25
ATOM     25  C   UNL     1     -10.588   6.093   9.303  1.00  0.00    -0.015 C 
ATOM     26  C   UNL     1     -10.454   7.534   9.797  1.00  0.00     0.007 C 
ATOM     27  C   UNL     1     -10.356   5.126  10.467  1.00  0.00     0.007 C 
ENDBRANCH  24  25
ENDBRANCH  18  24
ENDBRANCH  15  18
ENDBRANCH  13  14
BRANCH  13  28
ATOM     28  C   UNL     1     -10.796   1.296   4.711  1.00  0.00     0.327 C 
ATOM     29  O   UNL     1     -11.279   0.186   4.870  1.00  0.00    -0.250 OA
BRANCH  28  30
ATOM     30  O   UNL     1     -11.404   2.197   3.913  1.00  0.00    -0.480 OA
ATOM     31  H   UNL     1     -10.710   2.866   3.733  1.00  0.00     0.296 HD
ENDBRANCH  28  30
ENDBRANCH  13  28
ENDBRANCH  11  13
ENDBRANCH   8  11
ENDBRANCH   6   7
BRANCH   6  32
ATOM     32  C   UNL     1      -6.971   5.946   3.157  1.00  0.00     0.037 C 
BRANCH  32  33
ATOM     33  C   UNL     1      -7.937   6.916   2.462  1.00  0.00     0.026 C 
BRANCH  33  34
ATOM     34  C   UNL     1      -9.403   6.575   2.729  1.00  0.00     0.146 C 
BRANCH  34  35
ATOM     35  N   UNL     1     -10.138   6.643   1.474  1.00  0.00    -0.254 NA
ATOM     36  C   UNL     1     -10.951   5.696   1.185  1.00  0.00     0.185 C 
ATOM     37  N   UNL     1     -11.637   5.752   0.033  1.00  0.00    -0.370 N 
ATOM     38  N   UNL     1     -11.245   4.590   1.892  1.00  0.00    -0.370 N 
ATOM     39  H   UNL     1     -11.478   6.562  -0.552  1.00  0.00     0.159 HD
ATOM     40  H   UNL     1     -12.411   5.148  -0.183  1.00  0.00     0.159 HD
ATOM     41  H   UNL     1     -11.797   3.849   1.493  1.00  0.00     0.159 HD
ATOM     42  H   UNL     1     -10.790   4.409   2.773  1.00  0.00     0.159 HD
ENDBRANCH  34  35
ENDBRANCH  33  34
ENDBRANCH  32  33
ENDBRANCH   6  32
ENDBRANCH   4   6
ENDBRANCH   1   2
BRANCH   1  43
ATOM     43  C   UNL     1      -3.437   1.921   1.044  1.00  0.00     0.102 C 
ATOM     44  C   UNL     1      -4.048   0.732   1.805  1.00  0.00     0.020 C 
BRANCH  43  45
ATOM     45  C   UNL     1      -2.108   1.600   0.354  1.00  0.00     0.225 C 
ATOM     46  O   UNL     1      -1.562   0.503   0.427  1.00  0.00    -0.275 OA
ATOM     47  N   UNL     1      -1.503   2.657  -0.287  1.00  0.00    -0.342 N 
ATOM     48  H   UNL     1      -2.029   3.500  -0.467  1.00  0.00     0.164 HD
BRANCH  47  49
ATOM     49  C   UNL     1      -0.245   2.489  -1.020  1.00  0.00     0.192 C 
BRANCH  49  50
ATOM     50  C   UNL     1       0.883   3.211  -0.278  1.00  0.00     0.047 C 
BRANCH  50  51
ATOM     51  C   UNL     1       2.198   2.419  -0.307  1.00  0.00     0.103 C 
BRANCH  51  52
ATOM     52  C   UNL     1       3.384   3.261   0.160  1.00  0.00     0.226 C 
ATOM     53  O   UNL     1       3.640   3.340   1.363  1.00  0.00    -0.275 OA
BRANCH  52  54
ATOM     54  N   UNL     1       4.173   3.845  -0.848  1.00  0.00    -0.311 N 
ATOM     55  C   UNL     1       3.725   5.051  -1.556  1.00  0.00     0.153 C 
BRANCH  54  56
ATOM     56  C   UNL     1       5.418   3.303  -1.210  1.00  0.00     0.102 C 
ATOM     57  C   UNL     1       6.474   3.186  -0.388  1.00  0.00     0.043 C 
BRANCH  56  58
ATOM     58  C   UNL     1       5.648   2.749  -2.597  1.00  0.00     0.268 C 
ATOM     59  O   UNL     1       5.231   1.658  -2.960  1.00  0.00    -0.268 OA
ATOM     60  N   UNL     1       6.314   3.623  -3.423  1.00  0.00    -0.339 N 
ATOM     61  H   UNL     1       6.636   4.504  -3.042  1.00  0.00     0.164 HD
BRANCH  60  62
ATOM     62  C   UNL     1       6.587   3.313  -4.826  1.00  0.00     0.168 CG0
ATOM     63  C   UNL     1       8.010   3.702  -5.205  1.00  0.00     0.041 C 
ATOM     64  G   UNL     1       5.565   4.040  -5.724  1.00  0.00     0.000 G0
ENDBRANCH  60  62
ENDBRANCH  56  58
ENDBRANCH  54  56
ENDBRANCH  52  54
ENDBRANCH  51  52
ENDBRANCH  50  51
ENDBRANCH  49  50
BRANCH  49  65
ATOM     65  C   UNL     1      -0.345   3.040  -2.451  1.00  0.00     0.326 C 
ATOM     66  O   UNL     1      -1.301   2.901  -3.201  1.00  0.00    -0.250 OA
BRANCH  65  67
ATOM     67  O   UNL     1       0.763   3.676  -2.890  1.00  0.00    -0.480 OA
ATOM     68  H   UNL     1       0.410   4.476  -3.335  1.00  0.00     0.296 HD
ENDBRANCH  65  67
ENDBRANCH  49  65
ENDBRANCH  47  49
ENDBRANCH  43  45
ENDBRANCH   1  43
BRANCH   1  69
ATOM     69  C   UNL     1      -2.415   3.208   3.119  1.00  0.00    -0.001 C 
ATOM     70  C   UNL     1      -2.484   4.014   4.194  1.00  0.00     0.001 C 
BRANCH  70  71
ATOM     71  C   UNL     1      -1.615   3.985   5.371  1.00  0.00    -0.055 C 
ATOM     72  C   UNL     1      -0.455   4.672   5.312  1.00  0.00    -0.018 C 
ATOM     73  C   UNL     1      -2.080   3.198   6.569  1.00  0.00     0.044 C 
BRANCH  72  74
ATOM     74  C   UNL     1       0.630   4.824   6.369  1.00  0.00     0.038 C 
ATOM     75  C   UNL     1       0.250   6.029   7.238  1.00  0.00     0.015 C 
BRANCH  74  76
ATOM     76  C   UNL     1       2.010   4.942   5.657  1.00  0.00     0.128 C 
BRANCH  76  77
ATOM     77  O   UNL     1       2.886   5.787   6.421  1.00  0.00    -0.381 OA
ATOM     78  C   UNL     1       3.805   6.524   5.627  1.00  0.00     0.195 C 
ENDBRANCH  76  77
BRANCH  76  79
ATOM     79  C   UNL     1       2.653   3.578   5.300  1.00  0.00     0.068 C 
BRANCH  79  80
ATOM     80  C   UNL     1       1.743   2.468   4.832  1.00  0.00    -0.045 A 
ATOM     81  C   UNL     1       1.406   2.332   3.479  1.00  0.00     0.004 A 
ATOM     82  C   UNL     1       1.194   1.567   5.757  1.00  0.00     0.004 A 
ATOM     83  C   UNL     1       0.552   1.311   3.057  1.00  0.00     0.000 A 
ATOM     84  C   UNL     1       0.340   0.546   5.334  1.00  0.00     0.000 A 
ATOM     85  C   UNL     1       0.020   0.418   3.984  1.00  0.00     0.000 A 
ENDBRANCH  79  80
ENDBRANCH  76  79
ENDBRANCH  74  76
ENDBRANCH  72  74
ENDBRANCH  70  71
ENDBRANCH   1  69
TORSDOF 17
ENDMDL
MODEL 46
REMARK VINA RESULT:    -6.136     13.092     17.360
REMARK INTER + INTRA:         -25.130
REMARK INTER:                 -15.807
REMARK INTRA:                  -9.323
REMARK UNBOUND:                -6.799
REMARK SMILES C=C1C(=O)N[C@H](C)C(=O)N[C@@H](CC(C)C)C(=O)N[C@@H](C(=O)O)[C@H](C)C(=O)N[C@@H](CCCN=C(N)N)C(=O)N[C@@H](/C=C/C(C)=C/[C@H](C)[C@H](Cc2ccccc2)OC)[C@H](C)C(=O)N[C@@H](C(=O)O)CCC(=O)N1C
REMARK SMILES IDX 39 1 38 2 37 3 36 4 28 6 27 7 25 8 26 9 23 11 24 12 19 13
REMARK SMILES IDX 18 14 16 15 17 16 11 18 10 19 8 20 9 21 12 24 13 25 14 26
REMARK SMILES IDX 15 27 20 28 21 29 22 30 29 32 30 33 31 34 32 35 33 36 34 37
REMARK SMILES IDX 35 38 57 43 58 44 59 45 60 46 61 47 62 49 66 50 67 51 68 52
REMARK SMILES IDX 69 53 70 54 71 55 2 56 1 57 3 58 4 59 5 60 6 62 7 63 63 65
REMARK SMILES IDX 64 66 65 67 40 69 41 70 42 71 44 72 43 73 45 74 46 75 47 76
REMARK SMILES IDX 55 77 56 78 48 79 49 80 50 81 54 82 51 83 53 84 52 85
REMARK H PARENT 38 5 27 10 18 17 10 22 22 31 34 39 34 40 35 41 35 42 61 48
REMARK H PARENT 5 61 65 68
REMARK Flexibility Score:  369.900
ROOT
ATOM      1  C   UNL     1       0.145   2.765  -2.286  1.00  0.00     0.117 C 
ENDROOT
BRANCH   1   2
ATOM      2  N   UNL     1       1.457   2.668  -1.645  1.00  0.00    -0.347 N 
ATOM      3  O   UNL     1       0.921   3.719   0.324  1.00  0.00    -0.273 OA
ATOM      4  C   UNL     1       1.716   3.073  -0.350  1.00  0.00     0.243 C 
ATOM      5  H   UNL     1       2.221   2.237  -2.144  1.00  0.00     0.164 HD
BRANCH   4   6
ATOM      6  C   UNL     1       3.165   2.781   0.116  1.00  0.00     0.171 C 
BRANCH   6   7
ATOM      7  N   UNL     1       4.118   3.658  -0.584  1.00  0.00    -0.344 N 
ATOM      8  C   UNL     1       4.787   3.216  -1.705  1.00  0.00     0.226 C 
ATOM      9  O   UNL     1       4.645   2.085  -2.156  1.00  0.00    -0.275 OA
ATOM     10  H   UNL     1       4.312   4.575  -0.203  1.00  0.00     0.164 HD
BRANCH   8  11
ATOM     11  C   UNL     1       5.691   4.255  -2.344  1.00  0.00     0.109 C 
ATOM     12  C   UNL     1       7.140   3.768  -2.335  1.00  0.00     0.021 C 
BRANCH  11  13
ATOM     13  C   UNL     1       5.145   4.637  -3.735  1.00  0.00     0.204 C 
BRANCH  13  14
ATOM     14  N   UNL     1       4.882   3.459  -4.567  1.00  0.00    -0.340 N 
ATOM     15  C   UNL     1       5.686   3.096  -5.626  1.00  0.00     0.243 C 
ATOM     16  O   UNL     1       6.717   3.702  -5.910  1.00  0.00    -0.273 OA
ATOM     17  H   UNL     1       3.968   3.005  -4.482  1.00  0.00     0.164 HD
BRANCH  15  18
ATOM     18  C   UNL     1       5.099   1.947  -6.482  1.00  0.00     0.171 C 
BRANCH  18  19
ATOM     19  N   UNL     1       6.157   1.526  -7.398  1.00  0.00    -0.343 N 
ATOM     20  C   UNL     1       5.906   1.268  -8.732  1.00  0.00     0.242 CG0
ATOM     21  O   UNL     1       4.762   1.252  -9.180  1.00  0.00    -0.273 OA
ATOM     22  H   UNL     1       7.102   1.413  -7.049  1.00  0.00     0.164 HD
ATOM     23  G   UNL     1       7.160   0.913  -9.559  1.00  0.00     0.000 G0
ENDBRANCH  18  19
BRANCH  18  24
ATOM     24  C   UNL     1       4.634   0.790  -5.590  1.00  0.00     0.038 C 
BRANCH  24  25
ATOM     25  C   UNL     1       3.166   0.363  -5.801  1.00  0.00    -0.015 C 
ATOM     26  C   UNL     1       2.359   1.406  -6.576  1.00  0.00     0.007 C 
ATOM     27  C   UNL     1       2.505   0.104  -4.445  1.00  0.00     0.007 C 
ENDBRANCH  24  25
ENDBRANCH  18  24
ENDBRANCH  15  18
ENDBRANCH  13  14
BRANCH  13  28
ATOM     28  C   UNL     1       3.847   5.447  -3.671  1.00  0.00     0.327 C 
ATOM     29  O   UNL     1       2.873   5.199  -2.976  1.00  0.00    -0.250 OA
BRANCH  28  30
ATOM     30  O   UNL     1       3.805   6.451  -4.571  1.00  0.00    -0.480 OA
ATOM     31  H   UNL     1       4.097   6.036  -5.409  1.00  0.00     0.296 HD
ENDBRANCH  28  30
ENDBRANCH  13  28
ENDBRANCH  11  13
ENDBRANCH   8  11
ENDBRANCH   6   7
BRANCH   6  32
ATOM     32  C   UNL     1       3.255   2.977   1.633  1.00  0.00     0.037 C 
BRANCH  32  33
ATOM     33  C   UNL     1       2.989   1.676   2.402  1.00  0.00     0.026 C 
BRANCH  33  34
ATOM     34  C   UNL     1       1.593   1.640   3.027  1.00  0.00     0.146 C 
BRANCH  34  35
ATOM     35  N   UNL     1       0.747   0.757   2.237  1.00  0.00    -0.254 NA
ATOM     36  C   UNL     1       0.077  -0.153   2.840  1.00  0.00     0.185 C 
ATOM     37  N   UNL     1      -0.710  -0.970   2.122  1.00  0.00    -0.370 N 
ATOM     38  N   UNL     1       0.030  -0.438   4.154  1.00  0.00    -0.370 N 
ATOM     39  H   UNL     1      -0.737  -0.812   1.123  1.00  0.00     0.159 HD
ATOM     40  H   UNL     1      -1.392  -1.585   2.531  1.00  0.00     0.159 HD
ATOM     41  H   UNL     1      -0.428  -1.268   4.491  1.00  0.00     0.159 HD
ATOM     42  H   UNL     1       0.585   0.087   4.812  1.00  0.00     0.159 HD
ENDBRANCH  34  35
ENDBRANCH  33  34
ENDBRANCH  32  33
ENDBRANCH   6  32
ENDBRANCH   4   6
ENDBRANCH   1   2
BRANCH   1  43
ATOM     43  C   UNL     1      -0.690   1.511  -1.897  1.00  0.00     0.102 C 
ATOM     44  C   UNL     1      -1.074   0.633  -3.100  1.00  0.00     0.020 C 
BRANCH  43  45
ATOM     45  C   UNL     1      -1.874   1.895  -1.005  1.00  0.00     0.225 C 
ATOM     46  O   UNL     1      -2.991   2.152  -1.446  1.00  0.00    -0.275 OA
ATOM     47  N   UNL     1      -1.589   2.029   0.335  1.00  0.00    -0.342 N 
ATOM     48  H   UNL     1      -0.717   1.670   0.698  1.00  0.00     0.164 HD
BRANCH  47  49
ATOM     49  C   UNL     1      -2.631   2.357   1.312  1.00  0.00     0.192 C 
BRANCH  49  50
ATOM     50  C   UNL     1      -2.056   3.284   2.386  1.00  0.00     0.047 C 
BRANCH  50  51
ATOM     51  C   UNL     1      -2.284   4.766   2.057  1.00  0.00     0.103 C 
BRANCH  51  52
ATOM     52  C   UNL     1      -3.698   5.221   2.411  1.00  0.00     0.226 C 
ATOM     53  O   UNL     1      -3.907   5.782   3.489  1.00  0.00    -0.275 OA
BRANCH  52  54
ATOM     54  N   UNL     1      -4.683   5.032   1.424  1.00  0.00    -0.311 N 
ATOM     55  C   UNL     1      -4.408   5.337   0.014  1.00  0.00     0.153 C 
BRANCH  54  56
ATOM     56  C   UNL     1      -5.959   4.541   1.747  1.00  0.00     0.102 C 
ATOM     57  C   UNL     1      -6.219   3.290   2.160  1.00  0.00     0.043 C 
BRANCH  56  58
ATOM     58  C   UNL     1      -7.172   5.439   1.691  1.00  0.00     0.268 C 
ATOM     59  O   UNL     1      -8.161   5.188   1.016  1.00  0.00    -0.268 OA
ATOM     60  N   UNL     1      -7.077   6.528   2.525  1.00  0.00    -0.339 N 
ATOM     61  H   UNL     1      -6.219   6.670   3.044  1.00  0.00     0.164 HD
BRANCH  60  62
ATOM     62  C   UNL     1      -8.165   7.493   2.673  1.00  0.00     0.168 CG0
ATOM     63  C   UNL     1      -7.859   8.782   1.920  1.00  0.00     0.041 C 
ATOM     64  G   UNL     1      -8.402   7.779   4.170  1.00  0.00     0.000 G0
ENDBRANCH  60  62
ENDBRANCH  56  58
ENDBRANCH  54  56
ENDBRANCH  52  54
ENDBRANCH  51  52
ENDBRANCH  50  51
ENDBRANCH  49  50
BRANCH  49  65
ATOM     65  C   UNL     1      -3.199   1.095   1.980  1.00  0.00     0.326 C 
ATOM     66  O   UNL     1      -3.253   0.891   3.184  1.00  0.00    -0.250 OA
BRANCH  65  67
ATOM     67  O   UNL     1      -3.609   0.137   1.119  1.00  0.00    -0.480 OA
ATOM     68  H   UNL     1      -2.927   0.152   0.414  1.00  0.00     0.296 HD
ENDBRANCH  65  67
ENDBRANCH  49  65
ENDBRANCH  47  49
ENDBRANCH  43  45
ENDBRANCH   1  43
BRANCH   1  69
ATOM     69  C   UNL     1       0.411   3.042  -3.755  1.00  0.00    -0.001 C 
ATOM     70  C   UNL     1      -0.154   3.990  -4.523  1.00  0.00     0.001 C 
BRANCH  70  71
ATOM     71  C   UNL     1       0.126   4.262  -5.934  1.00  0.00    -0.055 C 
ATOM     72  C   UNL     1       1.209   5.012  -6.226  1.00  0.00    -0.018 C 
ATOM     73  C   UNL     1      -0.809   3.678  -6.961  1.00  0.00     0.044 C 
BRANCH  72  74
ATOM     74  C   UNL     1       1.741   5.448  -7.584  1.00  0.00     0.038 C 
ATOM     75  C   UNL     1       3.160   4.882  -7.716  1.00  0.00     0.015 C 
BRANCH  74  76
ATOM     76  C   UNL     1       1.645   6.999  -7.685  1.00  0.00     0.128 C 
BRANCH  76  77
ATOM     77  O   UNL     1       2.928   7.549  -8.029  1.00  0.00    -0.381 OA
ATOM     78  C   UNL     1       3.230   8.760  -7.349  1.00  0.00     0.195 C 
ENDBRANCH  76  77
BRANCH  76  79
ATOM     79  C   UNL     1       0.510   7.499  -8.614  1.00  0.00     0.068 C 
BRANCH  79  80
ATOM     80  C   UNL     1       0.279   6.761  -9.910  1.00  0.00    -0.045 A 
ATOM     81  C   UNL     1       1.157   6.910 -10.992  1.00  0.00     0.004 A 
ATOM     82  C   UNL     1      -0.841   5.930 -10.060  1.00  0.00     0.004 A 
ATOM     83  C   UNL     1       0.929   6.234 -12.192  1.00  0.00     0.000 A 
ATOM     84  C   UNL     1      -1.069   5.255 -11.262  1.00  0.00     0.000 A 
ATOM     85  C   UNL     1      -0.183   5.406 -12.326  1.00  0.00     0.000 A 
ENDBRANCH  79  80
ENDBRANCH  76  79
ENDBRANCH  74  76
ENDBRANCH  72  74
ENDBRANCH  70  71
ENDBRANCH   1  69
TORSDOF 17
ENDMDL
MODEL 47
REMARK VINA RESULT:    -6.097     12.235     19.405
REMARK INTER + INTRA:         -25.014
REMARK INTER:                 -19.571
REMARK INTRA:                  -5.443
REMARK UNBOUND:                -6.799
REMARK SMILES C=C1C(=O)N[C@H](C)C(=O)N[C@@H](CC(C)C)C(=O)N[C@@H](C(=O)O)[C@H](C)C(=O)N[C@@H](CCCN=C(N)N)C(=O)N[C@@H](/C=C/C(C)=C/[C@H](C)[C@H](Cc2ccccc2)OC)[C@H](C)C(=O)N[C@@H](C(=O)O)CCC(=O)N1C
REMARK SMILES IDX 39 1 38 2 37 3 36 4 28 6 27 7 25 8 26 9 23 11 24 12 19 13
REMARK SMILES IDX 18 14 16 15 17 16 11 18 10 19 8 20 9 21 12 24 13 25 14 26
REMARK SMILES IDX 15 27 20 28 21 29 22 30 29 32 30 33 31 34 32 35 33 36 34 37
REMARK SMILES IDX 35 38 57 43 58 44 59 45 60 46 61 47 62 49 66 50 67 51 68 52
REMARK SMILES IDX 69 53 70 54 71 55 2 56 1 57 3 58 4 59 5 60 6 62 7 63 63 65
REMARK SMILES IDX 64 66 65 67 40 69 41 70 42 71 44 72 43 73 45 74 46 75 47 76
REMARK SMILES IDX 55 77 56 78 48 79 49 80 50 81 54 82 51 83 53 84 52 85
REMARK H PARENT 38 5 27 10 18 17 10 22 22 31 34 39 34 40 35 41 35 42 61 48
REMARK H PARENT 5 61 65 68
REMARK Flexibility Score:  369.900
ROOT
ATOM      1  C   UNL     1       1.915   2.402   1.315  1.00  0.00     0.117 C 
ENDROOT
BRANCH   1   2
ATOM      2  N   UNL     1       0.859   3.260   0.774  1.00  0.00    -0.347 N 
ATOM      3  O   UNL     1      -0.263   1.656  -0.425  1.00  0.00    -0.273 OA
ATOM      4  C   UNL     1      -0.201   2.798   0.019  1.00  0.00     0.243 C 
ATOM      5  H   UNL     1       0.860   4.244   0.996  1.00  0.00     0.164 HD
BRANCH   4   6
ATOM      6  C   UNL     1      -1.225   3.898  -0.357  1.00  0.00     0.171 C 
BRANCH   6   7
ATOM      7  N   UNL     1      -1.474   3.896  -1.807  1.00  0.00    -0.344 N 
ATOM      8  C   UNL     1      -2.461   3.102  -2.349  1.00  0.00     0.226 C 
ATOM      9  O   UNL     1      -3.153   2.353  -1.670  1.00  0.00    -0.275 OA
ATOM     10  H   UNL     1      -0.878   4.451  -2.408  1.00  0.00     0.164 HD
BRANCH   8  11
ATOM     11  C   UNL     1      -2.631   3.252  -3.851  1.00  0.00     0.109 C 
ATOM     12  C   UNL     1      -4.061   2.896  -4.257  1.00  0.00     0.021 C 
BRANCH  11  13
ATOM     13  C   UNL     1      -2.162   4.654  -4.291  1.00  0.00     0.204 C 
BRANCH  13  14
ATOM     14  N   UNL     1      -1.357   4.607  -5.515  1.00  0.00    -0.340 N 
ATOM     15  C   UNL     1      -0.529   5.637  -5.907  1.00  0.00     0.243 C 
ATOM     16  O   UNL     1      -0.360   6.645  -5.222  1.00  0.00    -0.273 OA
ATOM     17  H   UNL     1      -1.565   3.874  -6.199  1.00  0.00     0.164 HD
BRANCH  15  18
ATOM     18  C   UNL     1       0.055   5.455  -7.329  1.00  0.00     0.171 C 
BRANCH  18  19
ATOM     19  N   UNL     1      -0.490   6.537  -8.147  1.00  0.00    -0.343 N 
ATOM     20  C   UNL     1      -1.116   6.294  -9.354  1.00  0.00     0.242 CG0
ATOM     21  O   UNL     1      -1.127   5.174  -9.859  1.00  0.00    -0.273 OA
ATOM     22  H   UNL     1      -0.402   7.495  -7.826  1.00  0.00     0.164 HD
ATOM     23  G   UNL     1      -1.695   7.551 -10.035  1.00  0.00     0.000 G0
ENDBRANCH  18  19
BRANCH  18  24
ATOM     24  C   UNL     1       1.587   5.494  -7.294  1.00  0.00     0.038 C 
BRANCH  24  25
ATOM     25  C   UNL     1       2.279   4.386  -8.117  1.00  0.00    -0.015 C 
ATOM     26  C   UNL     1       2.655   4.850  -9.524  1.00  0.00     0.007 C 
ATOM     27  C   UNL     1       1.363   3.163  -8.205  1.00  0.00     0.007 C 
ENDBRANCH  24  25
ENDBRANCH  18  24
ENDBRANCH  15  18
ENDBRANCH  13  14
BRANCH  13  28
ATOM     28  C   UNL     1      -3.319   5.625  -4.544  1.00  0.00     0.327 C 
ATOM     29  O   UNL     1      -3.820   5.886  -5.627  1.00  0.00    -0.250 OA
BRANCH  28  30
ATOM     30  O   UNL     1      -3.695   6.299  -3.438  1.00  0.00    -0.480 OA
ATOM     31  H   UNL     1      -2.951   6.172  -2.813  1.00  0.00     0.296 HD
ENDBRANCH  28  30
ENDBRANCH  13  28
ENDBRANCH  11  13
ENDBRANCH   8  11
ENDBRANCH   6   7
BRANCH   6  32
ATOM     32  C   UNL     1      -2.524   3.664   0.422  1.00  0.00     0.037 C 
BRANCH  32  33
ATOM     33  C   UNL     1      -2.887   4.857   1.317  1.00  0.00     0.026 C 
BRANCH  33  34
ATOM     34  C   UNL     1      -4.339   5.302   1.139  1.00  0.00     0.146 C 
BRANCH  34  35
ATOM     35  N   UNL     1      -5.031   4.327   0.308  1.00  0.00    -0.254 NA
ATOM     36  C   UNL     1      -6.024   3.690   0.807  1.00  0.00     0.185 C 
ATOM     37  N   UNL     1      -6.672   2.792   0.048  1.00  0.00    -0.370 N 
ATOM     38  N   UNL     1      -6.554   3.781   2.039  1.00  0.00    -0.370 N 
ATOM     39  H   UNL     1      -6.338   2.673  -0.900  1.00  0.00     0.159 HD
ATOM     40  H   UNL     1      -7.555   2.384   0.302  1.00  0.00     0.159 HD
ATOM     41  H   UNL     1      -7.248   3.126   2.358  1.00  0.00     0.159 HD
ATOM     42  H   UNL     1      -6.157   4.407   2.723  1.00  0.00     0.159 HD
ENDBRANCH  34  35
ENDBRANCH  33  34
ENDBRANCH  32  33
ENDBRANCH   6  32
ENDBRANCH   4   6
ENDBRANCH   1   2
BRANCH   1  43
ATOM     43  C   UNL     1       2.105   2.742   2.822  1.00  0.00     0.102 C 
ATOM     44  C   UNL     1       3.430   2.222   3.404  1.00  0.00     0.020 C 
BRANCH  43  45
ATOM     45  C   UNL     1       0.870   2.343   3.636  1.00  0.00     0.225 C 
ATOM     46  O   UNL     1      -0.275   2.419   3.198  1.00  0.00    -0.275 OA
ATOM     47  N   UNL     1       1.113   1.976   4.940  1.00  0.00    -0.342 N 
ATOM     48  H   UNL     1       2.058   1.774   5.235  1.00  0.00     0.164 HD
BRANCH  47  49
ATOM     49  C   UNL     1       0.031   1.536   5.826  1.00  0.00     0.192 C 
BRANCH  49  50
ATOM     50  C   UNL     1      -0.336   2.667   6.790  1.00  0.00     0.047 C 
BRANCH  50  51
ATOM     51  C   UNL     1      -1.852   2.898   6.866  1.00  0.00     0.103 C 
BRANCH  51  52
ATOM     52  C   UNL     1      -2.367   3.722   5.687  1.00  0.00     0.226 C 
ATOM     53  O   UNL     1      -1.650   4.595   5.194  1.00  0.00    -0.275 OA
BRANCH  52  54
ATOM     54  N   UNL     1      -3.631   3.369   5.180  1.00  0.00    -0.311 N 
ATOM     55  C   UNL     1      -3.758   2.477   4.020  1.00  0.00     0.153 C 
BRANCH  54  56
ATOM     56  C   UNL     1      -4.815   3.849   5.765  1.00  0.00     0.102 C 
ATOM     57  C   UNL     1      -5.479   4.945   5.365  1.00  0.00     0.043 C 
BRANCH  56  58
ATOM     58  C   UNL     1      -5.472   3.107   6.904  1.00  0.00     0.268 C 
ATOM     59  O   UNL     1      -5.254   1.928   7.151  1.00  0.00    -0.268 OA
ATOM     60  N   UNL     1      -6.287   3.906   7.671  1.00  0.00    -0.339 N 
ATOM     61  H   UNL     1      -6.423   4.871   7.393  1.00  0.00     0.164 HD
BRANCH  60  62
ATOM     62  C   UNL     1      -6.972   3.405   8.861  1.00  0.00     0.168 CG0
ATOM     63  C   UNL     1      -7.589   4.548   9.659  1.00  0.00     0.041 C 
ATOM     64  G   UNL     1      -5.981   2.605   9.731  1.00  0.00     0.000 G0
ENDBRANCH  60  62
ENDBRANCH  56  58
ENDBRANCH  54  56
ENDBRANCH  52  54
ENDBRANCH  51  52
ENDBRANCH  50  51
ENDBRANCH  49  50
BRANCH  49  65
ATOM     65  C   UNL     1       0.431   0.290   6.632  1.00  0.00     0.326 C 
ATOM     66  O   UNL     1       0.430  -0.858   6.212  1.00  0.00    -0.250 OA
BRANCH  65  67
ATOM     67  O   UNL     1       0.748   0.532   7.923  1.00  0.00    -0.480 OA
ATOM     68  H   UNL     1       1.056  -0.340   8.252  1.00  0.00     0.296 HD
ENDBRANCH  65  67
ENDBRANCH  49  65
ENDBRANCH  47  49
ENDBRANCH  43  45
ENDBRANCH   1  43
BRANCH   1  69
ATOM     69  C   UNL     1       3.099   2.544   0.377  1.00  0.00    -0.001 C 
ATOM     70  C   UNL     1       3.734   3.676   0.028  1.00  0.00     0.001 C 
BRANCH  70  71
ATOM     71  C   UNL     1       4.890   3.798  -0.863  1.00  0.00    -0.055 C 
ATOM     72  C   UNL     1       5.116   2.796  -1.738  1.00  0.00    -0.018 C 
ATOM     73  C   UNL     1       5.740   5.036  -0.745  1.00  0.00     0.044 C 
BRANCH  72  74
ATOM     74  C   UNL     1       6.223   2.652  -2.773  1.00  0.00     0.038 C 
ATOM     75  C   UNL     1       7.558   2.748  -2.024  1.00  0.00     0.015 C 
BRANCH  74  76
ATOM     76  C   UNL     1       6.016   3.728  -3.880  1.00  0.00     0.128 C 
BRANCH  76  77
ATOM     77  O   UNL     1       6.835   3.421  -5.021  1.00  0.00    -0.381 OA
ATOM     78  C   UNL     1       7.904   4.336  -5.219  1.00  0.00     0.195 C 
ENDBRANCH  76  77
BRANCH  76  79
ATOM     79  C   UNL     1       4.532   3.970  -4.254  1.00  0.00     0.068 C 
BRANCH  79  80
ATOM     80  C   UNL     1       4.098   5.386  -4.544  1.00  0.00    -0.045 A 
ATOM     81  C   UNL     1       3.086   5.999  -3.794  1.00  0.00     0.004 A 
ATOM     82  C   UNL     1       4.686   6.104  -5.596  1.00  0.00     0.004 A 
ATOM     83  C   UNL     1       2.680   7.304  -4.079  1.00  0.00     0.000 A 
ATOM     84  C   UNL     1       4.279   7.409  -5.881  1.00  0.00     0.000 A 
ATOM     85  C   UNL     1       3.278   8.010  -5.121  1.00  0.00     0.000 A 
ENDBRANCH  79  80
ENDBRANCH  76  79
ENDBRANCH  74  76
ENDBRANCH  72  74
ENDBRANCH  70  71
ENDBRANCH   1  69
TORSDOF 17
ENDMDL
MODEL 48
REMARK VINA RESULT:    -6.090      9.853     14.012
REMARK INTER + INTRA:         -24.993
REMARK INTER:                 -17.851
REMARK INTRA:                  -7.142
REMARK UNBOUND:                -6.799
REMARK SMILES C=C1C(=O)N[C@H](C)C(=O)N[C@@H](CC(C)C)C(=O)N[C@@H](C(=O)O)[C@H](C)C(=O)N[C@@H](CCCN=C(N)N)C(=O)N[C@@H](/C=C/C(C)=C/[C@H](C)[C@H](Cc2ccccc2)OC)[C@H](C)C(=O)N[C@@H](C(=O)O)CCC(=O)N1C
REMARK SMILES IDX 39 1 38 2 37 3 36 4 28 6 27 7 25 8 26 9 23 11 24 12 19 13
REMARK SMILES IDX 18 14 16 15 17 16 11 18 10 19 8 20 9 21 12 24 13 25 14 26
REMARK SMILES IDX 15 27 20 28 21 29 22 30 29 32 30 33 31 34 32 35 33 36 34 37
REMARK SMILES IDX 35 38 57 43 58 44 59 45 60 46 61 47 62 49 66 50 67 51 68 52
REMARK SMILES IDX 69 53 70 54 71 55 2 56 1 57 3 58 4 59 5 60 6 62 7 63 63 65
REMARK SMILES IDX 64 66 65 67 40 69 41 70 42 71 44 72 43 73 45 74 46 75 47 76
REMARK SMILES IDX 55 77 56 78 48 79 49 80 50 81 54 82 51 83 53 84 52 85
REMARK H PARENT 38 5 27 10 18 17 10 22 22 31 34 39 34 40 35 41 35 42 61 48
REMARK H PARENT 5 61 65 68
REMARK Flexibility Score:  369.900
ROOT
ATOM      1  C   UNL     1     -12.072   3.425   2.550  1.00  0.00     0.117 C 
ENDROOT
BRANCH   1   2
ATOM      2  N   UNL     1     -10.623   3.601   2.661  1.00  0.00    -0.347 N 
ATOM      3  O   UNL     1     -10.148   3.708   0.418  1.00  0.00    -0.273 OA
ATOM      4  C   UNL     1      -9.786   3.821   1.584  1.00  0.00     0.243 C 
ATOM      5  H   UNL     1     -10.196   3.616   3.574  1.00  0.00     0.164 HD
BRANCH   4   6
ATOM      6  C   UNL     1      -8.308   4.062   1.983  1.00  0.00     0.171 C 
BRANCH   6   7
ATOM      7  N   UNL     1      -8.105   3.766   3.410  1.00  0.00    -0.344 N 
ATOM      8  C   UNL     1      -7.190   4.480   4.153  1.00  0.00     0.226 C 
ATOM      9  O   UNL     1      -6.495   5.366   3.670  1.00  0.00    -0.275 OA
ATOM     10  H   UNL     1      -8.613   2.997   3.828  1.00  0.00     0.164 HD
BRANCH   8  11
ATOM     11  C   UNL     1      -7.137   4.093   5.620  1.00  0.00     0.109 C 
ATOM     12  C   UNL     1      -8.486   3.527   6.064  1.00  0.00     0.021 C 
BRANCH  11  13
ATOM     13  C   UNL     1      -5.931   3.166   5.872  1.00  0.00     0.204 C 
BRANCH  13  14
ATOM     14  N   UNL     1      -4.668   3.776   5.443  1.00  0.00    -0.340 N 
ATOM     15  C   UNL     1      -3.667   3.063   4.821  1.00  0.00     0.243 C 
ATOM     16  O   UNL     1      -3.787   1.875   4.525  1.00  0.00    -0.273 OA
ATOM     17  H   UNL     1      -4.445   4.712   5.791  1.00  0.00     0.164 HD
BRANCH  15  18
ATOM     18  C   UNL     1      -2.352   3.863   4.651  1.00  0.00     0.171 C 
BRANCH  18  19
ATOM     19  N   UNL     1      -2.672   5.024   3.824  1.00  0.00    -0.343 N 
ATOM     20  C   UNL     1      -2.434   5.038   2.463  1.00  0.00     0.242 CG0
ATOM     21  O   UNL     1      -1.820   4.130   1.908  1.00  0.00    -0.273 OA
ATOM     22  H   UNL     1      -3.076   5.847   4.257  1.00  0.00     0.164 HD
ATOM     23  G   UNL     1      -2.910   6.319   1.747  1.00  0.00     0.000 G0
ENDBRANCH  18  19
BRANCH  18  24
ATOM     24  C   UNL     1      -1.793   4.282   6.016  1.00  0.00     0.038 C 
BRANCH  24  25
ATOM     25  C   UNL     1      -0.395   3.715   6.342  1.00  0.00    -0.015 C 
ATOM     26  C   UNL     1       0.596   3.907   5.193  1.00  0.00     0.007 C 
ATOM     27  C   UNL     1      -0.509   2.226   6.681  1.00  0.00     0.007 C 
ENDBRANCH  24  25
ENDBRANCH  18  24
ENDBRANCH  15  18
ENDBRANCH  13  14
BRANCH  13  28
ATOM     28  C   UNL     1      -5.769   2.772   7.343  1.00  0.00     0.327 C 
ATOM     29  O   UNL     1      -5.523   3.528   8.271  1.00  0.00    -0.250 OA
BRANCH  28  30
ATOM     30  O   UNL     1      -5.808   1.439   7.541  1.00  0.00    -0.480 OA
ATOM     31  H   UNL     1      -6.498   1.316   8.225  1.00  0.00     0.296 HD
ENDBRANCH  28  30
ENDBRANCH  13  28
ENDBRANCH  11  13
ENDBRANCH   8  11
ENDBRANCH   6   7
BRANCH   6  32
ATOM     32  C   UNL     1      -7.402   3.189   1.108  1.00  0.00     0.037 C 
BRANCH  32  33
ATOM     33  C   UNL     1      -6.334   4.013   0.376  1.00  0.00     0.026 C 
BRANCH  33  34
ATOM     34  C   UNL     1      -4.984   3.297   0.312  1.00  0.00     0.146 C 
BRANCH  34  35
ATOM     35  N   UNL     1      -5.046   2.103   1.144  1.00  0.00    -0.254 NA
ATOM     36  C   UNL     1      -4.025   1.331   1.188  1.00  0.00     0.185 C 
ATOM     37  N   UNL     1      -4.069   0.231   1.955  1.00  0.00    -0.370 N 
ATOM     38  N   UNL     1      -2.846   1.453   0.553  1.00  0.00    -0.370 N 
ATOM     39  H   UNL     1      -4.923   0.074   2.475  1.00  0.00     0.159 HD
ATOM     40  H   UNL     1      -3.261  -0.325   2.178  1.00  0.00     0.159 HD
ATOM     41  H   UNL     1      -2.171   0.706   0.559  1.00  0.00     0.159 HD
ATOM     42  H   UNL     1      -2.677   2.226  -0.071  1.00  0.00     0.159 HD
ENDBRANCH  34  35
ENDBRANCH  33  34
ENDBRANCH  32  33
ENDBRANCH   6  32
ENDBRANCH   4   6
ENDBRANCH   1   2
BRANCH   1  43
ATOM     43  C   UNL     1     -12.771   4.524   3.401  1.00  0.00     0.102 C 
ATOM     44  C   UNL     1     -11.884   5.083   4.526  1.00  0.00     0.020 C 
BRANCH  43  45
ATOM     45  C   UNL     1     -14.152   4.058   3.872  1.00  0.00     0.225 C 
ATOM     46  O   UNL     1     -14.370   3.645   5.008  1.00  0.00    -0.275 OA
ATOM     47  N   UNL     1     -15.133   4.042   2.907  1.00  0.00    -0.342 N 
ATOM     48  H   UNL     1     -14.981   4.522   2.031  1.00  0.00     0.164 HD
BRANCH  47  49
ATOM     49  C   UNL     1     -16.511   3.654   3.221  1.00  0.00     0.192 C 
BRANCH  49  50
ATOM     50  C   UNL     1     -16.732   2.187   2.842  1.00  0.00     0.047 C 
BRANCH  50  51
ATOM     51  C   UNL     1     -16.663   1.962   1.325  1.00  0.00     0.103 C 
BRANCH  51  52
ATOM     52  C   UNL     1     -17.922   1.285   0.788  1.00  0.00     0.226 C 
ATOM     53  O   UNL     1     -18.885   1.107   1.535  1.00  0.00    -0.275 OA
BRANCH  52  54
ATOM     54  N   UNL     1     -17.927   0.969  -0.584  1.00  0.00    -0.311 N 
ATOM     55  C   UNL     1     -17.941   2.026  -1.603  1.00  0.00     0.153 C 
BRANCH  54  56
ATOM     56  C   UNL     1     -17.913  -0.364  -1.028  1.00  0.00     0.102 C 
ATOM     57  C   UNL     1     -16.818  -1.138  -1.099  1.00  0.00     0.043 C 
BRANCH  56  58
ATOM     58  C   UNL     1     -19.192  -1.060  -1.431  1.00  0.00     0.268 C 
ATOM     59  O   UNL     1     -19.449  -1.372  -2.586  1.00  0.00    -0.268 OA
ATOM     60  N   UNL     1     -20.001  -1.363  -0.362  1.00  0.00    -0.339 N 
ATOM     61  H   UNL     1     -19.721  -1.060   0.563  1.00  0.00     0.164 HD
BRANCH  60  62
ATOM     62  C   UNL     1     -21.258  -2.093  -0.520  1.00  0.00     0.168 CG0
ATOM     63  C   UNL     1     -21.047  -3.592  -0.346  1.00  0.00     0.041 C 
ATOM     64  G   UNL     1     -21.865  -1.784  -1.904  1.00  0.00     0.000 G0
ENDBRANCH  60  62
ENDBRANCH  56  58
ENDBRANCH  54  56
ENDBRANCH  52  54
ENDBRANCH  51  52
ENDBRANCH  50  51
ENDBRANCH  49  50
BRANCH  49  65
ATOM     65  C   UNL     1     -17.531   4.531   2.478  1.00  0.00     0.326 C 
ATOM     66  O   UNL     1     -18.743   4.496   2.631  1.00  0.00    -0.250 OA
BRANCH  65  67
ATOM     67  O   UNL     1     -16.995   5.354   1.550  1.00  0.00    -0.480 OA
ATOM     68  H   UNL     1     -17.684   6.042   1.425  1.00  0.00     0.296 HD
ENDBRANCH  65  67
ENDBRANCH  49  65
ENDBRANCH  47  49
ENDBRANCH  43  45
ENDBRANCH   1  43
BRANCH   1  69
ATOM     69  C   UNL     1     -12.346   1.966   2.866  1.00  0.00    -0.001 C 
ATOM     70  C   UNL     1     -12.862   1.035   2.045  1.00  0.00     0.001 C 
BRANCH  70  71
ATOM     71  C   UNL     1     -13.103  -0.376   2.355  1.00  0.00    -0.055 C 
ATOM     72  C   UNL     1     -12.057  -1.225   2.267  1.00  0.00    -0.018 C 
ATOM     73  C   UNL     1     -14.498  -0.778   2.758  1.00  0.00     0.044 C 
BRANCH  72  74
ATOM     74  C   UNL     1     -12.009  -2.723   2.530  1.00  0.00     0.038 C 
ATOM     75  C   UNL     1     -10.899  -2.967   3.560  1.00  0.00     0.015 C 
BRANCH  74  76
ATOM     76  C   UNL     1     -11.815  -3.464   1.174  1.00  0.00     0.128 C 
BRANCH  76  77
ATOM     77  O   UNL     1     -11.718  -4.880   1.398  1.00  0.00    -0.381 OA
ATOM     78  C   UNL     1     -10.781  -5.530   0.549  1.00  0.00     0.195 C 
ENDBRANCH  76  77
BRANCH  76  79
ATOM     79  C   UNL     1     -12.870  -3.097   0.100  1.00  0.00     0.068 C 
BRANCH  79  80
ATOM     80  C   UNL     1     -12.378  -2.750  -1.285  1.00  0.00    -0.045 A 
ATOM     81  C   UNL     1     -13.087  -3.153  -2.424  1.00  0.00     0.004 A 
ATOM     82  C   UNL     1     -11.180  -2.039  -1.452  1.00  0.00     0.004 A 
ATOM     83  C   UNL     1     -12.618  -2.841  -3.702  1.00  0.00     0.000 A 
ATOM     84  C   UNL     1     -10.712  -1.727  -2.731  1.00  0.00     0.000 A 
ATOM     85  C   UNL     1     -11.431  -2.127  -3.855  1.00  0.00     0.000 A 
ENDBRANCH  79  80
ENDBRANCH  76  79
ENDBRANCH  74  76
ENDBRANCH  72  74
ENDBRANCH  70  71
ENDBRANCH   1  69
TORSDOF 17
ENDMDL
MODEL 49
REMARK VINA RESULT:    -6.053      8.641     12.497
REMARK INTER + INTRA:         -24.882
REMARK INTER:                 -17.458
REMARK INTRA:                  -7.424
REMARK UNBOUND:                -6.799
REMARK SMILES C=C1C(=O)N[C@H](C)C(=O)N[C@@H](CC(C)C)C(=O)N[C@@H](C(=O)O)[C@H](C)C(=O)N[C@@H](CCCN=C(N)N)C(=O)N[C@@H](/C=C/C(C)=C/[C@H](C)[C@H](Cc2ccccc2)OC)[C@H](C)C(=O)N[C@@H](C(=O)O)CCC(=O)N1C
REMARK SMILES IDX 39 1 38 2 37 3 36 4 28 6 27 7 25 8 26 9 23 11 24 12 19 13
REMARK SMILES IDX 18 14 16 15 17 16 11 18 10 19 8 20 9 21 12 24 13 25 14 26
REMARK SMILES IDX 15 27 20 28 21 29 22 30 29 32 30 33 31 34 32 35 33 36 34 37
REMARK SMILES IDX 35 38 57 43 58 44 59 45 60 46 61 47 62 49 66 50 67 51 68 52
REMARK SMILES IDX 69 53 70 54 71 55 2 56 1 57 3 58 4 59 5 60 6 62 7 63 63 65
REMARK SMILES IDX 64 66 65 67 40 69 41 70 42 71 44 72 43 73 45 74 46 75 47 76
REMARK SMILES IDX 55 77 56 78 48 79 49 80 50 81 54 82 51 83 53 84 52 85
REMARK H PARENT 38 5 27 10 18 17 10 22 22 31 34 39 34 40 35 41 35 42 61 48
REMARK H PARENT 5 61 65 68
REMARK Flexibility Score:  369.900
ROOT
ATOM      1  C   UNL     1     -15.610   2.061   2.087  1.00  0.00     0.117 C 
ENDROOT
BRANCH   1   2
ATOM      2  N   UNL     1     -14.713   3.069   2.652  1.00  0.00    -0.347 N 
ATOM      3  O   UNL     1     -15.842   4.933   1.929  1.00  0.00    -0.273 OA
ATOM      4  C   UNL     1     -14.951   4.429   2.606  1.00  0.00     0.243 C 
ATOM      5  H   UNL     1     -13.890   2.773   3.154  1.00  0.00     0.164 HD
BRANCH   4   6
ATOM      6  C   UNL     1     -13.890   5.274   3.355  1.00  0.00     0.171 C 
BRANCH   6   7
ATOM      7  N   UNL     1     -12.857   5.749   2.420  1.00  0.00    -0.344 N 
ATOM      8  C   UNL     1     -11.737   4.987   2.164  1.00  0.00     0.226 C 
ATOM      9  O   UNL     1     -11.534   3.908   2.708  1.00  0.00    -0.275 OA
ATOM     10  H   UNL     1     -12.956   6.666   2.003  1.00  0.00     0.164 HD
BRANCH   8  11
ATOM     11  C   UNL     1     -10.793   5.588   1.137  1.00  0.00     0.109 C 
ATOM     12  C   UNL     1     -11.571   6.471   0.161  1.00  0.00     0.021 C 
BRANCH  11  13
ATOM     13  C   UNL     1      -9.621   6.289   1.853  1.00  0.00     0.204 C 
BRANCH  13  14
ATOM     14  N   UNL     1      -8.577   5.342   2.258  1.00  0.00    -0.340 N 
ATOM     15  C   UNL     1      -8.323   5.028   3.576  1.00  0.00     0.243 C 
ATOM     16  O   UNL     1      -8.996   5.474   4.503  1.00  0.00    -0.273 OA
ATOM     17  H   UNL     1      -7.889   5.056   1.557  1.00  0.00     0.164 HD
BRANCH  15  18
ATOM     18  C   UNL     1      -7.047   4.173   3.773  1.00  0.00     0.171 C 
BRANCH  18  19
ATOM     19  N   UNL     1      -5.983   5.094   4.169  1.00  0.00    -0.343 N 
ATOM     20  C   UNL     1      -5.224   5.775   3.236  1.00  0.00     0.242 CG0
ATOM     21  O   UNL     1      -5.318   5.539   2.034  1.00  0.00    -0.273 OA
ATOM     22  H   UNL     1      -5.789   5.236   5.154  1.00  0.00     0.164 HD
ATOM     23  G   UNL     1      -4.204   6.761   3.843  1.00  0.00     0.000 G0
ENDBRANCH  18  19
BRANCH  18  24
ATOM     24  C   UNL     1      -7.278   3.092   4.835  1.00  0.00     0.038 C 
BRANCH  24  25
ATOM     25  C   UNL     1      -6.548   1.758   4.567  1.00  0.00    -0.015 C 
ATOM     26  C   UNL     1      -6.085   1.626   3.116  1.00  0.00     0.007 C 
ATOM     27  C   UNL     1      -7.467   0.587   4.923  1.00  0.00     0.007 C 
ENDBRANCH  24  25
ENDBRANCH  18  24
ENDBRANCH  15  18
ENDBRANCH  13  14
BRANCH  13  28
ATOM     28  C   UNL     1      -8.949   7.367   0.997  1.00  0.00     0.327 C 
ATOM     29  O   UNL     1      -8.206   7.176   0.047  1.00  0.00    -0.250 OA
BRANCH  28  30
ATOM     30  O   UNL     1      -9.157   8.616   1.461  1.00  0.00    -0.480 OA
ATOM     31  H   UNL     1      -9.340   9.144   0.656  1.00  0.00     0.296 HD
ENDBRANCH  28  30
ENDBRANCH  13  28
ENDBRANCH  11  13
ENDBRANCH   8  11
ENDBRANCH   6   7
BRANCH   6  32
ATOM     32  C   UNL     1     -14.582   6.452   4.049  1.00  0.00     0.037 C 
BRANCH  32  33
ATOM     33  C   UNL     1     -15.518   5.991   5.175  1.00  0.00     0.026 C 
BRANCH  33  34
ATOM     34  C   UNL     1     -16.876   6.694   5.132  1.00  0.00     0.146 C 
BRANCH  34  35
ATOM     35  N   UNL     1     -17.923   5.706   5.348  1.00  0.00    -0.254 NA
ATOM     36  C   UNL     1     -18.695   5.404   4.371  1.00  0.00     0.185 C 
ATOM     37  N   UNL     1     -19.660   4.491   4.557  1.00  0.00    -0.370 N 
ATOM     38  N   UNL     1     -18.692   5.883   3.114  1.00  0.00    -0.370 N 
ATOM     39  H   UNL     1     -19.720   4.075   5.478  1.00  0.00     0.159 HD
ATOM     40  H   UNL     1     -20.186   4.077   3.807  1.00  0.00     0.159 HD
ATOM     41  H   UNL     1     -19.440   5.670   2.474  1.00  0.00     0.159 HD
ATOM     42  H   UNL     1     -18.029   6.590   2.836  1.00  0.00     0.159 HD
ENDBRANCH  34  35
ENDBRANCH  33  34
ENDBRANCH  32  33
ENDBRANCH   6  32
ENDBRANCH   4   6
ENDBRANCH   1   2
BRANCH   1  43
ATOM     43  C   UNL     1     -16.845   1.916   3.023  1.00  0.00     0.102 C 
ATOM     44  C   UNL     1     -16.819   0.636   3.876  1.00  0.00     0.020 C 
BRANCH  43  45
ATOM     45  C   UNL     1     -18.150   2.120   2.248  1.00  0.00     0.225 C 
ATOM     46  O   UNL     1     -19.259   1.928   2.739  1.00  0.00    -0.275 OA
ATOM     47  N   UNL     1     -18.004   2.446   0.919  1.00  0.00    -0.342 N 
ATOM     48  H   UNL     1     -17.104   2.746   0.573  1.00  0.00     0.164 HD
BRANCH  47  49
ATOM     49  C   UNL     1     -19.165   2.706   0.062  1.00  0.00     0.192 C 
BRANCH  49  50
ATOM     50  C   UNL     1     -18.865   2.244  -1.366  1.00  0.00     0.047 C 
BRANCH  50  51
ATOM     51  C   UNL     1     -20.067   1.546  -2.017  1.00  0.00     0.103 C 
BRANCH  51  52
ATOM     52  C   UNL     1     -20.325   2.052  -3.434  1.00  0.00     0.226 C 
ATOM     53  O   UNL     1     -21.460   2.406  -3.759  1.00  0.00    -0.275 OA
BRANCH  52  54
ATOM     54  N   UNL     1     -19.203   2.152  -4.278  1.00  0.00    -0.311 N 
ATOM     55  C   UNL     1     -18.522   3.438  -4.479  1.00  0.00     0.153 C 
BRANCH  54  56
ATOM     56  C   UNL     1     -18.691   1.032  -4.952  1.00  0.00     0.102 C 
ATOM     57  C   UNL     1     -18.318  -0.116  -4.363  1.00  0.00     0.043 C 
BRANCH  56  58
ATOM     58  C   UNL     1     -18.561   1.025  -6.457  1.00  0.00     0.268 C 
ATOM     59  O   UNL     1     -17.521   0.747  -7.039  1.00  0.00    -0.268 OA
ATOM     60  N   UNL     1     -19.744   1.298  -7.103  1.00  0.00    -0.339 N 
ATOM     61  H   UNL     1     -20.559   1.529  -6.548  1.00  0.00     0.164 HD
BRANCH  60  62
ATOM     62  C   UNL     1     -19.858   1.281  -8.560  1.00  0.00     0.168 CG0
ATOM     63  C   UNL     1     -20.377   2.615  -9.083  1.00  0.00     0.041 C 
ATOM     64  G   UNL     1     -20.784   0.127  -8.993  1.00  0.00     0.000 G0
ENDBRANCH  60  62
ENDBRANCH  56  58
ENDBRANCH  54  56
ENDBRANCH  52  54
ENDBRANCH  51  52
ENDBRANCH  50  51
ENDBRANCH  49  50
BRANCH  49  65
ATOM     65  C   UNL     1     -19.536   4.198   0.047  1.00  0.00     0.326 C 
ATOM     66  O   UNL     1     -20.608   4.660  -0.314  1.00  0.00    -0.250 OA
BRANCH  65  67
ATOM     67  O   UNL     1     -18.539   5.030   0.423  1.00  0.00    -0.480 OA
ATOM     68  H   UNL     1     -17.760   4.438   0.499  1.00  0.00     0.296 HD
ENDBRANCH  65  67
ENDBRANCH  49  65
ENDBRANCH  47  49
ENDBRANCH  43  45
ENDBRANCH   1  43
BRANCH   1  69
ATOM     69  C   UNL     1     -14.753   0.839   1.809  1.00  0.00    -0.001 C 
ATOM     70  C   UNL     1     -13.478   0.633   2.184  1.00  0.00     0.001 C 
BRANCH  70  71
ATOM     71  C   UNL     1     -12.668  -0.559   1.928  1.00  0.00    -0.055 C 
ATOM     72  C   UNL     1     -12.614  -1.021   0.661  1.00  0.00    -0.018 C 
ATOM     73  C   UNL     1     -11.945  -1.181   3.094  1.00  0.00     0.044 C 
BRANCH  72  74
ATOM     74  C   UNL     1     -11.861  -2.222   0.105  1.00  0.00     0.038 C 
ATOM     75  C   UNL     1     -11.018  -1.721  -1.075  1.00  0.00     0.015 C 
BRANCH  74  76
ATOM     76  C   UNL     1     -12.889  -3.335  -0.254  1.00  0.00     0.128 C 
BRANCH  76  77
ATOM     77  O   UNL     1     -13.335  -3.995   0.943  1.00  0.00    -0.381 OA
ATOM     78  C   UNL     1     -12.293  -4.640   1.662  1.00  0.00     0.195 C 
ENDBRANCH  76  77
BRANCH  76  79
ATOM     79  C   UNL     1     -14.060  -2.848  -1.143  1.00  0.00     0.068 C 
BRANCH  79  80
ATOM     80  C   UNL     1     -15.301  -2.330  -0.456  1.00  0.00    -0.045 A 
ATOM     81  C   UNL     1     -16.129  -1.385  -1.077  1.00  0.00     0.004 A 
ATOM     82  C   UNL     1     -15.630  -2.768   0.836  1.00  0.00     0.004 A 
ATOM     83  C   UNL     1     -17.267  -0.900  -0.429  1.00  0.00     0.000 A 
ATOM     84  C   UNL     1     -16.767  -2.282   1.483  1.00  0.00     0.000 A 
ATOM     85  C   UNL     1     -17.586  -1.350   0.850  1.00  0.00     0.000 A 
ENDBRANCH  79  80
ENDBRANCH  76  79
ENDBRANCH  74  76
ENDBRANCH  72  74
ENDBRANCH  70  71
ENDBRANCH   1  69
TORSDOF 17
ENDMDL
MODEL 50
REMARK VINA RESULT:    -6.016      8.926     14.940
REMARK INTER + INTRA:         -24.772
REMARK INTER:                 -15.830
REMARK INTRA:                  -8.942
REMARK UNBOUND:                -6.799
REMARK SMILES C=C1C(=O)N[C@H](C)C(=O)N[C@@H](CC(C)C)C(=O)N[C@@H](C(=O)O)[C@H](C)C(=O)N[C@@H](CCCN=C(N)N)C(=O)N[C@@H](/C=C/C(C)=C/[C@H](C)[C@H](Cc2ccccc2)OC)[C@H](C)C(=O)N[C@@H](C(=O)O)CCC(=O)N1C
REMARK SMILES IDX 39 1 38 2 37 3 36 4 28 6 27 7 25 8 26 9 23 11 24 12 19 13
REMARK SMILES IDX 18 14 16 15 17 16 11 18 10 19 8 20 9 21 12 24 13 25 14 26
REMARK SMILES IDX 15 27 20 28 21 29 22 30 29 32 30 33 31 34 32 35 33 36 34 37
REMARK SMILES IDX 35 38 57 43 58 44 59 45 60 46 61 47 62 49 66 50 67 51 68 52
REMARK SMILES IDX 69 53 70 54 71 55 2 56 1 57 3 58 4 59 5 60 6 62 7 63 63 65
REMARK SMILES IDX 64 66 65 67 40 69 41 70 42 71 44 72 43 73 45 74 46 75 47 76
REMARK SMILES IDX 55 77 56 78 48 79 49 80 50 81 54 82 51 83 53 84 52 85
REMARK H PARENT 38 5 27 10 18 17 10 22 22 31 34 39 34 40 35 41 35 42 61 48
REMARK H PARENT 5 61 65 68
REMARK Flexibility Score:  369.900
ROOT
ATOM      1  C   UNL     1      -3.934  -5.847  -5.563  1.00  0.00     0.117 C 
ENDROOT
BRANCH   1   2
ATOM      2  N   UNL     1      -4.719  -6.812  -4.791  1.00  0.00    -0.347 N 
ATOM      3  O   UNL     1      -5.751  -5.322  -3.383  1.00  0.00    -0.273 OA
ATOM      4  C   UNL     1      -5.637  -6.462  -3.820  1.00  0.00     0.243 C 
ATOM      5  H   UNL     1      -4.635  -7.796  -4.999  1.00  0.00     0.164 HD
BRANCH   4   6
ATOM      6  C   UNL     1      -6.395  -7.671  -3.215  1.00  0.00     0.171 C 
BRANCH   6   7
ATOM      7  N   UNL     1      -7.701  -7.246  -2.686  1.00  0.00    -0.344 N 
ATOM      8  C   UNL     1      -7.844  -6.907  -1.358  1.00  0.00     0.226 C 
ATOM      9  O   UNL     1      -6.917  -6.962  -0.559  1.00  0.00    -0.275 OA
ATOM     10  H   UNL     1      -8.506  -7.253  -3.300  1.00  0.00     0.164 HD
BRANCH   8  11
ATOM     11  C   UNL     1      -9.238  -6.438  -0.979  1.00  0.00     0.109 C 
ATOM     12  C   UNL     1      -9.954  -5.872  -2.205  1.00  0.00     0.021 C 
BRANCH  11  13
ATOM     13  C   UNL     1      -9.991  -7.572  -0.255  1.00  0.00     0.204 C 
BRANCH  13  14
ATOM     14  N   UNL     1      -9.103  -8.682   0.105  1.00  0.00    -0.340 N 
ATOM     15  C   UNL     1      -9.385  -9.996  -0.203  1.00  0.00     0.243 C 
ATOM     16  O   UNL     1     -10.374 -10.323  -0.856  1.00  0.00    -0.273 OA
ATOM     17  H   UNL     1      -8.350  -8.498   0.773  1.00  0.00     0.164 HD
BRANCH  15  18
ATOM     18  C   UNL     1      -8.414 -11.007   0.455  1.00  0.00     0.171 C 
BRANCH  18  19
ATOM     19  N   UNL     1      -9.017 -11.397   1.729  1.00  0.00    -0.343 N 
ATOM     20  C   UNL     1      -8.872 -10.630   2.869  1.00  0.00     0.242 CG0
ATOM     21  O   UNL     1      -8.123  -9.657   2.898  1.00  0.00    -0.273 OA
ATOM     22  H   UNL     1      -9.551 -12.257   1.783  1.00  0.00     0.164 HD
ATOM     23  G   UNL     1      -9.644 -11.160   4.095  1.00  0.00     0.000 G0
ENDBRANCH  18  19
BRANCH  18  24
ATOM     24  C   UNL     1      -8.195 -12.220  -0.458  1.00  0.00     0.038 C 
BRANCH  24  25
ATOM     25  C   UNL     1      -7.510 -11.898  -1.803  1.00  0.00    -0.015 C 
ATOM     26  C   UNL     1      -8.088 -12.709  -2.963  1.00  0.00     0.007 C 
ATOM     27  C   UNL     1      -6.006 -12.161  -1.690  1.00  0.00     0.007 C 
ENDBRANCH  24  25
ENDBRANCH  18  24
ENDBRANCH  15  18
ENDBRANCH  13  14
BRANCH  13  28
ATOM     28  C   UNL     1     -10.684  -7.111   1.031  1.00  0.00     0.327 C 
ATOM     29  O   UNL     1     -11.745  -6.510   1.104  1.00  0.00    -0.250 OA
BRANCH  28  30
ATOM     30  O   UNL     1      -9.945  -7.329   2.138  1.00  0.00    -0.480 OA
ATOM     31  H   UNL     1      -9.918  -6.457   2.585  1.00  0.00     0.296 HD
ENDBRANCH  28  30
ENDBRANCH  13  28
ENDBRANCH  11  13
ENDBRANCH   8  11
ENDBRANCH   6   7
BRANCH   6  32
ATOM     32  C   UNL     1      -6.566  -8.748  -4.292  1.00  0.00     0.037 C 
BRANCH  32  33
ATOM     33  C   UNL     1      -8.007  -9.271  -4.366  1.00  0.00     0.026 C 
BRANCH  33  34
ATOM     34  C   UNL     1      -8.570  -9.239  -5.787  1.00  0.00     0.146 C 
BRANCH  34  35
ATOM     35  N   UNL     1      -9.599  -8.211  -5.862  1.00  0.00    -0.254 NA
ATOM     36  C   UNL     1      -9.870  -7.695  -7.002  1.00  0.00     0.185 C 
ATOM     37  N   UNL     1     -10.820  -6.751  -7.083  1.00  0.00    -0.370 N 
ATOM     38  N   UNL     1      -9.324  -7.962  -8.202  1.00  0.00    -0.370 N 
ATOM     39  H   UNL     1     -11.287  -6.501  -6.220  1.00  0.00     0.159 HD
ATOM     40  H   UNL     1     -11.209  -6.426  -7.952  1.00  0.00     0.159 HD
ATOM     41  H   UNL     1      -9.525  -7.389  -9.005  1.00  0.00     0.159 HD
ATOM     42  H   UNL     1      -8.585  -8.641  -8.289  1.00  0.00     0.159 HD
ENDBRANCH  34  35
ENDBRANCH  33  34
ENDBRANCH  32  33
ENDBRANCH   6  32
ENDBRANCH   4   6
ENDBRANCH   1   2
BRANCH   1  43
ATOM     43  C   UNL     1      -4.400  -5.904  -7.046  1.00  0.00     0.102 C 
ATOM     44  C   UNL     1      -3.588  -4.988  -7.978  1.00  0.00     0.020 C 
BRANCH  43  45
ATOM     45  C   UNL     1      -5.916  -5.714  -7.155  1.00  0.00     0.225 C 
ATOM     46  O   UNL     1      -6.684  -6.617  -7.473  1.00  0.00    -0.275 OA
ATOM     47  N   UNL     1      -6.367  -4.428  -6.963  1.00  0.00    -0.342 N 
ATOM     48  H   UNL     1      -5.751  -3.737  -6.558  1.00  0.00     0.164 HD
BRANCH  47  49
ATOM     49  C   UNL     1      -7.796  -4.104  -7.002  1.00  0.00     0.192 C 
BRANCH  49  50
ATOM     50  C   UNL     1      -7.988  -2.691  -7.561  1.00  0.00     0.047 C 
BRANCH  50  51
ATOM     51  C   UNL     1      -7.251  -2.487  -8.891  1.00  0.00     0.103 C 
BRANCH  51  52
ATOM     52  C   UNL     1      -6.155  -1.429  -8.783  1.00  0.00     0.226 C 
ATOM     53  O   UNL     1      -5.060  -1.732  -8.304  1.00  0.00    -0.275 OA
BRANCH  52  54
ATOM     54  N   UNL     1      -6.450  -0.162  -9.321  1.00  0.00    -0.311 N 
ATOM     55  C   UNL     1      -7.086   0.877  -8.501  1.00  0.00     0.153 C 
BRANCH  54  56
ATOM     56  C   UNL     1      -6.143   0.157 -10.654  1.00  0.00     0.102 C 
ATOM     57  C   UNL     1      -7.030   0.593 -11.563  1.00  0.00     0.043 C 
BRANCH  56  58
ATOM     58  C   UNL     1      -4.725   0.069 -11.165  1.00  0.00     0.268 C 
ATOM     59  O   UNL     1      -4.405  -0.595 -12.142  1.00  0.00    -0.268 OA
ATOM     60  N   UNL     1      -3.847   0.860 -10.463  1.00  0.00    -0.339 N 
ATOM     61  H   UNL     1      -4.190   1.372  -9.659  1.00  0.00     0.164 HD
BRANCH  60  62
ATOM     62  C   UNL     1      -2.436   0.973 -10.829  1.00  0.00     0.168 CG0
ATOM     63  C   UNL     1      -1.559   0.163  -9.883  1.00  0.00     0.041 C 
ATOM     64  G   UNL     1      -2.018   2.458 -10.824  1.00  0.00     0.000 G0
ENDBRANCH  60  62
ENDBRANCH  56  58
ENDBRANCH  54  56
ENDBRANCH  52  54
ENDBRANCH  51  52
ENDBRANCH  50  51
ENDBRANCH  49  50
BRANCH  49  65
ATOM     65  C   UNL     1      -8.435  -4.191  -5.607  1.00  0.00     0.326 C 
ATOM     66  O   UNL     1      -9.531  -4.669  -5.357  1.00  0.00    -0.250 OA
BRANCH  65  67
ATOM     67  O   UNL     1      -7.707  -3.628  -4.618  1.00  0.00    -0.480 OA
ATOM     68  H   UNL     1      -8.270  -3.744  -3.822  1.00  0.00     0.296 HD
ENDBRANCH  65  67
ENDBRANCH  49  65
ENDBRANCH  47  49
ENDBRANCH  43  45
ENDBRANCH   1  43
BRANCH   1  69
ATOM     69  C   UNL     1      -2.478  -6.129  -5.239  1.00  0.00    -0.001 C 
ATOM     70  C   UNL     1      -1.967  -7.236  -4.673  1.00  0.00     0.001 C 
BRANCH  70  71
ATOM     71  C   UNL     1      -0.557  -7.506  -4.385  1.00  0.00    -0.055 C 
ATOM     72  C   UNL     1      -0.059  -7.061  -3.212  1.00  0.00    -0.018 C 
ATOM     73  C   UNL     1       0.237  -8.268  -5.414  1.00  0.00     0.044 C 
BRANCH  72  74
ATOM     74  C   UNL     1       1.349  -7.195  -2.650  1.00  0.00     0.038 C 
ATOM     75  C   UNL     1       1.232  -7.922  -1.305  1.00  0.00     0.015 C 
BRANCH  74  76
ATOM     76  C   UNL     1       1.995  -5.780  -2.574  1.00  0.00     0.128 C 
BRANCH  76  77
ATOM     77  O   UNL     1       3.098  -5.793  -1.653  1.00  0.00    -0.381 OA
ATOM     78  C   UNL     1       3.078  -4.719  -0.722  1.00  0.00     0.195 C 
ENDBRANCH  76  77
BRANCH  76  79
ATOM     79  C   UNL     1       2.373  -5.185  -3.954  1.00  0.00     0.068 C 
BRANCH  79  80
ATOM     80  C   UNL     1       1.301  -4.453  -4.726  1.00  0.00    -0.045 A 
ATOM     81  C   UNL     1       0.415  -3.581  -4.080  1.00  0.00     0.004 A 
ATOM     82  C   UNL     1       1.159  -4.659  -6.106  1.00  0.00     0.004 A 
ATOM     83  C   UNL     1      -0.582  -2.918  -4.799  1.00  0.00     0.000 A 
ATOM     84  C   UNL     1       0.161  -3.997  -6.824  1.00  0.00     0.000 A 
ATOM     85  C   UNL     1      -0.708  -3.125  -6.171  1.00  0.00     0.000 A 
ENDBRANCH  79  80
ENDBRANCH  76  79
ENDBRANCH  74  76
ENDBRANCH  72  74
ENDBRANCH  70  71
ENDBRANCH   1  69
TORSDOF 17
ENDMDL
